/data/masters/datasets/disco/data/ANDR/PDB_Structures/2YLQ_LIG.pdb
 OpenBabel03102204063D

 21 24  0  0  1  0  0  0  0  0999 V2000
   26.7550    5.1470    4.6920 C   0  0  0  0  0  0  0  0  0  0  0  0
   25.9460    6.3960    5.0400 C   0  0  0  0  0  0  0  0  0  0  0  0
   24.5570    6.2270    4.4640 C   0  0  0  0  0  0  0  0  0  0  0  0
   23.9390    7.1960    4.0120 O   0  0  0  0  0  0  0  0  0  0  0  0
   23.9520    4.8760    4.4610 C   0  0  0  0  0  0  0  0  0  0  0  0
   24.6490    3.7810    4.8540 C   0  0  0  0  0  0  0  0  0  0  0  0
   23.9340    2.4410    4.8660 C   0  0  0  0  0  0  0  0  0  0  0  0
   24.7830    1.4290    4.1320 C   0  0  0  0  0  0  0  0  0  0  0  0
   26.1310    1.2950    4.7780 C   0  0  2  0  0  0  0  0  0  0  0  0
   26.8550    2.6530    4.6630 C   0  0  1  0  0  0  0  0  0  0  0  0
   26.1020    3.8550    5.2550 C   0  0  1  0  0  0  0  0  0  0  0  0
   28.3150    2.6110    5.1760 C   0  0  0  0  0  0  0  0  0  0  0  0
   29.1300    1.4510    4.5540 C   0  0  0  0  0  0  0  0  0  0  0  0
   28.3980    0.1180    4.6560 C   0  0  1  0  0  0  0  0  0  0  0  0
   27.0020    0.2580    4.0560 C   0  0  1  0  0  0  0  0  0  0  0  0
   26.5040   -1.1710    3.8060 C   0  0  0  0  0  0  0  0  0  0  0  0
   27.7840   -1.9940    3.6080 C   0  0  0  0  0  0  0  0  0  0  0  0
   28.9350   -1.0030    3.7570 C   0  0  2  0  0  0  0  0  0  0  0  0
   30.1170   -1.6600    4.2190 O   0  0  0  0  0  0  0  0  0  0  0  0
   28.3040   -0.2720    6.1350 C   0  0  0  0  0  0  0  0  0  0  0  0
   26.1680    3.8660    6.7880 C   0  0  0  0  0  0  0  0  0  0  0  0
  1  2  1  0  0  0  0
  1 11  1  0  0  0  0
  2  3  1  0  0  0  0
  3  4  2  0  0  0  0
  3  5  1  0  0  0  0
  5  6  2  0  0  0  0
  6  7  1  0  0  0  0
  6 11  1  0  0  0  0
  7  8  1  0  0  0  0
  9  8  1  6  0  0  0
  9 10  1  0  0  0  0
  9 15  1  0  0  0  0
 10 11  1  0  0  0  0
 10 12  1  1  0  0  0
 11 21  1  1  0  0  0
 12 13  1  0  0  0  0
 13 14  1  0  0  0  0
 14 15  1  0  0  0  0
 14 18  1  0  0  0  0
 14 20  1  1  0  0  0
 15 16  1  1  0  0  0
 16 17  1  0  0  0  0
 17 18  1  0  0  0  0
 18 19  1  1  0  0  0
M  END
$$$$
