64

O	-3.0184424132228567	-2.791708141828572	0.16510283831428546
O	-2.808754113222857	-2.0819692830285716	-1.3413611506857146
O	-4.024027113222857	-2.107138139828572	1.0232472853142855
O	-1.555132110222857	-2.8374063818285715	0.9880737753142856
O	-3.370656793222857	-4.573761409828572	-0.057652207685714496
O	-1.890894051222857	-4.586335099828572	-1.9670761046857144
O	-2.096951123222857	-5.080843369828571	-0.6801741126857145
O	-0.965069910562857	-5.025554329828571	0.12834953031428548
O	0.13101140677714296	-5.605143979828572	-0.5065738384857145
O	1.370398306777143	-5.815895309828571	-2.5924986446857146
O	1.147560766777143	-6.494803869828571	-3.784634754685715
O	0.03770364677714311	-6.089065059828572	-4.468797004685714
O	-0.754699005222857	-5.054992609828572	-3.9779766346857146
O	-0.7047253282228569	-4.7477140898285715	-2.6226775046857145
O	0.3378224367771431	-5.240695099828572	-1.8415797146857145
O	1.528507376777143	-7.928101719828572	-3.982252954685715
O	1.0913323767771432	-8.594383869828572	-4.942227044685715
O	1.879217136777143	-8.789179359828571	-2.8986279846857146
O	1.048688046777143	-9.800819279828572	-2.2495876146857143
O	-0.43175127822285697	-9.533804369828571	-2.3984064246857146
O	-0.940026579922857	-9.753096859828572	-3.728049594685715
O	-0.6925204302228569	-8.317452969828572	-2.0511966546857145
O	1.317080536777143	-9.468468589828571	-0.7615150926857145
O	0.11587346677714294	-8.95974220982857	-0.030762372685714467
O	0.5392042367771429	-8.580823129828572	1.3296951153142855
O	1.527252906777143	-9.279310629828572	1.9915883153142857
O	-0.12534603922285703	-7.745009679828572	1.9927062753142855
O	-3.534564563222857	-5.235061849828572	1.1130633953142857
O	-4.328616613222857	-4.6826004698285715	-1.0025465986857145
O	13.671460616777143	0.7244096801714281	-4.118108524685715
O	9.486471216777144	-2.1918973428285717	1.4004018553142856
O	6.271001186777143	-3.7249526398285715	2.6295701653142856
O	5.321681056777143	-5.004448589828572	-0.7803000416857144
O	7.384788456777143	-6.200825119828572	-3.6870968646857145
O	5.257834056777143	-4.707447279828571	-6.428482554685715
O	4.685876006777143	-1.3657253798285716	-4.688831274685715
O	7.718198366777143	0.8718457801714283	-4.914758994685715
O	8.261626416777142	4.598152580171428	-5.2610347346857145
O	8.923727166777143	3.9492151201714285	0.48087915131428555
O	3.2266706167771435	2.7191148001714285	2.8545149153142853
O	2.184141746777143	1.8027605001714284	6.385031095314285
O	5.406542036777143	1.8613811401714284	8.437889365314286
O	-6.676396153222857	5.276668590171429	6.100929995314285
O	-6.040721553222857	1.6835098801714286	7.175207225314286
O	-1.810791256222857	-9.613859369828571	9.817408895314287
O	0.38019156677714305	-6.541824689828571	10.312699495314286
O	-1.0900106242228569	-4.237715949828571	7.681700925314286
O	0.8249336967771429	-1.4384080138285715	9.465663935314286
O	-8.328541753222858	-2.6108277598285716	2.1233293253142853
O	-9.563388483222857	-2.7717472438285715	-1.4761224946857143
O	-12.845805083222857	-1.4966347668285715	-0.14299105168571447
O	-2.840411723222857	3.177094430171428	4.185337635314285
O	-1.219036754222857	-0.20015158982857173	3.9795046153142852
O	0.578534606777143	-0.20224152982857158	0.5359551233142854
O	0.10886938677714297	3.581801760171428	0.20483887531428552
O	-1.732916706222857	3.4186077301714284	-3.1189687546857146
O	-5.359224093222857	2.2479074401714283	-2.9439810646857145
O	-7.056196913222857	4.093592490171428	-0.1798856606857145
O	2.359598956777143	3.7051413901714283	-9.130993104685714
O	-0.946270872422857	1.8975459001714285	-8.564363314685714
O	-3.066029673222857	4.771928580171428	-7.253922184685715
O	-6.622409283222857	3.442950370171428	-6.819561634685715
O	-6.640615903222857	-0.34974428982857164	-6.620713514685715
O	-10.213380333222856	-1.1651766078285717	-7.640746824685714
