74

O	-0.4921009765584617	-1.0284910606692308	-2.8791679359507696
O	0.08745914344153827	-1.2575112106692308	-4.08736793595077
O	0.6989920754415383	-0.2555479266692309	-4.90241852595077
O	0.45560409544153824	1.0413938903307691	-4.84651499595077
O	-0.09036882255846168	1.2957558693307691	-3.6493362759507693
O	-0.5298744225584617	0.3090374892307692	-2.7067928959507697
O	-0.9070085585584617	-1.975566590669231	-1.8753677559507695
O	-0.9752418745584617	-3.345212830669231	-2.0772979859507696
O	-1.4691509275584616	-1.746367310669231	-0.7556020029507695
O	5.859939105441539	-5.779129320669231	3.8122351940492307
O	6.885315185441538	-6.821659330669231	7.313434284049231
O	7.278865765441539	-3.8477503506692305	9.62534516404923
O	8.849206745441538	8.851945299330769	-6.30221993595077
O	6.425546185441538	8.67195032933077	-3.3282401559507693
O	6.153677635441539	9.703021979330769	0.3342785970492306
O	-1.2731903285584618	9.552613609330768	-8.97706903595077
O	2.3181727454415384	10.021892699330769	-7.84413614595077
O	-8.110180634558462	5.8918550293307685	-12.095317335950769
O	-9.920900654558462	2.694520479330769	-13.10424593595077
O	-8.789930714558462	-0.8757740406692309	-13.29501173595077
O	-7.532364334558461	-0.6261933016692308	-9.63590679595077
O	-8.673965734558463	2.395177589330769	-7.729148085950769
O	-7.714713914558462	6.01735288933077	-7.92089600595077
O	1.9177673854415382	3.498400769330769	7.969994124049229
O	5.477928515441539	4.39037161933077	7.152309754049231
O	7.707182465441539	4.661393989330769	4.072193784049231
O	8.26654124544154	1.2258067063307692	-0.48525184215076944
O	8.92466465544154	-2.347296730669231	-1.5723712759507695
O	9.459291365441539	-5.12510314066923	0.9965884440492305
O	8.045689985441538	-7.822695070669232	-1.3408890489507694
O	5.909286655441538	-7.0404993006692305	-4.40903114595077
O	8.420729855441538	-8.963460010669232	-6.598070155950769
O	11.431002265441538	-6.82275319066923	-5.578256205950769
O	12.471737365441538	-4.11695933066923	-8.10702956595077
O	6.999059245441538	1.284664119330769	9.57755420404923
O	4.262538345441539	-1.2081779306692308	10.51320016404923
O	-11.655460334558462	5.81422741933077	0.7333128440492305
O	-10.734601424558461	3.737849699330769	3.83609120404923
O	-9.340655274558461	0.13291857533076917	3.8257319740492304
O	-6.768782144558462	-1.1817774406692307	6.39039004404923
O	-5.257034044558462	-4.70730086066923	6.64941743404923
O	-2.4901830845584616	-10.484705400669231	5.906925474049231
O	1.2625690254415383	-10.370130800669232	6.833029104049231
O	2.2024770354415386	-6.69423581066923	6.606307904049231
O	0.7274605754415383	-3.966307260669231	4.33412847404923
O	1.8595821254415386	-0.8630198706692309	2.3379502040492306
O	3.2498122954415383	-1.5555483606692309	-1.1933123419507696
O	4.4982916454415385	0.17743657083076916	-4.353225545950769
O	6.850155985441538	2.9969393793307693	-3.3864339459507695
O	4.694372805441539	3.726484629330769	-0.2837562459507695
O	2.0378078954415386	5.694708539330769	-2.1590970759507693
O	1.4960578454415385	9.299476069330769	-0.8853181759507694
O	2.6141430454415384	8.34253666933077	2.5762381640492307
O	0.5861931454415382	8.607294089330768	5.76185933404923
O	-1.7195207075584618	6.289852099330769	7.67840843404923
O	-1.6274180495584618	7.85174912933077	11.18736766404923
O	-5.251724814558462	8.14775921933077	5.313500084049231
O	-2.8219869345584616	8.489236369330769	2.3979400540492306
O	-1.5024151465584616	5.2775483093307685	0.8488548440492305
O	-3.2392955445584617	4.98408000933077	-2.6677557859507695
O	-3.8024618445584615	1.5183209493307692	-4.20139173595077
O	-4.354266624558462	-2.1426505806692306	-3.4018567059507694
O	-4.128107544558461	-5.36791230066923	-5.38247629595077
O	-0.7167121132584617	-6.872985030669231	-4.885450365950769
O	0.7954410054415383	-6.21180103066923	-1.4682034359507694
O	-0.2608360555584617	-8.116499030669232	1.6727330340492306
O	-2.6500238845584616	-10.326687300669231	-0.27170499695076944
O	-5.431264604558462	-12.130225800669232	1.4027714840492305
O	-8.707192204558462	-10.221917900669231	1.1608008740492306
O	-6.933111204558462	-7.41817011066923	-0.6838616539507695
O	-6.627953274558462	-4.635095430669232	1.9027706140492304
O	-4.6401568545584615	-1.5341270906692308	1.2191203040492304
O	-6.977029584558462	1.347441529330769	0.22262824204923048
O	-6.285067534558461	4.901722099330769	1.3815232140492306
