82

O	1.6967072642063492	0.9623879060952386	-0.6761527751412706
O	2.355967054206349	1.1236077887952387	-1.6963088021412707
O	1.2707358142063492	-0.2728044969047614	-0.43134993414127065
O	1.2892144742063492	1.8587304920952388	0.3312680088587293
O	-0.10698519979365095	2.1495941530952387	0.3410561288587294
O	-0.6283738167936509	1.1574535422952386	-0.24057861814127068
O	-0.09085001879365096	-0.05949576690476133	-0.33861696314127065
O	-0.7333941257936509	-1.0403540969047615	-1.0675474481412706
O	-2.111727535793651	-0.3955921469047614	-0.7251432431412707
O	-2.5158281657936508	0.6783946430952386	0.2356259388587293
O	-0.18842149979365097	-0.36420898690476133	-3.1821645511412706
O	-1.673395735793651	-0.0600762869047613	-2.882451131141271
O	-1.891321588793651	0.5332954290952386	-1.8164840381412706
O	-1.0929930820936509	1.5418207250952385	-1.5084474371412706
O	-0.3611763327936509	2.0220929880952387	-2.590061911141271
O	-2.246115605793651	2.2793918230952386	-1.2091858521412706
O	-3.046252555793651	1.7892405180952387	-0.16700354614127066
O	-4.33637850579365	2.420454033095239	-0.3300999881412706
O	0.11257220420634906	1.0077177593952387	-3.5417535311412705
O	-11.264087475793652	-2.4449330369047617	-3.7027494711412707
O	-9.436194205793651	-1.4546454069047614	-6.881164081141271
O	-7.893816805793651	1.9737070080952386	-7.125360801141271
O	-9.273331315793651	3.8508805330952383	-10.089890721141272
O	-1.2440124437936508	5.898527973095239	-14.336226981141271
O	2.135553844206349	5.147507453095239	-10.158807641141271
O	-1.168564726793651	3.7813651630952387	-8.899877251141271
O	-1.778958448793651	0.8259535470952386	-11.238186281141271
O	1.408800424206349	-0.9204193369047613	-10.03510110114127
O	-0.4398420007936509	-1.6560271869047616	-6.8103585111412706
O	-3.7649982957936508	-2.9009371069047614	-8.13444896114127
O	-4.459546905793651	-6.6501952569047615	-8.539620771141271
O	-2.597577535793651	-7.867818426904761	-11.63945928114127
O	1.5965076042063493	-7.001909886904762	1.6912419688587295
O	-0.025458065793650952	-4.046523696904761	3.3952704588587292
O	-2.717397945793651	-2.332008896904761	1.8351361188587294
O	-4.469615275793651	-1.0038625069047613	5.012072738858729
O	-6.054680685793651	-4.427205976904761	5.457658598858729
O	-8.48928744579365	-3.6642907069047608	2.5774868788587293
O	-6.144161125793651	-4.396615316904761	-0.3848344231412706
O	-2.891987205793651	-5.966437886904761	-1.5711313111412706
O	-1.6407928907936509	-8.843923466904762	-3.7829576511412704
O	1.3132176842063492	-11.186321346904762	-3.4496265111412705
O	1.7479073542063492	-11.018872746904762	-7.2353776311412705
O	2.701196944206349	-7.388229086904761	-7.818020751141271
O	7.2062082642063485	-4.765192096904761	-7.011950361141271
O	6.867651934206349	-7.877228866904761	-4.81980565114127
O	-4.61906714579365	-13.329578846904763	3.1758247388587297
O	-8.63942756579365	-8.334356506904761	3.0500315388587294
O	-11.66492347579365	-6.046827416904761	3.51937961885873
O	-7.188407525793651	-12.509736946904763	7.6597149488587295
O	5.172437654206349	-2.9602491669047613	4.980585528858729
O	2.346382334206349	-0.6910578869047614	6.225609248858729
O	-0.5254148867936509	-3.052803026904761	7.215764778858729
O	2.031542054206349	-5.797737796904761	6.554229308858729
O	4.263286344206349	-4.129594556904761	9.114142418858728
O	1.3992740642063493	-3.8484443969047613	11.615592418858729
O	8.449808534206348	-1.3687194169047612	7.41374359885873
O	6.3321907742063495	1.7953998780952385	7.966442018858729
O	3.7654742442063487	-0.04454981690476134	10.049199418858729
O	3.354824984206349	-0.8900562269047614	13.71055991885873
O	-7.885192625793651	9.940473263095239	5.924336718858729
O	-5.596979565793651	7.034980273095239	6.705015368858729
O	-9.836491185793651	1.8182154890952387	6.8031442888587295
O	4.646012294206349	8.707936633095239	4.925758898858729
O	1.668549474206349	11.072198553095237	4.847704138858729
O	1.733800524206349	12.460875853095239	1.2836026888587293
O	-0.20412292679365096	9.630268003095239	-0.3507608181412706
O	-3.203884555793651	10.046363433095237	1.9874329488587295
O	-3.363840455793651	13.804604553095238	1.6403330088587293
O	-6.306886845793651	11.012041143095239	-1.9736275411412705
O	-0.2006489567936509	7.358427573095239	11.52054571885873
O	3.214786604206349	5.760901653095239	11.10297451885873
O	4.569774094206349	10.762541893095237	-8.54093686114127
O	4.928307414206349	14.570543853095238	-8.159571211141271
O	6.503252054206349	8.222626893095239	-0.34853051514127065
O	4.843275804206349	5.545554123095239	1.7389807888587296
O	5.750315084206349	2.1430530630952385	0.2727064288587294
O	8.55436303420635	3.354343833095238	-1.9101127521412706
O	11.37126602420635	1.6699932780952387	0.03926542685872936
O	9.825030924206349	-1.6846472169047615	-0.9985290212412706
O	11.237691524206348	-1.6300782869047612	-4.54812712114127
O	14.05090862420635	-4.057249156904761	-0.5163352231412706
