20

O	57.66152330594771	68.11024019417128	21.592801013041342
O	58.526239899953836	69.0313445571828	22.87691644069075
O	57.93002358373034	70.71673004328166	22.45387606730394
O	59.13980901786044	71.57569812281514	22.41178628097863
O	59.187293272952324	71.9428342341993	21.104595592334896
O	57.943682553215815	73.53025808148071	22.369354664879985
O	58.415483482906104	74.806008229862	22.50421707285572
O	58.86729270185869	72.74595974718028	23.279293028261257
O	60.0552306873947	73.37409930164877	23.58610642033087
O	58.280798500387036	72.94787850709345	21.070434963942873
O	57.196074190573015	72.39808043140653	20.282982967927467
O	57.2357470170109	71.61140585235752	19.21800133276165
O	56.190073849330105	71.73833480062225	18.41516860244777
O	55.763737976723235	73.04269052779951	18.63911022555261
O	54.55082286064417	73.48463604505785	18.18596026675764
O	54.28135991495664	73.61996542978265	16.83487717493035
O	53.88878475656118	74.15114530569268	19.091015956391033
O	54.42110741143093	74.45087210304624	20.26849060805855
O	55.62272652770288	74.0426754136631	20.712926467092586
O	56.253738871344154	73.26592626722255	19.893714899504246
