80

O	-1.4997646404923073	0.9647775111054457	-0.11326755366153918
O	-0.26265438549230724	1.4699080831054459	0.5019754829384608
O	3.238423058507693	1.6004394531054458	-0.47746385406153913
O	2.187407098507693	2.6012666331054457	1.1000175359384607
O	-1.0641516294923072	-0.2405554038945542	-0.7460749520615392
O	0.46616149850769273	-0.30176836589455425	-0.5925910340615391
O	0.7980183485076928	-0.6464739968945542	0.8692541229384608
O	0.7306464285076928	1.229894357105446	-0.6462312230615391
O	0.6485727885076928	-2.062354186894554	1.2122222859384608
O	1.9885223185076926	1.7224782231054458	-0.10702008506153918
O	-1.4589290414923073	-0.2898426708945543	-2.161313184061539
O	-2.678860581492307	0.12574069310544578	-2.619490674061539
O	0.1258602885076927	-2.578770356894554	2.3994362559384608
O	1.6265490685076929	-2.816305676894554	1.1133701859384608
O	-1.2079046025923073	-1.3198336468945544	-2.814587814061539
O	-0.3475722234923072	10.526213743105446	-7.26610387406154
O	2.7325179185076927	9.063830793105446	-5.61204998406154
O	4.508464178507692	8.501109533105446	0.044872013938460825
O	4.753590458507692	10.299474343105446	3.396315295938461
O	0.23680295850769273	11.755140443105446	1.7986678159384608
O	3.101408978507693	8.583251813105447	-11.452018054061538
O	5.7635346985076925	7.9174654731054455	-14.087777654061538
O	6.867561588507693	4.468163753105446	-12.936575154061538
O	6.526225728507693	5.254365333105446	-9.21207421406154
O	4.146341668507692	2.349073373105446	-8.636253154061539
O	0.6367413985076928	1.9492105531054458	-7.163918474061539
O	-1.0115942864923073	-0.43409487489455423	-9.602907694061539
O	-0.7397712314923073	-4.147863346894554	-10.285579154061539
O	1.4412849485076926	2.404211633105446	-11.661747154061539
O	-1.3621139314923072	4.853879423105446	-11.009507854061539
O	-5.692466291492307	9.051394823105445	-8.739504984061538
O	-5.580472961492307	10.593191843105446	-5.2465073440615395
O	-3.1822362414923075	8.639873313105445	-3.064269694061539
O	-3.157017181492307	5.873783673105446	-0.41248784106153913
O	-4.450391481492307	3.417400943105446	-2.999468854061539
O	-6.114451351492307	0.46613986825144577	-1.2268452240615393
O	-9.558661061492307	-0.5224311558945542	-2.529491004061539
O	-9.133784241492307	-4.125077006894554	-3.754938474061539
O	-11.159551661492307	-6.595764356894554	-5.863185404061539
O	-8.676752041492307	-6.803807736894554	-8.766229004061538
O	-7.057682091492308	1.1645836091054458	7.869734005938461
O	-5.875473841492307	-2.3918699168945543	8.411200765938462
O	-2.7523498114923073	-4.513810296894554	8.14632334593846
O	-0.5173899924923072	-3.994222476894554	11.196737445938462
O	7.5689518885076925	-9.790432556894554	5.61538645593846
O	5.352674008507693	-7.452828046894554	3.636851195938461
O	5.965872658507693	-5.022281746894554	0.7786968469384609
O	6.831140418507693	-6.988476366894554	-2.364527564061539
O	3.6726701685076923	-5.806089196894554	-4.11994854406154
O	0.35663309850769265	-4.461764426894554	-2.790022864061539
O	-2.7061875914923075	-5.402036336894554	-0.8523069690615391
O	-0.9515414834923073	-6.613097486894554	2.294358265938461
O	1.012724448507693	-9.318742796894554	0.4358300119384608
O	-2.2034769014923072	-10.428789956894555	-1.3056275540615392
O	11.695874838507693	-10.884971156894554	3.646122005938461
O	9.799830538507692	-8.687639956894554	1.1606013259384607
O	10.705063738507693	-4.990016686894554	0.7449510909384609
O	10.181325038507692	-2.652880796894554	-2.252636484061539
O	8.783728168507693	0.3386131881054458	-0.39089107706153914
O	7.655712588507692	1.6557300031054458	3.005956915938461
O	10.985491438507692	3.476215743105446	3.374934565938461
O	12.781082038507693	0.16416103410544575	2.763862935938461
O	10.684683638507693	-1.7439642468945542	5.28967046593846
O	3.734230388507693	-6.0036621568945545	8.054624395938461
O	2.2950658485076927	-2.759307126894554	6.6897108359384605
O	-0.8646218674923072	-0.6482728568945543	6.72666320593846
O	-1.7752879684923073	0.8971213411054457	10.115188045938462
O	-1.8222200214923072	4.399400293105446	8.587835945938462
O	1.9152857785076927	4.327350023105446	7.679485745938461
O	2.7424485085076924	2.4625003431054457	10.90469034593846
O	2.7265788585076924	7.901699403105446	11.073862945938462
O	-5.092932251492307	-4.6490189768945545	12.915550145938461
O	-5.390852221492308	-7.968111426894554	11.04878064593846
O	-8.183002111492307	-6.735465946894554	8.773867795938461
O	-9.945356331492308	-1.941203016894554	4.47537921593846
O	-9.854780501492307	1.587872243105446	3.052105645938461
O	-8.211384081492307	3.953286613105446	0.6041307349384608
O	-10.314686841492307	5.280574403105446	-2.249400234061539
O	-9.961198561492308	7.962212443105446	-4.90771198406154
O	-14.514281961492307	-7.060500916894554	-1.5504349040615393
