13

O	48.04126746780082	25.129085802072346	42.53567895516331
O	47.25440517025112	26.285564458022776	42.767659201103314
O	47.09302849971737	26.84792278409324	44.085826376728804
O	47.846163362841594	26.72196700795193	45.047239530507944
O	45.90290461315728	26.976566328883692	44.66495655666571
O	45.886340305739076	26.024066497143753	42.219275374671724
O	45.9964824607426	25.803359755595704	40.78491198536468
O	46.1542401352626	26.889196319387857	39.90447303471959
O	46.3897078290192	24.648414235406914	40.18417916532214
O	45.700549919015735	23.317138548989053	40.21244994854038
O	45.579431515900616	27.937025401123048	40.1794485826677
O	46.227661899102706	26.305530132865336	38.75143565824674
O	46.62311650760996	25.000124488549442	38.961179897053064
