18

O	9.526837276703016	9.360241256018167	1.439241919730949
O	10.019014954136866	9.339234657554611	2.6258331279474776
O	11.360605276368819	8.873494609325766	2.8252883298509244
O	12.202345080962676	10.165781509123295	2.994717083651359
O	13.613894834853868	9.887919125642016	3.4024447041598345
O	14.008186329251753	8.797859348177614	2.5331271706200895
O	13.334140379953865	8.973398987315143	1.201062969087919
O	11.931858633967385	8.485268077029614	1.4409877786663778
O	13.651731017175496	7.555830313348244	3.148768541809554
O	13.165889185427446	7.459082351184238	4.550449069347522
O	13.264032053906256	6.599602217798066	2.197047964671393
O	8.827823810220496	9.085270112214396	3.425231528406684
O	7.34493898849194	9.516675479410075	3.3274784421604053
O	6.377800542597724	9.702224914593334	2.5038902094845557
O	5.049292402514801	9.356153684756162	2.7999188129323302
O	4.489429261132938	9.635592341890336	4.009780583787736
O	5.452049318901928	9.370520608304401	4.841492734735629
O	6.821423186069441	9.639031941900718	4.65035719029021
