22

O	9.498414847519754	10.966892445999687	4.3691997601039105
O	9.17072253302846	9.945177734031345	3.3852687462801634
O	9.867116301016008	10.958330668480048	2.3581187818151896
O	10.428517424111302	8.789785329474311	3.224120754051753
O	11.112029702545296	8.821999782775272	4.429990429539719
O	12.161494360348104	9.868164296709608	4.3694219005567385
O	11.99037442019975	7.713739786924762	5.001969653031842
O	12.302070261114299	7.0895157997836815	3.755409506225768
O	13.436202543840697	7.880260122613402	3.2707888744758287
O	12.73938073258653	8.888266896066392	2.454594205764071
O	11.292194297106997	8.717832576545403	2.1179638944388803
O	7.617484369025239	9.835834283284449	2.7390827364786556
O	6.3836130678083745	9.915628016244908	3.3184528818290024
O	6.258736076692714	9.648530153388759	4.616736332739616
O	7.526621659697327	9.842372519716644	5.409503015678168
O	5.222159518457303	9.851787476897783	2.5428671833077847
O	5.2612282613679335	10.036522583013051	1.190067188071021
O	6.457704006956812	10.011571402638303	0.5794334351701922
O	7.629978075385397	9.943993339883555	1.3398104053866797
O	3.945031202790533	9.839455758604377	3.0963831708260403
O	3.864978713096643	9.93906387645314	4.414364610894679
O	5.018641368271343	10.011962145838007	5.146907073431432
