26

O	38.55141018537798	42.69422945999583	-3.9713318653085166
O	37.30110052883695	41.462690532922466	-3.8900771858923564
O	36.57693318584085	41.467149698607265	-2.6330623406947042
O	37.3260536387903	40.71749459066806	-1.544580530646495
O	38.825263195084844	40.97465441325847	-1.6231755832025923
O	39.52011105578404	40.27086976551979	-0.49687629209298745
O	40.164121363523925	38.97081543739421	-0.8820147768909359
O	36.50320949209202	41.76636559102876	-5.0638848034511
O	37.0208441261326	42.09203794981415	-6.135589896074208
O	35.11256423551053	41.427948828346686	-5.243428528666188
O	34.898688094578155	40.097666232820956	-5.766163429699207
O	34.6370028742689	39.95443277601045	-7.209398775033911
O	33.51516722193109	39.17303698215999	-7.810106073576279
O	32.89086844997149	39.636529699054634	-8.978349674573943
O	33.3234010943438	37.81866827337832	-7.762510736753903
O	32.119111219064315	38.93352143986292	-9.850253163542146
O	32.25294786091769	37.16423167017039	-8.373116492845632
O	31.888414536456544	37.61543804597179	-9.59319453849152
O	36.15527949964724	39.50148815253255	-5.28801956880122
O	37.09877346920639	39.81017282220607	-6.08154207602065
O	36.69562727031444	38.819299623538434	-4.233801727151723
O	37.74779447623865	37.91410992545421	-4.3639453505221075
O	37.63286467549089	36.477978739139424	-4.095884688577492
O	38.99808718658863	38.61103656620178	-4.047627415791167
O	40.00202768314755	37.703363397135256	-4.106930242831611
O	39.29828301324399	39.54506923938774	-4.817899376419048
