80

O	1.5162087545714287	6.364637130897959	3.502876793688367
O	1.7834468245714286	5.670353460897958	4.715269363688368
O	2.8517384345714287	4.750688230897959	4.421013233688368
O	3.9469781245714293	4.570613550897959	3.611145773688367
O	3.500250844571428	3.4319762108979583	2.8530966436883674
O	4.025165824571429	2.5211437688979585	3.714475013688367
O	4.643643264571429	1.3088458188979586	4.084374483688367
O	3.5212944745714285	0.5862457008979587	4.5043352436883675
O	3.258925294571428	1.0288750408979586	5.665158643688367
O	2.464972874571429	0.6905770208979587	3.440432403688367
O	2.7911126145714285	0.7193331408979586	2.1533516836883675
O	1.8471328145714285	1.0206755658979587	1.2406784666883675
O	2.3229224545714287	1.6295652008979586	0.11572818668836737
O	3.220053954571428	2.7622211948979585	0.17912912768836736
O	3.9037924645714286	1.9874892505979587	0.6754773134783674
O	5.363539364571428	1.5711467798979586	1.1980753796883674
O	6.0353409845714285	2.711193689897959	1.6952764936883673
O	5.335341524571429	3.737242770897959	0.9945447936883673
O	3.7693234345714286	3.807042770897959	0.5753770717883674
O	1.0124470145714286	1.9399722576979588	1.5180577646883675
O	0.2410432295714286	2.4305731548979588	0.4437321516883674
O	-0.1743280688985714	3.703790860897959	0.24954424368836736
O	0.34995288257142865	4.368168860897959	1.2783261266883674
O	0.22832415657142863	3.6823536608979586	2.487598503688367
O	1.0168172745714286	2.6285720958979586	2.6409870436883676
O	1.4188954245714287	1.6643462258979587	3.482888263688367
O	-0.7155325424285713	4.4877653108979585	-0.8187533463116327
O	-0.8538614744285714	5.786510310897959	-0.7197095963116326
O	-1.9306794454285714	4.222347040897959	-1.4863648863116325
O	2.7241378645714285	2.7933788988979584	3.9052139236883674
O	2.8910623845714287	3.6003880708979588	5.200908903688367
O	-8.462394305428571	7.214423640897959	4.508222903688368
O	-1.8927172654285713	-7.375769319102042	5.195825213688368
O	-4.932576475428571	-8.150027589102042	3.1075193736883673
O	-5.315444885428571	-10.656638889102043	0.31902299268836737
O	-1.2914176754285713	-10.622097489102043	-2.0536198363116327
O	2.0146788745714286	-8.550096189102042	-2.194387436311633
O	5.556250884571429	-10.062780589102042	-1.6729624263116327
O	6.621370794571429	-6.813901979102041	0.3912558996883674
O	4.216297864571429	-7.992467769102041	3.1997977636883674
O	9.82343794457143	-10.781272989102042	2.406577253688367
O	11.44847227457143	-9.693158089102042	5.704018343688367
O	12.152570974571429	-2.7000658491020415	-4.221872236311633
O	13.437185174571429	0.6967284308979587	-5.123284246311632
O	13.249441474571428	3.8926603908979587	-2.9491482063116328
O	9.45860021457143	4.397188670897958	-3.9001396763116327
O	8.43415012457143	1.7909845328979586	-6.409241966311633
O	8.28543410457143	-2.1260316891020414	-5.873786736311633
O	-8.87416289542857	-3.1253981391020407	3.9911966436883675
O	-8.411670685428572	-2.840002439102041	7.730009853688367
O	-5.533206585428571	-0.19792646910204126	7.184278163688368
O	-5.124444375428571	3.2564585408979587	8.812519103688368
O	-2.205422275428571	9.039355020897958	8.454217103688368
O	-6.049359455428571	0.13746061089795858	12.737505833688369
O	-2.0350104954285717	4.348592760897959	-10.372603566311632
O	-9.65888188542857	13.072168110897959	0.3918109596883674
O	-6.742419815428571	6.683205620897959	-0.33380623631163264
O	-5.329870595428571	3.313372630897959	0.6725716949583674
O	-2.8834925154285713	3.629451080897959	3.5028049436883673
O	-0.6068996854285713	1.4183286468979586	5.5602577836883675
O	-2.157861255428571	-1.8551163691020414	6.669122303688368
O	-4.114658645428571	-1.9821900091020412	3.4566194336883673
O	-1.2336578554285713	-3.5540927791020414	1.3379422836883674
O	-1.7474347854285714	-6.6971671291020405	-0.36947586631163254
O	-5.546823735428571	-6.1236577591020405	-0.6126451263116327
O	-3.098289105428571	-5.332247729102041	-5.689346476311632
O	-2.3425001354285717	-2.5149984391020412	-3.071900506311633
O	1.2780530745714287	-2.111947699102041	-3.6052260963116325
O	2.6902285345714283	1.4148268968979587	-2.7567423663116326
O	2.4658992345714283	5.344854130897959	-2.5825107563116325
O	3.9079881045714284	8.569416530897959	-1.2745158163116326
O	1.8517702545714287	9.86226800089796	1.7381476636883675
O	-1.7975919054285714	8.792175710897958	2.2030419836883675
O	-4.265309215428571	10.864336600897959	0.2398338326883674
O	-1.6418684654285713	13.510558410897959	-0.24675246831163267
O	-1.4382202454285713	8.366509160897959	-6.035201446311633
O	-1.5391903154285713	4.879650540897958	-4.601251586311633
O	0.1766624015714286	2.5791587528979587	-6.865953176311633
O	-1.1005558754285714	-0.9438633891020414	-7.459290626311632
O	0.3048611035714286	-4.271216649102041	-9.238454446311632
