21

O	36.32840644116684	-2.1470428994861215	12.030139486933912
O	35.182746828823056	-2.303179272443238	11.31700922911383
O	34.79312264423708	-1.4371294963886951	10.478422965957721
O	34.47612048501297	-3.4583259468803735	11.370291985469462
O	34.90796911183308	-4.3924460027677785	12.218306306045685
O	34.22424440680248	-5.461855750886624	12.248383852729443
O	36.00757875439765	-4.220571221618112	13.015430229888084
O	36.81302309214108	-3.130874029487384	12.826272174441208
O	40.52257569513588	-1.6755923920936493	13.773695402381485
O	40.35045503041236	-0.3867511364740897	13.300391205637792
O	39.056616551976816	-0.11689014583836692	12.651775531706006
O	38.468404160712446	-1.0980833491551811	11.916392445985993
O	38.06852361921765	0.7812357192042481	13.336210227936721
O	38.28470907294219	2.014639836043707	12.782682664717871
O	36.774521419052235	0.09431825356654695	12.991035112387896
O	36.15668246213755	1.0906882442765964	12.266641615074906
O	37.107033982573114	-0.9529318153873985	11.929883645750214
O	36.395728508344845	4.086732764983747	13.033240999232346
O	37.90449847010715	3.4600014911335135	13.399813336955422
O	38.87507896737082	4.542639652935066	12.93551551052654
O	38.02455383062253	3.577390744225116	15.068030979012544
