20

O	59.02874254112214	68.375866939863	22.94028279748043
O	57.559517028057186	69.23255622479878	22.506990998239935
O	57.67328269737019	70.94166177734408	22.85446668732238
O	58.70380912521182	71.57079868605638	22.058281472295725
O	59.161078846429405	72.191199828489	20.97182565315965
O	58.50829854480791	73.68306798701796	22.556707273938713
O	59.35783507446601	74.55483729661117	23.149284793028848
O	59.422389113427876	72.47573282936989	23.01312272613666
O	59.09038630594565	72.4408940765425	24.307028649656914
O	58.27198651598693	73.35826804508898	21.21989984979483
O	57.297977552576086	73.11787252391188	20.272249367264237
O	57.60590268728404	72.82208854643274	18.95712048048121
O	56.47557333573364	72.70816936550486	18.27429445290525
O	55.601151286597954	73.42118815516207	18.933866271719662
O	54.44912260305486	73.89125311379955	18.408277734038748
O	53.925776679851694	73.75063355624971	17.13144772381805
O	53.70077523897855	74.53263681420573	19.271652552157473
O	54.25441283927932	74.81123425261956	20.439291878579414
O	55.30040930543777	74.20234073388258	20.99535625575921
O	55.97718717816252	73.34772589779338	20.240691121351887
