87

O	1.9184223494266666	0.20476657310333346	2.552853432433333
O	1.4555448594266667	-0.1754095288966665	3.8059675624333327
O	0.9079256294266667	-1.2563928028966664	4.464965232433332
O	0.3514799184266667	-1.0020643928966666	5.698270332433333
O	0.1810744584266667	0.3726878971033335	5.543284642433333
O	1.0785150494266666	0.8507706021033334	4.570377932433333
O	1.0682954994266667	2.0336937971033335	3.9242983224333323
O	0.6649332594266668	1.9010890571033334	2.527807862433333
O	1.729986249426667	1.3334423251033334	1.8114203024333329
O	1.6179500494266665	1.6074759551033335	0.3710576404333328
O	2.613836949426667	1.5116219931033335	-0.6278506265666672
O	3.947096369426667	1.7369981271033335	-0.12961326896666725
O	4.342180289426667	1.0309616691033334	1.0508750824333328
O	4.847411309426667	2.5001477071033333	-0.48694154156666725
O	2.183860229426667	2.2167285471033336	-1.7516778375666673
O	0.7353670494266666	1.0664040251033335	-0.5746837525666673
O	0.9261837394266668	1.7211415171033333	-1.7030890275666672
O	0.12808903842666675	-0.2504843838966665	-0.14568825948666725
O	-0.4020648945733333	-0.39755374289666656	1.1701200624333328
O	-0.7423471225733334	-1.6157018328966668	1.7320733224333327
O	-1.6333305305733332	-1.5783915228966667	2.951095392433333
O	-1.9033831705733333	-0.14729823189666658	3.319933732433333
O	-0.6798749785733333	-2.6947132028966667	0.8757296424333327
O	-1.3893165995733332	-3.8630443828966663	1.0277778324333326
O	-0.0884661915733333	-2.6003337028966667	-0.39211647356666723
O	0.3788327794266667	-1.4132833228966666	-0.8881914535666673
O	0.8536079894266666	-1.2239811028966665	-2.1664638375666674
O	3.1387744094266665	-8.471272112896667	4.867835692433333
O	0.9802086594266668	-7.259868572896666	2.0039397024333327
O	3.6362694994266667	-8.358121562896667	-0.5162547875666672
O	6.180690089426667	-6.473611272896666	1.4865554624333328
O	4.018025009426667	-3.3594822528966666	1.3990000324333327
O	3.552283539426667	-3.728892082896667	-2.290167387566667
O	7.305503099426667	-4.074729782896666	-2.7770229575666674
O	7.882163899426667	-0.9661290228966665	-0.7936158955666672
O	5.249222569426667	0.8462128401033335	-3.054720477566667
O	6.963144079426667	-0.3702236328966665	-6.0988459975666665
O	10.279042069426668	0.9170345081033335	-4.728860997566667
O	8.628923219426667	4.317539967103333	-4.163047787566667
O	7.391481749426667	4.867083867103334	-7.655161247566667
O	10.530666769426666	3.382477457103333	-9.164759077566668
O	12.733347869426668	5.808458897103334	-7.131025717566667
O	-7.6497238305733335	-13.410189892896668	-2.8232623875666674
O	-6.539003680573333	-10.240879292896667	-4.565627897566667
O	-3.0103705505733336	-8.852221722896667	-4.372252047566667
O	-2.300848090573333	-6.205065212896666	-6.937020467566667
O	0.7603703394266668	-4.096049452896666	-7.404583007566668
O	1.7270641294266669	-1.2988787028966664	-9.767749127566669
O	3.464283219426667	0.6839727979033334	-7.159221797566667
O	3.0838828794266666	4.327190037103334	-6.321017497566666
O	-0.47415033917333327	4.041544407103333	-5.038353837566667
O	-1.9920905205733332	6.368715247103334	-2.469445677566667
O	-3.783347960573333	9.712600047103333	-2.686809307566667
O	-7.093950870573333	9.818140097103333	-0.8037072755666672
O	-5.421216640573333	11.601354007103334	2.105811262433333
O	-2.6877361405733335	9.056806287103333	2.3599374424333326
O	-5.061715130573333	6.130977097103334	2.018052482433333
O	-7.123722500573333	7.406774967103334	4.956019972433333
O	-4.030028270573333	8.217514857103334	6.941555292433332
O	-2.186187560573333	5.037007847103334	6.289844902433332
O	-4.951168050573333	2.630970427103333	6.963092892433332
O	0.4352605294266667	7.038451317103334	10.937571982433333
O	4.136004509426667	6.245223147103334	10.856746082433332
O	3.8982483694266667	2.9255016471033333	12.690556482433331
O	5.022040029426667	1.5158455981033336	15.997254982433333
O	5.379776899426667	-6.132242952896666	10.214583882433333
O	8.414251699426666	-4.953802552896666	12.123798882433332
O	6.095049819426667	-2.5104132528966665	13.862925182433333
O	4.884825459426667	-1.0645557628966666	10.566357282433332
O	1.3690131094266667	-2.3458319128966667	10.775591582433332
O	1.6629183594266668	-5.502783492896667	8.718449302433333
O	-1.3749413095733334	-4.6283813828966665	6.673179732433333
O	-3.7165063605733337	-5.496867182896666	9.489038522433333
O	-10.692692330573333	-6.076645552896666	3.1197590324333326
O	-8.218596130573333	-1.5565960428966665	-0.9224962975666673
O	-8.471061180573333	0.09956685410333344	-4.315886307566668
O	-5.626998990573333	2.5303800371033334	-5.060231527566668
O	-4.630238810573333	5.036425557103334	-7.7925534075666665
O	-1.7646164805733333	7.509668567103334	-7.291713487566668
O	-11.264610730573333	1.9004167071033335	1.0256033324333327
O	-3.3333481605733333	2.9375456171033334	-14.201529717566668
O	-1.4280476125733332	3.2023142171033334	-10.944947417566668
O	-0.9114282565733333	1.0821679081033335	-7.901867367566668
O	-2.7208071005733334	-0.6117997928966666	-5.103478797566668
O	-5.063267930573333	-3.6310061428966667	-5.142776737566667
O	-6.016104690573333	-5.402395242896667	-1.9116697875666673
O	-9.264209670573333	-10.116946992896667	0.8686221124333326
