86

O	7.217204664770833	5.913215222008333	1.5188205292083334
O	8.110199654770833	4.724710662008333	-0.1058447417916667
O	7.830093644770833	3.844763137008333	1.9631834092083333
O	3.8756327647708333	2.363893998008333	4.130814559208333
O	2.3502477047708332	5.811302172008332	-0.2401447127916666
O	3.0819758947708333	1.5121817620083329	4.849980469208333
O	2.9317894247708334	-0.9112442179916669	4.020469359208333
O	4.501582184770833	2.869547397008333	-0.05610752579166667
O	5.7575360147708325	2.932480354008333	0.39640969920833335
O	2.022780574770833	3.814488933008333	-1.2369029027916667
O	3.2633589347708334	2.666139005008333	2.9731260992083333
O	3.204433394770833	1.175881522008333	2.8037148092083335
O	2.9779549247708332	0.4849714720083331	3.963249219208333
O	2.2837515747708332	3.034883322008333	1.9843467292083337
O	2.432137054770833	2.2225677160083332	0.8110285092083332
O	3.6684612247708333	1.7747052820083329	0.4790587392083333
O	3.8857416947708336	1.084357422008333	1.5881806292083334
O	5.980860804770833	4.195674922008333	0.6584513192083333
O	5.185149254770833	4.969991022008333	-0.20841872279166662
O	4.087462424770833	4.160568364008333	-0.25262697379166665
O	7.316483034770833	4.681065642008333	1.0088987592083334
O	2.6907579747708334	4.618233752008333	-0.32793377179166666
O	0.6517275887708331	4.033532394008333	-1.4871648727916666
O	0.5196725897708332	4.913838492008333	-2.5914583607916666
O	-0.43049866022916683	5.921512482008334	-2.7210337807916667
O	-1.5997677552291667	5.738295882008333	-2.0514717507916664
O	-1.3310647652291667	5.320092752008334	-0.7880024017916667
O	-0.13568018342916682	4.501430932008333	-0.48015548579166667
O	-2.8238617452291668	6.3261299320083335	-2.5807696007916667
O	-4.066025735229167	6.211732832008333	-2.1755457007916665
O	-4.843979035229167	7.005336622008333	-3.0242044107916666
O	-3.9670848452291665	7.964666612008333	-3.4140268907916664
O	-2.7706413252291666	7.316302622008333	-3.4310297407916663
O	1.105399854770833	4.485379692008333	-3.7068371407916665
O	-1.7733696252291669	7.6422854020083335	-4.508014090791667
O	-1.9523262152291667	8.969826402008334	-5.033459290791667
O	-3.3259765152291667	9.398319352008333	-5.099204520791667
O	-1.4691288352291667	8.924381282008333	-6.414413460791667
O	-0.7719884032291668	-6.407713677991666	-6.194106280791667
O	-2.390587295229167	-5.147092427991666	-9.402442740791667
O	-0.5815464652291669	-1.829086547991667	-8.973217460791666
O	2.7564920447708334	-3.6404608779916674	-9.332501930791667
O	2.0221874047708335	-4.459370717991668	-12.964021280791666
O	2.4974330147708335	-0.734545687991667	-13.651510980791667
O	-8.440586835229167	-2.010225657991667	-10.205623570791666
O	-7.801485425229167	1.751754612008333	-10.414812390791665
O	-4.773909595229167	3.733881047008333	-9.306008260791666
O	-7.100404905229167	6.540834282008333	-8.332090430791666
O	-8.432648205229167	4.614171602008333	-5.344943000791667
O	-6.114562615229167	1.582575842008333	-5.192916070791667
O	-9.283027755229167	-0.43674708799166684	-4.842140810791667
O	-5.415680925229167	-4.057320387991666	-5.781377300791667
O	4.065169164770833	-9.520573997991667	6.385906159208333
O	7.345074464770833	-9.961774197991666	4.508673529208333
O	12.654953234770833	-0.479241067991667	2.0591861192083334
O	10.928190734770833	5.174468152008333	4.961813409208333
O	13.856707334770833	7.157110662008333	3.533902069208333
O	16.135227434770833	4.297041292008333	2.5621999492083334
O	-8.146984195229166	2.5807475450083333	10.735654319208335
O	-6.772644745229167	7.300189912008333	6.705871299208333
O	-6.692304685229167	10.338306732008332	4.402248759208333
O	-8.007783685229168	7.990269552008334	1.7546688892083333
O	-11.090804365229166	5.775726372008333	1.6692030292083335
O	-10.520193965229167	2.282284698008333	2.9905749092083336
O	-5.455379015229167	-2.3139168679916673	8.123916379208334
O	-2.644318755229167	-4.020287107991667	10.024079519208334
O	5.807849564770833	-2.7353525079916667	5.372315429208333
O	7.070216104770833	-0.017265287991667044	2.8043943792083335
O	7.758239384770833	0.5497968820083328	-0.6749544047916667
O	8.903571964770833	-2.487843877991667	-2.4602049307916665
O	6.988114944770833	-4.874371417991666	-0.23505550379166662
O	3.833201414770833	-4.208914827991666	-2.2498967507916667
O	2.2105414147708333	-7.3116956979916665	-3.6821114307916667
O	4.033746124770833	-9.351953097991666	-1.0568533917916667
O	0.7436100587708332	-5.621956517991666	0.7676196092083333
O	-1.0779758102291668	-2.7460069179916666	-0.9494647547916666
O	-0.27874040622916685	0.624722482008333	0.3390949592083333
O	0.10043721077083317	3.229619913608333	3.2920747192083337
O	0.8743292447708332	6.9075668420083325	3.9942280492083335
O	4.617474124770832	6.805298002008334	4.478353949208333
O	6.145194134770833	3.975580490008333	6.708472059208333
O	-1.0794335582291668	5.502464932008333	10.305863919208335
O	-1.436453165229167	1.767027222008333	9.452103519208334
O	-0.31764466722916684	-0.509081657991667	6.559664429208333
O	-3.1658305052291666	-1.038913497991667	4.102744209208333
O	-3.5550405752291665	-4.559727447991667	2.6514261092083333
