38

O	3.3638543172486415	27.724036060125016	52.7173504172449
O	3.6625413960677253	25.783549984383995	53.71475715619403
O	4.815174611340925	26.319099270506353	51.839052449582404
O	8.456975650047426	29.306386339957793	51.253595175387446
O	5.8371152830555975	30.613774833441184	56.227906649500085
O	9.686744459328047	29.71585416621753	50.81483631070766
O	11.678482168773442	28.192738710224276	51.35957325861108
O	7.154846611430627	27.487796568658467	54.88333425591316
O	6.4859046224486345	26.76138298397127	53.982783125521976
O	7.54704963863715	29.38898973254557	57.042799696613756
O	8.383917284349316	29.476975270619747	52.584773506608926
O	9.63502792643418	28.647734109312783	52.59577476733349
O	10.483110787003772	28.892533554672454	51.54983120494674
O	8.47494158180207	30.023009855120275	53.914002005937064
O	8.919311188931108	29.016667326197993	54.835067099484874
O	8.584453024743146	27.723508177873995	54.600777602726964
O	9.1868979789273	27.618239866430365	53.42607721662375
O	5.347589681177124	27.381030051606583	53.79710357598981
O	5.017720121636178	28.057050189614387	54.98805647595515
O	6.2764998151407205	28.41961982603119	55.37022493025889
O	4.270613585998818	26.784466506295	53.00556158256519
O	6.636483083312353	29.679483718569156	56.0403495908733
O	8.069277405742794	30.432512281838058	57.835728590170184
O	7.26338964948376	30.579039063374406	58.99370798686965
O	6.9180290736319145	31.782943775251262	59.59898608930295
O	7.786435383942789	32.81531625653572	59.42825416155006
O	8.154586976251583	32.87909428188592	58.12293936457496
O	8.233813265062823	31.664028368903875	57.27957750873139
O	7.886146746659557	33.84073024700015	60.45912513941933
O	8.702055136697773	34.86207395400935	60.56596621246847
O	8.34893675481812	35.54237801151966	61.73546769440674
O	7.027575578195818	35.257061750262416	61.85301890903265
O	6.92213525406817	34.00731815444432	61.32465791525438
O	7.1603569424435385	29.47714716835732	59.732586669815454
O	5.974317617356646	33.02228927829416	61.95081344490438
O	4.896335747847626	33.6708645859934	62.649231933520724
O	5.269467412454447	34.90145132752246	63.298287264442656
O	4.494841965072281	32.74977579670798	63.71364612510994
