98

O	1.542071152956522	-1.977303161101449	-1.6640956661478263
O	0.38129582295652187	-2.7168777211014494	-1.2976866741478263
O	-0.727419812043478	-2.286351251101449	-0.4607273485478263
O	-1.6119131890434781	-2.9527180711014496	0.39152474385217373
O	0.10529573295652195	-1.4143604411014494	0.32232158485217366
O	1.4706429629565219	-1.0008527211014493	0.1048573248521737
O	1.479215312956522	-0.6147819811014492	-1.2911907981478263
O	2.850003902956522	0.41753466889855073	-1.3887587991478263
O	3.043886062956522	1.1646864798985508	-2.6085266261478264
O	3.965241212956522	-0.5420791911014493	-1.4876412241478263
O	3.149130472956522	1.3876128878985508	0.010652205852173635
O	2.224782072956522	2.2242225888985505	0.3557159378521737
O	2.159342622956522	3.3525360688985506	-0.4391403401478263
O	2.848220672956522	2.8254759588985507	1.563509373852174
O	0.8896245429565218	1.6842238468985506	0.4644040038521736
O	0.32333617295652195	2.1284858888985507	1.489862693852174
O	0.09478474295652195	1.6525426088985506	-0.6577868081478263
O	-1.309243725043478	1.4609351048985508	-0.44477978914782634
O	-1.776412758043478	1.2872046288985508	0.8755923838521736
O	-1.803253640043478	0.6607211388985508	-1.4244785001478264
O	-3.1173869270434778	0.2130321488985507	-1.1311334811478262
O	-3.824439047043478	0.7469293178985508	-0.01900690314782627
O	-5.266702807043479	0.7267382298985507	0.05918201085217367
O	-6.330435037043478	0.5366980918985508	-0.39499861414782633
O	-2.997599447043478	0.7475209458985508	1.0991576538521737
O	-3.488839147043478	0.19301249589855074	2.328794103852174
O	-4.825649727043478	0.21607205889855075	2.300297763852174
O	-3.117204777043478	0.7789010038985507	3.5064115738521737
O	-3.158952977043478	-1.1159120411014491	2.4839291138521737
O	-6.523341497043479	6.881107128898551	-6.166519456147826
O	-6.389879887043478	9.38460581889855	-9.016546556147826
O	1.983708092956522	10.70704172889855	-2.063319016147826
O	3.4963065829565223	7.2860671388985505	-2.3239388861478263
O	3.2001438729565224	7.0721040488985505	-6.100852006147826
O	-0.5373747380434781	7.70311067889855	-5.533318896147827
O	-0.711258316043478	5.16794916889855	-2.657106076147826
O	0.925899082956522	2.6620943788985505	-5.048636526147826
O	-1.507263549043478	3.2908757388985506	-7.698601816147826
O	-4.404843597043478	2.988470948898551	-5.254438236147826
O	-3.129066067043478	-0.39754119110144925	-4.297881226147826
O	-3.0535385370434778	-1.4730500811014493	-7.7692492961478266
O	-6.686686547043478	-0.34155298110144927	-8.043666506147826
O	-7.8970801570434785	-1.8930759511014492	-4.736787996147826
O	-6.316667827043478	-5.227642341101449	-5.632854426147826
O	-8.488675827043478	-5.48202307110145	-8.693287336147828
O	-10.261448917043477	-7.44353843110145	-3.7476684461478262
O	-9.693950207043477	-10.24207095110145	-6.258027176147826
O	-3.630829957043478	-10.851267251101449	3.006992843852174
O	-4.112081927043478	-7.838070981101449	0.7271956538521737
O	-2.334055297043478	-5.6440078011014485	3.2861664838521736
O	-4.386033077043479	-6.34316248110145	6.2316708038521735
O	-7.618899497043478	-6.400959681101449	4.160101873852174
O	-6.999982577043478	-2.989933261101449	2.845855003852174
O	-5.928369757043479	-1.5927537311014492	6.292772303852174
O	-9.092078477043477	-2.945534511101449	7.9699938338521745
O	-11.392942407043478	-1.6046443811014495	5.242202393852174
O	-9.595232977043478	1.7426824208985507	5.367472863852174
O	-14.046355607043477	4.031656958898551	5.970350503852174
O	-7.047674887043478	8.66515601889855	7.338341033852174
O	-9.518891067043478	8.11864002889855	4.4715876938521735
O	-7.489769227043478	6.06375440889855	1.9782625138521737
O	-9.710392997043478	7.1701322288985505	-0.8603183911478263
O	-6.498438377043478	10.80306818889855	-1.0041259521478263
O	4.623272022956521	10.25282120889855	3.6030258238521737
O	7.242127992956521	9.20466698889855	6.164951763852174
O	4.632050302956522	6.7289711988985506	7.4637444738521745
O	3.586797472956522	8.81346296889855	10.441566193852173
O	3.9930844029565224	6.11215113889855	13.105293693852174
O	2.093055792956522	3.5888866288985506	11.029370593852173
O	-0.6584230590434781	6.13138475889855	10.354868693852174
O	-13.006889907043478	-8.65316194110145	6.991003763852174
O	0.20229092295652185	-2.956346901101449	11.500393893852173
O	0.20402216295652187	-4.859246091101449	8.217239553852172
O	3.6898776029565217	-6.128655141101449	9.016176833852173
O	5.096415272956522	-2.6109680711014494	9.466976993852173
O	3.6231786729565223	-1.5581994911014494	6.227329803852173
O	5.0882475329565215	-4.674591841101449	4.560996443852174
O	8.586110952956522	-3.763004981101449	5.8270221038521735
O	8.270704822956523	-0.10728027110144933	4.821704143852174
O	7.049236092956521	-1.0574605611014491	1.4055253838521735
O	9.781060892956523	-3.5320736011014495	0.7188242538521737
O	10.819245292956522	1.6170397638985508	-0.5173891809478263
O	10.664609992956523	-0.5885903811014492	-3.628160166147826
O	12.382774592956522	3.582143248898551	-5.434250256147826
O	13.409075192956523	8.66318569889855	-4.334286836147826
O	8.569449582956523	6.763220188898551	-6.387332836147826
O	6.692239582956522	4.768780208898551	-8.999147606147828
O	5.320426772956521	1.2664093078985508	-8.456361926147826
O	2.7112143529565222	-0.23361787110144916	-10.804770206147827
O	1.427066222956522	-5.95190786110145	-10.165726736147827
O	2.379891172956522	-4.17211709110145	-6.930217916147826
O	6.083911372956521	-4.451714861101449	-7.828814016147827
O	5.627925642956521	-8.16706245110145	-8.412603436147826
O	3.7960281329565224	-8.698871611101449	-5.112472616147826
O	6.291622992956522	-6.67707983110145	-3.0842586061478263
O	9.284662092956523	-8.63378911110145	-4.548791646147826
O	6.1366009129565215	-9.86484965110145	0.6343087838521736
O	9.704082292956523	-11.18022165110145	1.1124392138521735
