17

O	36.79333666915161	43.52420129365426	-5.636714036886622
O	37.455506876093146	42.86843901853153	-4.049325013046026
O	36.197085335442594	42.994628176776715	-3.302644100157908
O	36.39702866533664	43.59665895192776	-1.989513552635132
O	36.927142966063016	42.65840658640305	-0.9825002671649562
O	38.20586351293071	42.933530339464006	-0.5975328501646306
O	36.10868952461439	42.43663744596823	0.08878447050294769
O	38.58546726015299	43.298087214648966	0.6950263340821248
O	36.42450236168362	42.900310246116696	1.3651935910685855
O	37.7256973925564	42.984541848528316	1.6973792764002889
O	35.82280717306757	40.87554832877902	-3.8637789278295678
O	36.98693411007306	40.461765691177796	-3.834050567005735
O	35.49916923651031	41.80270264958226	-2.885771984911149
O	34.8179632637061	40.43845717686377	-4.795638341138439
O	35.40040543004676	39.45860802506755	-5.7038991398695
O	35.700694983285594	40.10447989412517	-6.924630494850585
O	36.342668826986156	38.78409701038628	-5.243030162498194
