25

O	14.636412383176843	0.2854824224914625	9.631713796930287
O	18.677169398417078	-1.5758535705726722	9.052710105553642
O	20.13062193757385	-1.846767015009043	9.040781379537744
O	20.74262829039932	-2.2092756710605714	7.880939318996029
O	21.93501267831069	-2.9303682450143693	7.847710583574498
O	22.4280719184306	-3.5427738217857465	8.952702182823991
O	22.08221217771437	-2.8935862110392936	10.095652577365314
O	20.864891598584936	-2.2234921872885707	10.125494327309168
O	19.086542194416218	-4.314662210529432	9.794862965466669
O	19.906419772686892	-5.333907540734846	10.27407711023134
O	20.04729860657732	-5.511263019573871	11.604960699202389
O	19.622578188343635	-4.456092123883848	12.338997733255662
O	15.738873164604847	0.3630630178471468	8.849612031638463
O	16.817208555632906	-0.42577936207328904	9.084176793636225
O	18.05212660071892	-0.5033708869391158	8.626975401786481
O	16.67558921608779	-1.5071898470477496	9.942489594912766
O	15.216530867247585	-2.994359838743903	11.025714301532808
O	15.433290732248688	-1.677727740934279	10.48162776719384
O	14.379735108768642	-0.9491484175168045	10.132114171329823
O	18.42879191517073	-3.896841931180095	11.84841480223549
O	17.881785847633907	-2.2175237092588156	10.018198369860398
O	18.180399536149494	-3.5641768913003746	10.548846105894306
O	14.10510589575077	-3.8278405689834063	13.068470925276362
O	15.25558713807124	-3.100990309282267	12.4345743327799
O	14.66756777904557	-4.762636024320288	13.953249144118434
