28

O	17.276826449061712	34.91887672490916	7.559846497861631
O	16.910166195701354	34.67517974631719	6.232617427042589
O	17.580994658778714	34.94497542980037	5.103866383325344
O	17.872143748315757	36.13072661161272	5.0439067713439965
O	18.09323245403572	33.92239622043242	4.200254144874556
O	17.239425506714767	32.80132576159263	4.3221018134421065
O	16.435398731849457	32.52616733394406	5.434572599103965
O	17.44493993432199	31.757808507386013	3.479404562612538
O	18.48647386631183	31.89072067704877	2.5532076019665055
O	18.2874141681703	31.23809132755573	1.3595326847573599
O	19.497049117374573	32.87765318545837	2.675374983748929
O	20.767491657503573	33.113538508895225	1.526212074049289
O	19.355731001952133	33.935762884567744	3.585128485671347
O	20.4242556259936	34.83057942416857	4.151275247486523
O	20.453390320381757	35.65212826027056	5.365921485118163
O	21.886497733676013	35.90125383695783	5.983801504742555
O	23.039913863655407	35.98614586960893	5.76333850143898
O	22.112170951965023	34.962717388743975	6.980131482538901
O	21.250588365121494	33.97717609247819	7.364004985394745
O	20.598202316511703	34.39374791779002	8.62188047774163
O	20.174305662713564	35.72401035791298	8.87206841449051
O	19.243918190343578	35.83156051132225	9.833590498964588
O	19.854765334595257	36.260004359699245	7.610453728982457
O	20.086779995099096	37.57074510980015	7.433485264172736
O	21.319056126118035	38.25930467041461	7.318182972113243
O	19.367334594203655	34.97114879780265	7.124701753148596
O	20.119856677940835	33.81428079431207	6.689939219967017
O	19.57274705930142	32.78512864110638	5.963771887691788
