40

O	14.847536976196132	4.971363956157345	15.348360168651896
O	13.997311710616348	5.483076714884207	14.363857554833336
O	14.236979298328707	5.637439614595298	12.988953585751888
O	15.206403034236555	4.813051742845677	12.551477934751812
O	16.113918065378588	4.476837781207914	13.570417042692261
O	15.85948986632318	4.247936907802122	14.924145748908943
O	13.191861095055952	5.694308682099505	12.040064967893516
O	13.645545941714085	4.691253356043525	11.185459744130013
O	14.471471724722448	3.860721960863533	11.87635565187923
O	11.795956571069826	5.253015651179584	12.582375193884285
O	12.747697209746448	4.110305420230326	10.133531319427997
O	15.342592857807952	2.9459971905210067	11.413484359853365
O	17.122752834301536	4.261187657255369	15.434621824013874
O	17.661008751214265	3.6104820724710134	16.441093058358955
O	17.098289207462802	3.9727739151132244	17.63728905047509
O	17.484144712392023	2.271257739036674	16.580785319753694
O	19.005144772697196	3.779296473554825	16.295600896839993
O	16.168692500185806	3.8566251899649755	10.445058557561543
O	15.425041300090774	4.906310754553929	9.98511283602236
O	15.766648813675959	6.2207429116280935	9.990554733852942
O	16.719041925889144	6.501484335701244	10.909406534230545
O	17.812300138030107	5.586756405819525	10.9068694791156
O	17.312030349587822	4.281763199476979	11.0359340443819
O	18.23558816514595	3.142200715255341	11.871983708818918
O	15.416776838663187	6.580162429707363	8.670446838103832
O	15.14771703760674	7.8874490910248145	8.433115825544249
O	15.539152743908021	8.455527775359316	7.073290169113322
O	13.774167686855268	8.009298290559242	8.89102800872319
O	13.386803501423476	9.166698084343652	8.973966086752005
O	12.880855934109809	7.013481171112192	9.184102820633774
O	11.245348759085541	6.173272557995407	13.160105841498513
O	10.4213151445357	5.606234068577388	14.0735366614354
O	10.826268102784633	4.39956234036625	14.440033599522177
O	11.60032129298224	4.132941857949191	13.367836636013953
O	11.228281811288014	3.6523488294682993	15.543721645219645
O	12.306179722299875	2.812919218055434	15.612571472001214
O	12.954962861374321	2.589837014919481	14.39742373024491
O	12.286875844312998	2.9254124002168718	13.26969641457808
O	12.981131769746792	2.847157144810771	16.844516429933766
O	14.24515483878501	2.312555284357436	17.103491699572107
