37

O	45.24582981699013	13.497451398206755	2.7967821133246424
O	46.46979674757655	14.502118800127374	2.070491761510838
O	47.46857103512498	13.557323217461558	1.858695079060154
O	47.15040038023129	12.24857804414288	2.0405158743782446
O	46.00799949189107	11.948157652398312	2.712107477142599
O	45.994258088014746	15.848685620369988	1.7017818417123252
O	44.71315003669235	15.965663222981966	1.6693836864651592
O	46.20280401989456	16.8867175796562	2.66073693802422
O	45.61679992085959	10.54422872386202	2.41585969478869
O	46.75127639735936	9.677221043980602	2.5752000986443058
O	47.33584688029814	8.985780134457706	1.5043081131079834
O	46.451423772739616	8.534860062550724	0.619057743856188
O	45.27253800104231	9.25275084466319	0.45793899686925066
O	44.95999128081648	10.413562361340274	1.180544148729843
O	47.06853301315365	11.602788642563995	0.18965563930252838
O	48.75427960936094	13.6033876459451	1.3538197038780222
O	49.54127976608645	12.243738487908345	1.2052454520081062
O	49.68209638266246	12.105706518535	-0.315443341825576
O	50.16703462503216	11.061437296915871	-0.7278390444038987
O	49.6250546322536	13.147388686800223	-1.2553837836298012
O	48.69501990695373	9.423334737494315	1.345449683977356
O	49.41050628391445	9.206245433465181	2.655522846945214
O	49.14604979305605	7.726435455882356	2.943774710749129
O	49.23895823735306	7.000972162820069	1.6446362491560764
O	49.89308592892166	7.812912309696587	0.692330262968591
O	51.08024083561451	8.478111153185498	1.1097232800021457
O	50.85129733125357	9.34050895458299	2.3637635659700162
O	49.38712402750701	7.8325411832577725	-0.9333352717847543
O	48.9875589864483	6.358316371545129	-0.9970386090691896
O	50.73814193211029	8.13886696897941	-1.54542735089019
O	48.30253350931765	8.673531615461876	-1.808972200419193
O	47.51399335348142	9.733456099637294	-2.2931071066472484
O	47.87826946668697	10.951813458918096	-2.901146962077922
O	47.06356455259095	12.110066321945139	-2.6519557999751857
O	45.73685384082231	11.892430428751718	-2.897620397231764
O	45.278226529520815	10.744321478656905	-2.3258911016539443
O	46.137543482838076	9.626801969316567	-2.5846133200568815
