70

O	-1.2196662927948716	3.970034559589743	2.5338792029487185
O	-0.9522903457948715	4.827313419589743	4.034878061948719
O	-2.2393844847948716	5.309975609589743	4.109767301948718
O	-2.9045592517948715	5.4061412395897435	2.9241277659487186
O	-2.7198284447948717	4.5628447395897425	1.8643150589487187
O	-0.02622992579487171	4.756749279589743	5.175775591948719
O	0.5128264142051284	3.532575467589743	5.603598441948719
O	0.6254058442051282	5.7497032995897435	5.558584901948718
O	-4.022410335794872	3.790751149589743	1.5784895719487186
O	-4.2928051757948715	2.665873077889743	2.3713216739487186
O	-5.1712334057948715	2.638623952389743	3.492648381948719
O	-6.153553445794872	3.620890264589743	3.2583220119487186
O	-6.419290685794872	4.061413639589743	1.9368923299487186
O	-5.201161115794871	4.472112049589743	1.3133174999487185
O	-4.209232515794872	6.862294569589743	2.7231167149487185
O	-2.8785459767948716	5.2422768995897435	5.379172731948719
O	-4.174070245794871	5.905380459589743	5.347381001948719
O	-4.947748105794871	5.480185429589743	6.538092991948719
O	-6.149862475794871	4.8163806395897435	6.278584851948718
O	-4.261886205794871	5.262886899589743	7.577540271948719
O	-4.399735515794871	2.689241456289743	4.764578291948719
O	-3.3315566057948716	1.640713309589743	4.721358921948719
O	-4.164566125794872	0.4099867395897432	5.107804621948718
O	-4.991556335794872	0.7742469395897431	6.339749851948719
O	-4.498261935794872	2.1086970865897428	6.948003901948718
O	-3.021193803794872	1.576676359589743	7.016732271948719
O	-2.3749389427948717	2.109158616589743	5.811541631948719
O	-6.384631755794871	0.6760436395897429	6.025849921948719
O	-4.829102245794871	-0.22811610041025698	7.492501831948719
O	-2.6831429637948716	0.07118264958974319	6.837017021948718
O	-2.7783303577948715	1.602206099589743	8.417022991948718
O	-4.061400015794872	9.503688499589742	-5.522116558051282
O	-5.655590295794871	9.846909899589743	-10.887239728051282
O	-5.118120355794872	6.351732179589742	-9.446275728051281
O	-7.296368555794871	3.5488023185897433	-10.752208028051282
O	-6.915079375794871	-4.623500380410257	6.712575451948718
O	-10.54350932579487	-3.832160360410257	5.959193051948718
O	-9.882238915794872	-1.3562959104102568	3.1473149499487185
O	-6.589821485794872	-2.598166220410257	1.7682846919487187
O	-7.6591546957948715	-5.251043490410257	-0.7731258680512814
O	-6.491355405794872	-6.786652760410257	-4.0781185580512815
O	-8.533757345794871	-5.851703880410256	-7.153100948051282
O	-2.0946451077948716	-10.545232580410257	-2.8162043380512816
O	0.8118546742051285	-9.126387380410257	-0.48903090805128135
O	-0.0036180857948715506	-8.332106780410257	3.1405023439487185
O	1.0282619242051285	-3.617193020410257	17.412599271948718
O	1.9853725142051286	-6.187351450410257	11.841052441948719
O	5.000514454205128	5.095128799589743	6.977457231948719
O	5.274556164205128	-7.616869280410257	1.5993860939487186
O	5.306512004205128	-5.268846570410257	4.5117045719487185
O	2.1855832642051287	-4.966796950410257	6.717485191948718
O	-0.5222433757948715	-3.8552237004102574	4.305918151948719
O	1.5231241342051285	-4.653240960410257	1.2037310519487185
O	1.2140292242051283	-1.210846900410257	-0.43531010805128156
O	3.1943654242051287	1.553542819589743	1.2775300629487187
O	6.604443974205129	0.27401706958974303	1.8882617869487186
O	6.17312655420513	-2.556346180410257	-0.6536762080512815
O	4.990287694205129	-0.08572110041025693	-3.2825096280512818
O	8.107928414205128	2.020988738589743	-2.711371548051281
O	-2.9462193347948715	-2.9481360204102574	-6.5357571580512825
O	-4.403038365794872	0.035593089589743165	-4.822999898051281
O	-2.5441489087948717	2.488965506589743	-2.692331308051281
O	1.0113205042051283	1.885430740589743	-3.9525578580512817
O	3.2782368242051283	4.150496369589743	-1.9230939180512814
O	1.7972108842051284	5.709753309589743	0.9564434219487186
O	3.289373524205128	9.038665339589743	1.6735028049487186
O	4.740635224205128	11.906820959589744	-0.3229849880512812
O	8.13148851420513	11.292793609589744	1.2742578049487188
O	8.112772914205129	7.632989439589743	0.2145085619487186
O	7.499310144205129	8.933503189589743	-3.3316956580512813
