24

O	-5.7398048971974625	6.0740414089085135	21.48420345025646
O	-6.634725458838183	7.151349822011385	21.386876821271187
O	-7.6438329297885925	7.095114922797542	22.344139424131928
O	-7.841528972865266	6.067686016724773	23.18150038185378
O	-8.943485474122618	5.321054380776606	23.4755233536912
O	-8.720164888439857	4.588859566444109	24.597435293889607
O	-8.00089030237073	5.2854950064225745	25.648300147747605
O	-8.529605199127154	6.72137463793109	25.70874643578721
O	-7.382742454399465	7.59078088350988	26.182928775416183
O	-6.23904596122528	6.818246312976502	25.71484998119133
O	-6.657015515900293	5.512993593499844	25.12396394582099
O	-6.654417422974665	5.57771962524051	23.71298535752919
O	-5.63727961171405	5.696363513206536	22.82304907526662
O	-7.847283688576292	3.6486309871606495	23.954624731968845
O	-7.703320995272218	2.578804759696691	24.76915754691359
O	-8.023791974390946	1.26875724755274	24.360264848085468
O	-8.567386901002187	1.2102769370870101	23.11138798489598
O	-9.63589787103899	0.4870091020973719	22.69305026385607
O	-7.8825760229129065	1.9609548898603202	22.155697060182337
O	-7.758133669207087	3.2823365560772952	22.585926745089196
O	-8.604471679967777	8.110586219972868	22.52477646476244
O	-8.018285272143839	8.934786011225526	23.46461539268089
O	-6.655233901513843	8.782626419023776	23.077473829621937
O	-5.564411674404212	5.1718171954450245	20.414137677230457
