29

O	22.929621312136117	9.751465231845891	15.598310940869847
O	22.51704049982485	9.770291432289092	14.269479319385757
O	21.463483118519626	10.669864027626051	14.024346580289816
O	20.619414791548778	10.975448366035891	15.045681965992223
O	21.10960477643947	10.981127166449822	16.32088224428443
O	22.496677486575084	10.815327249605984	16.399103100213793
O	23.04490522120956	10.96590336007969	17.670061787169978
O	24.387484740324137	10.677417620839753	17.67979447260442
O	24.837447917806774	9.581677021425419	17.012776000738363
O	24.170191022577857	9.276480240962918	15.856745296749908
O	24.580280101235413	7.9695958825575826	15.370571386996255
O	23.921404034110633	6.9850684369172225	16.339678491293096
O	22.972844413512004	7.61340797707032	17.253185244370595
O	21.665466311246657	7.971538399255106	17.414280638371388
O	23.4810203360068	7.687875074305257	18.444674430145998
O	23.54757170775729	5.960721456858969	15.348901212271686
O	22.23631505549172	6.025282770754455	14.884994747029106
O	21.368327151787987	6.9097359838623245	15.157987437857857
O	22.115214360706563	5.327097472242508	13.576876308529501
O	20.949748674603683	5.332095823718383	12.751638363526517
O	21.006058945187732	5.99288218437165	11.502281495003851
O	20.182427339676288	7.2349870424215	11.298839055868854
O	19.071733701319523	6.992684128449632	10.796738390109034
O	20.026950870692424	8.239463374037083	12.286639012981277
O	22.262896601606087	5.814996186081894	11.029958369963612
O	23.375782626303902	5.231950992753865	11.617283056550944
O	23.33186883149775	5.182573071410021	13.01531864520532
O	24.22882907193779	5.628628824235042	14.105658155770511
O	25.414473648327878	5.9225383154858795	13.863717057717682
