120

O	3.3802794176136985	2.186050400890411	-3.5114998121999994
O	2.9534780176136985	3.024280090890411	-2.5063080721999995
O	2.7199372376136988	4.286791960890411	-3.0765745721999993
O	3.0353693476136985	4.54585423089041	-4.368881282199999
O	4.091582107613698	3.846831330890411	-4.956727842199999
O	3.9870924576136986	2.523636740890411	-4.684858492199999
O	5.035513547613698	1.466585000890411	-4.986407282199999
O	5.943213847613698	1.473316850890411	-3.8106668721999997
O	4.244857697613699	0.294087529890411	-4.861111042199999
O	4.533897727613699	-0.7086686341095889	-3.9919718422
O	5.616160007613699	-1.294526279109589	-3.9427781921999996
O	3.5262781876136984	-1.691290009109589	-3.8656495622
O	3.3539253676136984	-2.443429689109589	-4.979604032199999
O	2.4915579376136985	-3.442299969109589	-4.876518112199999
O	1.8215133476136987	-3.624323969109589	-3.7380077222
O	2.1590249876136984	-2.868740289109589	-2.6420328621999998
O	3.3606011076136983	-2.285102919109589	-2.7171587621999995
O	2.2467681276136986	-4.1588826291095895	-6.092477902199999
O	2.6539722576136984	-5.5028975891095895	-5.8310178721999995
O	2.2641446876136984	-3.271790099109589	-7.5487601822
O	1.7136028776136984	-1.8855390791095892	-7.2667976022
O	1.1594750076136986	-3.764575869109589	-8.344061632199999
O	3.8284307876136987	-3.0212242291095888	-8.2591682922
O	1.7627227176136984	-3.163006449109589	-1.2492624021999994
O	2.3107583576136985	-4.241533689109589	-0.9743167894999994
O	1.7401006976136983	-2.083070219109589	-0.2854554351999995
O	1.6196901576136984	-2.177959469109589	1.1311293878000004
O	2.5288071276136987	-1.331551339109589	1.9806094478000007
O	3.7479201876136985	-0.8352844671095889	1.1969653478000006
O	4.688934017613699	0.11307430809041098	1.5966562478000006
O	5.066721497613699	1.227125410890411	0.8010981378000006
O	4.963911527613699	1.202821730890411	-0.5367912681999994
O	4.043600997613699	0.317966289890411	-0.9490514671999994
O	3.3895468076136988	-0.480067918109589	-0.07453818119999944
O	0.12924290861369847	-1.8901981591095889	1.3014977878000005
O	-0.42194045838630156	-1.029062319109589	2.0912095978000007
O	-0.6693498693863016	-2.931475709109589	0.9352217178000004
O	-2.0069404923863017	-3.236556589109589	1.0192264278000007
O	-1.7973763623863017	-4.67821641910959	0.5615538778000004
O	-0.8334668813863015	-5.09673876910959	1.6878187178000006
O	-0.23484709478630156	-4.2711956891095895	2.684632077800001
O	-0.8249577793863015	-3.6993251291095888	3.838827277800001
O	-1.6575453923863015	-4.79961120910959	4.093979097800001
O	-1.8668317723863015	-6.072624379109589	3.431245207800001
O	-1.0397607223863017	-6.256134959109589	2.3799646778000003
O	-0.7040469833863016	-2.242707739109589	3.7821996678000005
O	-0.11550628638630153	-1.224426809109589	4.4857761078000005
O	4.493358417613699	14.516335970890411	-0.7788205521999996
O	5.559464627613699	11.82835907089041	-3.2503685521999994
O	7.687725717613699	8.88996583089041	-6.1030954722
O	7.263325447613698	5.567640680890411	-4.389173052199999
O	4.561123907613698	6.40672982089041	-1.8776866701999995
O	2.5965872576136984	9.270873290890412	-0.6041155221999994
O	3.802314467613699	10.485678770890411	2.7753895178000008
O	5.501532417613698	8.57772921089041	7.080033917800001
O	3.795426437613698	6.789036970890411	4.287082787800001
O	0.01436915161369845	6.9580008908904105	4.302216587800001
O	-1.2360317473863014	3.338199480890411	3.892567617800001
O	-5.065213412386301	2.7445504208904112	4.1240921878000005
O	-4.345736072386301	-0.626506727109589	3.1083033378000007
O	-2.8242188923863014	-1.789148079109589	6.614835327800001
O	-3.0002720023863017	-1.070941519109589	10.3414350778
O	0.45718912361369846	-0.854447127109589	11.9619527778
O	2.3090619376136985	2.346550740890411	12.6169902778
O	6.006317327613699	1.482663790890411	12.071212877799999
O	6.603675417613698	-9.15877669910959	12.3485015778
O	4.824300357613699	-7.761359139109589	9.3560618778
O	4.762671607613699	-9.285852139109588	5.8304091278
O	2.9834796776136985	-7.439281539109589	3.0224006078000007
O	2.2516498476136984	-8.357374109109589	-0.6971305541999995
O	5.411593247613698	-6.54615024910959	-1.3705978331999995
O	8.124972187613698	-6.380481299109589	1.2097615878000003
O	8.3037499476137	-7.252558889109589	4.963802017800001
O	9.871874067613698	-6.088383999109589	8.2246310278
O	13.260192767613699	-6.98190824910959	3.259092067800001
O	12.1507875676137	-5.15539707910959	0.08276803780000042
O	10.2272500676137	-2.834107809109589	2.2901311778
O	12.158200767613698	0.43317307489041096	2.314390047800001
O	12.423802567613698	2.155352190890411	-1.1086320822999995
O	11.2321005676137	7.33875195089041	-1.5764898411999995
O	7.942596247613698	4.829996990890411	8.1536692178
O	4.388230067613699	3.7317510908904112	7.550521947800001
O	1.0090874376136982	4.751907870890411	8.9397128878
O	-1.4228534323863014	1.893264470890411	8.6186591578
O	-7.064193152386301	0.5529114428904109	8.4184646578
O	-8.678351242386302	-1.283519109109589	11.3816088778
O	-5.615384272386302	-6.743594329109589	10.6252230778
O	-2.9690932123863014	-5.24270424910959	12.9113054778
O	-3.1110772023863014	11.61227207089041	-3.9796881222
O	-10.700950432386302	-4.8359774091095895	8.7950310378
O	-9.331964562386302	-3.478762719109589	5.528641297800001
O	-11.477982132386302	-0.6997593691095889	4.033460807800001
O	-10.2527032323863	-3.006265239109589	-0.6837649661999995
O	-9.245754112386301	0.649308399890411	-1.0415659844999996
O	-5.527694672386302	0.762706248890411	-0.5479175791999995
O	-3.3543569123863013	3.8447603708904112	-0.6718560081999995
O	-0.22059218468630154	1.8335221208904111	-0.05453286219999942
O	-0.31354903588630156	-0.14974700210958902	-3.3216635321999997
O	0.45844548561369847	1.335557270890411	-6.689467832199999
O	-1.7369478523863013	-0.723940134109589	-8.9487889322
O	-5.322685582386302	-1.412829439109589	-9.6667508922
O	-5.1743404923863014	-5.118525379109589	-8.8857388722
O	3.5401547476136987	-4.54916006910959	-16.2749386222
O	0.8561162076136984	-0.623853223109589	-17.3354105222
O	-0.30722312538630153	-0.45257102610958905	-13.7423729222
O	-3.2765455523863016	-2.832493609109589	-13.7976090222
O	-2.3907979823863013	-6.317845819109589	-12.6359234222
O	-3.4281210723863014	-9.768916989109588	-11.3151288222
O	-4.262089062386301	-10.596375329109588	-7.6565428421999995
O	-4.651678112386302	-13.809505729109588	-5.6408251921999994
O	-6.009805222386301	-11.950453429109588	-2.6343124721999995
O	-6.955053812386302	-3.844491949109589	-4.610948702199999
O	-8.030971752386302	-0.307877312109589	-5.496638272199999
O	-4.565141572386302	1.217783280890411	-5.236600052199999
O	-3.0188929423863016	4.471935270890411	-6.351002782199999
O	-4.141769392386301	3.856477740890411	-9.9140579722
O	-7.641016192386301	4.43909635089041	-8.5375300722
O	-6.925954432386302	6.94662914089041	-5.7485512222
O	-5.013460452386301	9.459193250890412	-7.963738352199999
O	-8.222260572386302	10.013177970890412	-9.8943829122
