47

O	2.3586980216468265	-5.0209980094879825	32.79050243707799
O	2.0456277004866306	-5.251899179266202	34.11105932953185
O	3.2235871988410696	-5.0954346320614885	34.8604668718883
O	4.4210550567969555	-4.895800455785851	34.258068139076784
O	4.628808142056769	-5.424246854985189	32.98238595061708
O	3.57220882081547	-5.145271688729884	32.18148290754816
O	3.3377399233846776	-5.704559943182172	30.788752560239825
O	2.6315380278123217	-6.993837206162381	31.00176355991766
O	2.3536643717728336	-4.7942544298649885	30.32128563997387
O	1.1244879991122674	-5.1824851848175175	29.893653393573956
O	0.9284134090761658	-6.023872354708576	29.015836087068237
O	0.2170336912855655	-4.124428683514251	29.661613867463085
O	0.5503541346186238	-3.3399270565189423	28.60815820473997
O	-0.3217307732040595	-2.3965419863528137	28.289506905621515
O	-1.423442686678607	-2.237324975576028	29.02379513274338
O	-1.7091309777406116	-3.160681640302619	29.99938539941526
O	-1.0535058947530764	-4.320521102404203	29.876952457054635
O	0.09679173622170145	-1.5139345863174705	27.24174068308131
O	-0.8661520038414481	-1.676822163055177	26.199262983416624
O	1.7548875513389306	-1.125868102991741	27.151652653514848
O	2.307226580427574	-1.071744546240787	28.564551556154175
O	1.8309156596470078	0.289201637430498	26.85595911302685
O	2.749952640587177	-2.2662553040079896	26.300878629150244
O	-3.020047790058583	-3.322769471258868	30.661716330759177
O	-3.7990872179324415	-3.6754880504358027	29.762913608357543
O	-3.071918405666936	-3.9474042978667794	31.96664493375558
O	-4.222156919456701	-4.4076478808429815	32.670450613177486
O	-4.154567181449248	-5.7529808070652795	33.341291656158546
O	-3.0166240922531795	-6.6144688727955705	32.78492902699729
O	-2.539902613056651	-7.824352489253374	33.28847890158032
O	-1.1673423283440543	-8.079465562191686	33.54875093412908
O	-0.1944469454040676	-7.428180577848672	32.89269372282556
O	-0.6177878814212681	-6.245708763323972	32.42105619831924
O	-1.9046314714182033	-5.851498182839972	32.555408574939555
O	-4.457743003357214	-3.230162841864995	33.61453384327883
O	-4.618103311753121	-3.267230745679901	34.895905500465524
O	-4.990509628168479	-2.138597991104582	32.99743302434078
O	-5.504053514351291	-0.9256847280566092	33.39036291970108
O	-6.024726879067307	-0.5938776858692112	31.993735665537702
O	-6.950038753526163	-1.8158301685120795	31.840814117089465
O	-7.06658179291459	-2.943969602040638	32.705234754862175
O	-7.6908766329723015	-3.0324634515817372	33.97403651575611
O	-8.735515545408498	-2.155451118885325	33.644623472094146
O	-9.076651255139138	-1.4076639298060454	32.44962544858241
O	-8.240034493322819	-1.6586510293286811	31.420066670659402
O	-6.709428831767045	-3.445449488057358	34.976913913467115
O	-6.4858527781509405	-4.486679814423895	35.83955472345356
