16

O	6.055614755729269	-9.735446986248146	5.7260494267934465
O	7.169995463797291	-10.172352588028607	6.044602886636985
O	7.437146109681819	-10.180478386301871	7.493137230454007
O	7.645264162695905	-11.073458472628715	5.091436627444902
O	7.620228741705253	-11.04093122271477	3.7172902053690393
O	8.564622943302878	-12.170685663447367	3.4232371182667007
O	9.486368696833198	-11.477027350820002	2.676195048855869
O	7.24925246528534	-10.537955629710856	2.482157907296312
O	8.232264882349744	-9.94278957605076	1.6531383302229257
O	6.444055397339826	-11.283490952365545	1.4610554378846379
O	7.20310612361473	-11.981224861701158	0.5447720967735714
O	5.446086556187887	-12.095160207630038	2.2154483392404405
O	4.250991873910368	-12.302027574733653	1.372542196539797
O	4.7870732091480495	-12.528557733687254	0.0882747155329584
O	6.185059869840259	-13.046044777879715	2.95488501466272
O	7.599290713371506	-13.103650734086358	2.8141018974073235
