27

O	-8.922348196555921	-10.845852672745924	5.864403282272072
O	-9.836819542015494	-9.677009683911832	5.854919536516378
O	-10.63714734593387	-9.616830010058605	7.231552283599467
O	-9.945334615035934	-10.578624786482683	8.072278286829144
O	-10.840688261113577	-10.880478774379728	8.9593735606757
O	-9.370583728767675	-11.828630320408843	7.834355994931872
O	-8.671765733710549	-12.170263442072415	9.125763438020773
O	-9.226764620380571	-11.654813991262433	10.354658283543124
O	-10.133281431174268	-12.414914820316717	10.944742888702628
O	-8.829856642862255	-10.37363193657685	10.883237720339029
O	-9.82048202192854	-9.82775553410953	11.669733111815912
O	-8.388719028195776	-9.356058493287195	9.904747071722978
O	-7.072257142321661	-8.92933965041676	10.435594568690485
O	-6.367574697957258	-10.115517836602189	10.69676015275223
O	-7.857621056070366	-9.912075961241744	8.674863741330899
O	-7.499949246008707	-11.224207736709268	8.959743090454806
O	-6.9172234149178	-11.829341527865465	7.99582512030257
O	-5.6284689826561465	-11.48230229565148	8.027064914885765
O	-5.5988943739496895	-10.597604506989088	6.984480149833317
O	-5.370655262994706	-9.460753610431636	7.347510923385227
O	-5.79255683223015	-10.545614826475267	5.615271808302161
O	-4.764048036760116	-11.003382308507042	4.788697684182526
O	-5.038116935094807	-12.334176073838856	4.428524747489244
O	-4.083997185216356	-13.31223199388898	4.5146618977640784
O	-2.80350063091129	-12.875666565087547	4.32390666843412
O	-2.5044671452598264	-11.70165310163825	4.901442771161532
O	-3.4767396469218204	-10.797361968465266	5.15622587248755
