75

O	1.847271978296875	-2.5460493525156256	3.8947295802625157
O	0.598262638296875	-2.2327899725156253	3.433654910262516
O	0.493949108296875	-1.6208404525156253	2.2192037002625153
O	1.441608738296875	-0.8578376725156253	1.6286531202625156
O	2.6407532882968745	-0.9822451925156254	2.2086199802625157
O	2.824417098296875	-1.7740411525156254	3.341830050262516
O	1.2457942082968747	0.24105023698437475	0.31528410076251556
O	2.6005070382968745	1.2280614474843747	0.04490244126251558
O	-0.017731961703125076	0.9593230754843748	0.5698855812625155
O	0.9490966982968747	-0.5408746965156253	-0.8845810197374844
O	3.456266408296875	0.08170228068437474	2.1056614802625155
O	15.430527808296876	1.0276131744843746	0.6120449422625156
O	15.232206808296876	3.6809914674843744	-2.0695230997374843
O	13.488086208296876	-0.8517220085156253	-6.434128279737485
O	8.854807308296875	-8.128477532515625	-7.3462283197374845
O	2.6708013982968746	-5.867984942515625	-8.967693309737484
O	1.9914534782968747	-2.2498810125156252	-8.065501599737484
O	2.046728448296875	0.6016332504843748	-8.758944239737485
O	10.610043708296876	4.3204452774843745	4.685603360262515
O	7.709667758296875	6.745369237484375	5.251701820262515
O	5.593580198296874	7.892987067484374	8.255219570262515
O	2.4643212582968745	6.023970097484375	9.215310850262517
O	-0.5421628857031251	7.515046027484375	11.035132610262517
O	-1.8912679457031252	4.424347547484374	12.816397410262516
O	-5.459249731703125	3.7332905574843744	13.867050310262517
O	-8.372740511703125	-1.3338102125156253	14.074518210262516
O	-8.517038691703124	1.2972523574843748	8.258981160262516
O	-5.2190610217031255	0.4174903834843747	9.919123850262515
O	-2.9263113717031253	3.3080744374843745	8.835668120262516
O	-2.236707701703125	5.895216797484375	6.2107376902625155
O	1.0356406182968747	7.1735763274843745	4.836324110262515
O	2.451830348296875	9.001323557484374	1.8166391102625157
O	5.0947019582968744	8.592249317484375	-0.8541519397374844
O	3.700443638296875	5.688818207484375	-7.238705889737485
O	0.779193628296875	5.379649267484375	-9.630388269737484
O	0.470808278296875	9.977472517484374	-3.1640707897374845
O	-1.5562066297031252	9.171535607484374	0.0033397712625155562
O	-2.321864621703125	5.571194797484375	0.7840947332625156
O	-5.169323021703125	4.720874677484375	3.2229195802625155
O	-4.634909461703125	1.0931324654843748	4.072405800262516
O	-7.481767181703125	-1.2615046825156253	5.035094600262515
O	-7.704338621703125	-4.983962612515626	5.715528680262516
O	-10.574546781703125	-7.386045062515626	5.051069080262515
O	-3.706406881703125	-7.497640962515625	9.048728200262516
O	-1.742963766703125	-9.824192162515626	3.5779392402625154
O	-4.764859611703125	-13.432835262515626	0.8219079232625155
O	-8.329480101703124	-10.031414262515625	-1.4363471697374843
O	-6.746814561703125	-9.203008122515625	1.9217442902625157
O	-6.252896201703125	-5.427530912515626	1.5774027202625156
O	-7.8355075717031255	-2.3988205425156255	0.025762586262515597
O	-5.646186831703125	0.6300789774843747	-0.4202869907374844
O	-7.296002271703125	3.9168945374843744	-1.2949057997374844
O	-4.770435731703125	5.982288387484375	-3.1750193297374842
O	-5.1009829317031254	9.774748867484375	-3.5501443397374843
O	-2.1418272317031253	-5.422433932515625	-7.296553029737485
O	0.36615268829687486	-5.577780132515626	-4.542794189737485
O	2.0749460682968746	-3.8190590325156255	-1.6784252597374842
O	4.4212429082968745	-1.2351489825156254	-3.2872879897374845
O	7.227965328296874	-1.9769534325156255	-0.8686963697374843
O	8.779584908296876	-5.2277856425156255	0.32732032546151557
O	7.4233941282968745	-7.767668962515625	0.9683455542625157
O	5.479765418296875	-6.783622542515626	-2.2433948897374845
O	2.6820630282968745	-9.247198132515626	-1.4412330297374845
O	-0.060874591703125036	-9.579987882515626	-4.0426332297374845
O	-2.9069721317031254	-8.921345362515625	-1.6612810197374843
O	-4.265676021703125	-5.509886592515626	-2.5878026597374846
O	-7.370830811703125	-4.257979142515626	-4.324944969737484
O	-6.210427061703125	-0.8096303395156252	-5.408092109737485
O	-8.774239691703125	1.9812625474843748	-5.524641669737485
O	-7.145059451703125	5.171607467484375	-6.923524749737485
O	10.338888608296875	6.948025757484374	-1.4259956597374843
O	8.241829598296876	5.758280607484375	-4.3474864597374845
O	8.396309648296876	2.621288507484375	-6.522195579737485
O	5.236288798296875	1.8694000774843746	-12.340131289737483
O	5.382665658296875	-1.8921197525156255	-12.970902689737484
