85

O	1.2401652618686274	-0.9067726288235294	-1.4585993459411764
O	2.1119564018686274	0.8459536051764706	0.20454220205882356
O	3.2912382518686276	2.5183509221764706	1.3642279020588237
O	2.8584055618686275	2.9445413111764704	3.620730972058824
O	1.9698669518686276	1.9176093621764707	3.6032430620588234
O	1.9459490018686276	1.0454896381764707	2.554157212058824
O	1.0966539118686276	1.8766820301764706	-0.13128546694117638
O	0.6870661818686274	3.8414483211764705	1.3318583220588236
O	-0.3662210901313725	3.1312541711764705	1.5339957620588236
O	-5.4023430881313725	5.858440371176471	-1.3698729759411763
O	-6.331045068131372	4.992603361176471	-1.2030765519411764
O	-7.070168168131373	5.27168339117647	-0.03501697994117636
O	-6.010821618131372	3.6019163111764705	-1.5804367739411764
O	-6.629533808131372	2.7742436311764704	-2.4770340479411765
O	-6.014639458131372	1.5582579187764707	-2.8837276779411765
O	-4.964291598131373	0.9722398001764706	-2.2364591779411764
O	-4.100375838131372	-0.12470052882352944	-2.588126207941176
O	-2.7061955181313726	-0.2438627688235293	-2.1951649579411763
O	-2.1190238681313724	-1.3944064988235292	-2.5218500879411763
O	-0.8379033161313725	-1.6109276188235295	-2.1739664279411763
O	-0.1597471781313725	-0.5525798088235292	-1.6319543879411764
O	2.1419264218686274	-0.1527475788235293	-0.5816918819411764
O	2.7804559818686276	1.2160192871764706	1.4951715020588239
O	3.9944708218686276	2.6467850211764707	0.1963427150588236
O	3.6739206918686276	3.0657480911764705	2.5558424720588238
O	0.7571468618686275	0.4798887611764706	2.2129489520588237
O	1.4784330918686273	3.0372410311764706	0.6114843520588237
O	0.9740892218686275	5.35927100117647	2.0743993420588236
O	-1.0055200677313725	2.3817505441764704	0.47432171205882356
O	-0.2388904211313725	1.8280325401764705	-0.5367095519411764
O	-0.7824354121313726	0.6422446671764706	-1.2263332019411763
O	-2.0816772981313725	0.7150065151764706	-1.4489483369411764
O	-4.533092618131373	1.7984151951764706	-1.1988887689411765
O	-4.824337318131373	3.1605011511764705	-1.0959477479411763
O	-2.9767248781313724	7.104238191176471	-10.545852267941175
O	-0.37889848713137253	7.59533121117647	-7.762605247941177
O	-1.3052058441313725	5.676063081176471	-4.5706743779411765
O	0.9666789918686274	7.55094812117647	-2.2883782679411766
O	4.393987941868627	8.80135366117647	-1.5118371709411764
O	7.009039331868628	6.670978391176471	-0.02639189894117644
O	10.308714031868627	8.10550246117647	1.3051997220588238
O	5.936935631868627	6.85291352117647	-5.294529477941177
O	3.582640591868627	3.9064228111764705	-5.4750204179411766
O	1.2329668718686273	3.7963368311764705	-8.527545027941176
O	-1.8347982481313725	1.8817059291764706	-9.548026787941176
O	-0.7134811931313725	0.06372792117647053	-12.695984787941176
O	-1.0381912414313725	-4.245983478823529	-9.616198467941176
O	0.8649974218686274	-1.6634419288235294	-7.478295577941177
O	4.162094771868627	-0.3739026088235293	-8.879307917941176
O	6.385551931868628	0.8570961091764706	-6.0047651479411766
O	0.9281192118686274	-8.75554159882353	0.1317039630588236
O	8.888735251868628	-3.267030868823529	-7.098018837941177
O	5.9601133218686275	-5.09062062882353	-8.702213197941177
O	3.431035861868627	-5.550061278823529	-5.880587557941177
O	-0.013650109131372545	-7.0408284988235295	-5.417012697941177
O	-2.5576547481313723	-4.11972711882353	-5.197745377941176
O	-5.000481428131373	-4.27872697882353	-2.360612397941176
O	-8.256941008131372	-2.9062374888235296	-3.9511244879411764
O	-9.867556278131373	-1.9242019688235295	-0.6214725069411764
O	-7.108552888131372	0.1782842711764705	0.7488505620588236
O	-5.494064128131372	0.9533882481764706	4.165531572058823
O	-7.020243948131373	-0.6928569388235295	7.311886292058824
O	-5.886831878131373	2.293604217176471	9.363111712058824
O	-8.368747028131372	4.4938128911764705	7.512699802058823
O	-2.6374993481313727	-1.1592965588235296	11.366898712058823
O	-0.6901810571313725	1.3339670721764705	9.030341452058824
O	0.9274136918686275	-1.6854093988235292	7.565388932058823
O	-2.2515340681313725	-3.6324054488235293	6.837910162058823
O	-4.203187248131373	-3.4945928988235297	3.605020632058824
O	-7.516192718131373	-4.955892138823529	2.481723142058824
O	-7.990415708131373	-7.3452093788235295	-0.4474908009411764
O	-10.984488768131373	-7.627845368823531	-2.7571494379411763
O	-6.165296508131373	-8.52841729882353	5.587384682058823
O	-2.9709117381313725	-7.99161496882353	3.5727580820588236
O	0.2847813018686274	-7.5490047488235295	5.474938962058824
O	2.2324389918686274	-4.861463628823529	3.5922851320588234
O	5.827954361868628	-5.011790168823529	2.7148887120588236
O	8.825976811868626	-2.7782561988235295	3.1943881820588236
O	7.033624521868628	-0.5423036988235292	5.740346752058823
O	10.121537531868627	2.844936031176471	2.9724358920588236
O	6.807550481868628	4.657682891176471	3.6261996920588238
O	5.864996851868627	7.4437441011764705	5.939078532058823
O	3.3707576318686274	6.883521561176471	8.592145152058825
O	-0.011002200131372541	8.38179431117647	7.821975602058823
O	-2.1059106481313723	8.745309451176471	12.403748112058825
