13

O	-25.162219018379425	1.3177406763676967	27.519218537324754
O	-26.273181798142176	2.0421419681148167	27.575210394765385
O	-26.206794626350813	2.894050584771716	28.76386056719763
O	-25.64510543907314	2.3406641695363115	29.89418234679853
O	-25.21731096055308	3.8026957242103805	28.149074744890445
O	-24.090365430213605	3.072597524002136	28.159850616306052
O	-25.828124567389303	4.403478793921108	26.98379734237
O	-24.937449414299255	4.460461453473156	25.845316497247254
O	-23.82950798744626	3.775184792586943	26.183204894906964
O	-27.15880997247089	4.054567771427655	26.7779970977681
O	-26.91463976574073	2.71328123404145	26.461088129667676
O	-26.127975012088037	2.748201309906186	25.163858089522606
O	-25.479907887953157	1.5811987367192621	25.36587237624247
