22

O	16.369667707179318	0.534002628949894	40.17110820900853
O	16.728445489293186	1.7849156631006706	39.97327009850125
O	16.36846072289234	2.491728443086088	38.89203977376677
O	16.154638061026276	3.798358817180698	38.97239977102208
O	14.841479539913689	4.14771644291401	38.91480315076834
O	15.733082337565158	1.9289712482968495	37.871620060732205
O	14.68578212663122	2.558303861093667	37.18348601119138
O	14.190471544950427	3.541542388821898	37.919176438301
O	12.950140623735379	3.349197817719968	38.558752848349485
O	13.613775069124591	2.1348029960534536	39.241638929742166
O	13.91480224590049	2.6735864108235567	40.456607774574664
O	14.481939412084682	2.8670623793178867	41.3819455511625
O	12.673252672396101	2.3410966757864196	41.295772930339034
O	12.148384938904917	3.4457091036809846	40.687477765121564
O	12.980844238443018	1.0542293239432166	41.30301032095149
O	14.121059353342549	0.8333736329910102	41.87924204313373
O	13.172086836656096	0.3137071928231081	40.10346643689257
O	12.619426868271908	1.2994779463678596	39.21112445806472
O	12.569569238320772	0.7986507586150475	37.82622697039249
O	13.327598830758891	-0.2678527902709327	37.56115942887921
O	11.47160997035619	0.829635483505268	37.345451535739286
O	11.484064535623808	1.920671102208098	39.63539580783869
