36

O	10.180129829083256	66.87310281502974	3.4336986134268948
O	8.980453331230887	67.13394140304115	4.258748975441789
O	8.667366178195898	67.48987022015127	2.8896980411720024
O	8.012805590012348	66.19076847004953	2.300526499497953
O	9.46769390621865	66.51786587895523	2.2284881393786646
O	10.7155128366189	65.61686942299558	3.944307275121996
O	8.650982691628853	65.70915346102286	4.427549075292052
O	8.706426350371121	64.71773263937395	3.458294406635112
O	7.487205423656803	65.55271376140398	4.810475004127203
O	11.124706101726836	64.85865939608564	3.003160377714707
O	10.63368104273701	64.90392802539719	5.125976905998077
O	11.756141662080479	64.11929057895559	5.469691635851572
O	13.019664802469034	64.47280301984742	4.952925227710276
O	14.619527925240014	64.53546662172073	6.57080796095077
O	13.628348858840805	65.21653743869116	7.126068305385308
O	14.245355486803588	64.87587640571323	5.390378980977489
O	12.312658333321355	65.0081258145288	6.584850649899741
O	16.043582277311454	63.82028482528457	7.208011279472903
O	8.560869682986468	63.44407496511933	3.2338968409627125
O	8.792086651617701	62.40175252944761	4.074076760793505
O	7.968804010845542	60.83140625360372	2.54544386973632
O	7.850643481962874	61.894719249577534	1.6456445490650347
O	7.865395688137356	61.34431442498585	3.8529722343129453
O	8.717296325807165	62.98548087550607	1.9776611738388024
O	7.278260798743528	59.64099437460594	2.140082124116458
O	7.570717004871268	58.324120256072504	2.468031259382831
O	5.60431101871464	57.762022399359665	2.311517920241851
O	5.0619393040101865	59.081860153733224	2.125420949313358
O	6.537159784161714	57.85014319567948	3.29452939204329
O	6.011213845182317	59.95160285159707	1.7009682098423138
O	5.659165820084398	61.10593449046806	1.3758359223309826
O	8.947133042183825	63.65195575062995	0.8054204531361755
O	6.814294219390667	65.70387619486287	1.739225005506368
O	5.46148545464048	66.32865437123974	1.8852361634617845
O	5.992924671649742	67.7029888856463	1.7651266007942157
O	5.142327437466953	66.6612802231349	3.2396610885783796
