77

O	0.11355179179591857	1.4374528927448988	5.078067699693877
O	0.9831446247959186	1.432790220744899	6.270430989693876
O	1.9916746347959187	0.7194272808448989	6.427393829693877
O	0.22349974879591855	2.064370618744899	7.301904949693878
O	0.3051667837959185	1.7953856447448988	8.673022879693876
O	-0.7983426212040814	2.018002368744899	9.491327079693876
O	-1.9832433152040816	2.509800418744899	9.017598339693876
O	-1.9513427852040814	2.891763558744899	7.679997759693878
O	-1.0325315652040814	2.216094028744899	6.878047779693876
O	-1.1065866482040814	1.489561379744899	5.596922339693878
O	-2.1725307552040816	1.702718814744899	4.682275209693877
O	-1.9058490552040814	1.693547634744899	3.3056378896938767
O	-0.7745419512040814	0.9015773930448989	3.013722989693877
O	0.28647478879591853	1.461762537744899	3.730270159693877
O	1.6824337247959185	1.240609187744899	3.566450039693877
O	2.4751088147959184	1.992096608744899	4.2296482096938774
O	2.0699174847959183	-0.13147960925510105	3.893032589693877
O	3.0312982947959184	-0.679285421255101	3.007330429693877
O	2.4417854847959184	-0.7709370512551009	1.582556303693877
O	1.6131911047959184	0.34121784874489897	1.451349319713877
O	1.9379368047959185	1.052615242744899	0.27006286969387694
O	2.0384019947959184	0.18120268274489892	-0.9928514303061231
O	3.3093450747959183	1.4479855797448988	0.598981654693877
O	3.3086664947959186	2.551778018744899	1.380662382093877
O	4.3017593547959185	0.618103635744899	1.302706866693877
O	4.801552294795918	0.980874555744899	2.509293559693877
O	3.8202433347959186	-0.7397254912551011	1.066053246693877
O	4.144047404795918	-1.094452651255101	-0.15688980030612298
O	0.35912165179591854	3.437729658744899	-8.501001030306124
O	4.823373664795919	-1.2275228312551008	-8.235126240306123
O	12.786761564795919	0.987600963744899	-0.3738919503061231
O	13.790114664795919	-1.315954071255101	-3.2845170403061226
O	10.65815516479592	-3.5047249412551005	-3.1247150703061233
O	11.771054764795919	-4.506645871255102	0.4150041696938771
O	15.262723164795919	-5.568727971255101	-0.7317081103061231
O	-3.4888711252040814	0.764782033244899	-9.033183060306124
O	-1.2642777022040814	-2.179864371255101	-9.933759060306123
O	0.5939746787959186	-4.537026551255101	-7.657362010306123
O	-1.0167659952040815	-7.855122931255102	-8.629508760306123
O	3.6227190647959184	-7.596522661255102	-3.601443920306123
O	5.080080984795918	-8.857708921255101	-0.24365407030612296
O	-3.1758742452040813	-3.787714111255101	-5.080747660306123
O	-2.9537555452040816	-7.101653401255102	-3.228609650306123
O	-0.5413611662040815	-7.8845955112551005	-0.39265495030612296
O	-2.0822430052040812	-10.2219161412551	2.145075632693877
O	1.3328956047959184	-10.7595382412551	3.785287059693877
O	-6.447916275204082	-2.109171331255101	-2.134405520306123
O	-5.2209306252040815	-4.463362921255102	0.46281385769387695
O	-1.8278692152040814	-4.023193741255102	1.913259252693877
O	0.3194774597959185	-5.9633582512551015	4.345546699693877
O	-2.6935032552040816	-6.511272441255102	6.598154089693876
O	-1.0820552982040814	-5.271279331255101	9.772195599693877
O	-0.14930136920408146	-8.535287731255101	11.431832899693877
O	-11.62665213520408	-9.5950175412551	6.185599809693876
O	-10.45822353520408	0.18736119474489898	4.583943839693877
O	-6.999139185204082	-1.250688821255101	5.162113329693877
O	-8.307801165204081	-4.7866222612551015	4.738144409693877
O	-10.84118333520408	-4.596019011255101	7.483476239693877
O	-10.53039963520408	0.546954224744899	9.495396609693877
O	-10.56501453520408	5.394175038744899	3.718434719693877
O	-6.978222675204082	4.645157258744899	2.722067839693877
O	-4.563378005204082	5.808869258744899	5.4004746496938765
O	-2.8496167652040816	8.895019258744899	3.985135189693877
O	0.3153652167959185	7.151212508744899	2.725734869693877
O	3.2465176147959185	9.5444348487449	2.023978720693877
O	1.3581224947959185	11.9672382587449	4.200327659693877
O	-7.5822098652040815	8.089879918744899	-1.284160890306123
O	-3.9793308452040814	9.1068723387449	-0.5119420203061229
O	-0.8156816332040815	7.622212688744899	-2.015910040306123
O	2.6670616447959183	9.0854845987449	-2.488355520306123
O	6.130227444795919	8.3795558887449	-3.847586370306123
O	11.154979964795919	10.199819838744899	-0.15510401030612297
O	10.54853996479592	6.436548288744898	0.001126269693876969
O	10.88921866479592	4.234437628744899	-3.112490280306123
O	7.919662434795918	2.3830946787448988	-4.622675690306123
O	-4.324251035204082	10.999723558744899	-4.827802210306123
O	-2.264318705204081	8.1423479787449	-6.242808280306123
