25

O	-40.814117951423555	5.245011301282728	-16.8790584583911
O	-41.08218697672527	5.842468471018467	-15.586769432831
O	-40.994321664978614	7.095044596701008	-16.261298976446668
O	-42.46928024038317	7.109353410708798	-16.308387881007985
O	-42.36521720109174	6.4993248420443	-17.57446885399514
O	-43.808076704674576	6.580409575311212	-17.172046193817675
O	-44.053339808072685	5.326496884432417	-17.697773829593494
O	-45.36942399945494	4.905222401607432	-17.200827640900126
O	-45.72852332819899	3.546542083570474	-17.117246603471152
O	-44.72418814406007	2.8365799946951014	-17.78036347134529
O	-43.44474356992751	3.3122687589385165	-17.485034536443425
O	-43.13139326652377	4.683422525591279	-16.9690749833677
O	-42.084159400705	5.116059831745919	-17.362798510221467
O	-41.901968828604105	5.3808348577948335	-18.74652506148523
O	-40.472696990915665	5.549068817442604	-19.04268958790643
O	-39.89484817829916	5.449717280621943	-17.806508378587733
O	-38.89817624562285	6.330097662329228	-17.50642912481044
O	-40.029700672096986	7.317850124575646	-17.30034048394102
O	-40.144122463871994	7.664034794985134	-18.472633561486393
O	-40.937363871588	8.584819205603896	-19.190671303300082
O	-42.09630562951658	7.891063902519324	-18.91360140522289
O	-42.07346798739963	8.210152703536876	-17.488434463363923
O	-43.51259833102689	8.572871784869577	-17.429708344739357
O	-44.07954316507525	7.578055914618231	-18.39387269185941
O	-45.44943244364219	7.587577200478815	-18.24932937594249
