31

O	-0.7431098410240808	6.589015136649321	27.62592481225682
O	-1.421992560653048	8.089897781334008	27.02621991590607
O	-2.5994271393354564	8.498740242386086	27.523487871720896
O	-3.066868879309961	9.557229403764582	26.953807245118973
O	-1.4619282773077653	8.887009014911664	25.505847880878264
O	-2.801147053752901	10.014307424607848	25.713326429525864
O	-3.4996575791798996	11.008990399028491	24.77023424627569
O	-3.719476458683447	10.496438366078683	23.517422452066782
O	-4.159623790860048	12.076111476347066	24.679960811421164
O	-4.582618518647043	12.30555818205653	23.388108063446627
O	-4.0407841945645195	11.372804047080976	22.473851069155913
O	-2.808221304017567	12.06969426977162	21.941059240483032
O	-2.6447909691109635	13.311581757049753	21.36442802750137
O	-3.8906841378903962	13.773890240935744	20.740026026391888
O	-3.1485077819707827	14.233617061636995	19.535514794928197
O	-2.7084608220861632	12.947193988763104	18.900859296786376
O	-1.8171851573103257	12.86303503131602	20.180458716255743
O	-4.489473095027521	12.568937830632976	20.452101098082824
O	-3.2800988024868962	11.62890677747091	20.667607813721723
O	-3.557604409978267	10.5057102460622	19.924402861232554
O	-3.1021567542506023	9.360013117599614	20.084912361522196
O	-5.5078915993696285	11.6365767761019	20.64594315882855
O	-6.4682534088296215	11.124114541691956	21.248479994263786
O	-4.938429210087594	10.614255940491645	19.756966917629907
O	-5.5642465188717605	10.52085651800297	18.51015466695346
O	-6.199847689385127	9.146129128994565	18.822969115720465
O	-5.249512997448143	8.153996311840213	18.234684009113757
O	-5.793525517708079	7.290089835540692	17.241284668754243
O	-7.250856150389227	7.184420261096983	17.29416998587542
O	-5.253559085075336	5.961730089476416	17.188341709944144
O	-5.504666349239547	7.905283708222302	15.941573506794652
