25

O	16.75156919629928	18.159792487853416	45.273054368937814
O	15.375527553190572	18.537854641650252	45.30317590849957
O	14.679971038053838	18.43835350272534	44.04924057940574
O	14.701736607398121	19.194377279686705	46.276318392747406
O	15.725505917373978	19.072901147396145	47.44860996535681
O	16.008762722592586	20.492896235628397	47.47662503965915
O	14.797253122220093	21.10741585551204	47.892362865443225
O	14.972235290321276	22.21474878125787	48.70314941582644
O	13.627534337739498	20.702796593138405	47.29977732083215
O	12.431451626212098	21.377561675690007	47.61952887053103
O	17.18284263896364	21.152052079690126	47.339167635414505
O	18.35803901708967	20.443985026399254	47.29507778576009
O	17.22933911118392	22.484223991076213	47.72259224697946
O	18.44810830861877	23.280207335764956	47.77628180599487
O	18.884158194004055	24.5574146014768	47.57833853826602
O	19.41497547197451	22.68553611081302	48.258178682735966
O	16.189686224015894	22.817868923075892	48.62375676002461
O	16.940266623516994	22.762998289034513	49.96017785616524
O	17.581233844863846	24.075998935161167	49.7819752547269
O	16.42100394306365	25.011581616840974	49.5804198954972
O	16.814581893203254	26.310410216073038	49.57400351783214
O	15.86557451569394	27.238750981042656	49.85531717897844
O	14.844076282706215	26.901136427841667	50.660887139100254
O	14.509268022979342	25.595897131485714	50.764016581363414
O	15.24327733325348	24.6571722535599	50.14206864259345
