28

O	11.223544990043273	60.826025661870894	38.60264469720164
O	11.878477363349901	60.361351433289364	37.33551087173343
O	13.341674104602184	60.2148131889661	37.580851114128286
O	14.07502102771063	59.31154834553834	36.66345439915339
O	14.347822426212051	57.993755338812925	37.17890193051362
O	13.085704360660525	57.63247840393206	37.67585421854777
O	13.107275984119767	56.326460379533316	37.161264284554704
O	15.343151913888681	57.533376969817006	37.97872248284993
O	15.155793341951043	56.15526263599715	38.184329172116826
O	14.075394871703988	55.6050066209979	37.61917602578589
O	14.346472442512828	54.9431979656886	36.30605627290555
O	14.932932796815944	55.56081876102921	35.25166202564246
O	16.311826042810686	55.691149733737454	35.3798764784428
O	14.769266728365755	53.71468956300367	36.563778694068354
O	16.103074064531764	53.65528605896953	36.28119441878163
O	16.777716839867416	54.8099312033184	36.29499653004362
O	18.033110163218485	54.67180042946943	36.957708839785745
O	17.831418635627877	54.07193258599032	38.319575653861314
O	17.72761104202068	52.56892484654575	38.07788766223293
O	19.177488420295315	52.33905910151216	37.648351445596234
O	20.070665436813503	51.923413177130435	39.12983426956801
O	19.199267227637716	50.584335011292	39.754944844001095
O	21.54154351609265	51.31668706497339	38.65333171388269
O	20.131005761339743	52.713403980481935	40.25719044321349
O	19.318956754433476	50.73303577558874	36.963639479997525
O	18.18780023837064	49.951888267347265	37.45768783359222
O	19.74902564898438	50.85632060219074	35.63939200570875
O	20.613474320238375	49.759209268094054	37.53034434171947
