81

O	-2.2515444778461537	-4.434323407865385	-1.0837084721346155
O	-1.0881876178461536	-3.6608675178653844	-0.7092310631346155
O	-1.1020196538461535	-3.2341578678653846	0.7014772598653845
O	-1.4399347658461537	-4.104696477865384	1.5600103398653846
O	-0.14757672484615347	-2.2802731578653845	1.1162815998653846
O	-0.2470375248461536	-1.7565695778653845	2.4521263798653843
O	-1.3869441808461536	-0.8140256018653845	2.4605443398653843
O	-2.520810907846154	-1.2295456878653845	3.0789690598653845
O	-3.5875746448461534	-0.4065142628653845	3.3167201398653843
O	-3.6036484848461536	0.9093492621346155	2.9905895198653845
O	-4.599724924846154	1.9345569621346157	3.1608761798653844
O	-4.392053984846154	3.3080567321346157	3.3893186398653845
O	-5.597043704846153	1.7020145921346155	3.8802256098653847
O	-2.3429673218461535	1.3921794321346155	2.8562894598653843
O	-1.3378571208461536	0.5277896451346155	2.619026399865384
O	0.16470211515384636	-4.432976677865385	-0.9549636871346154
O	-0.2670570948461535	-5.759259537865385	-1.4942882601346155
O	-1.6662180778461535	-5.500472517865385	-1.9204057601346154
O	-3.5065893248461535	-4.634550377865385	-0.40536777793461554
O	-4.640037774846154	-3.7995822778653845	-0.0694458761346155
O	-5.398324894846153	-4.219392567865385	1.0820401598653846
O	-5.665574554846153	-3.4651149778653845	-1.0992364211346155
O	-3.4250277348461537	-5.702488237865385	0.30690712886538446
O	-5.210872624846154	-4.122736537865385	-2.3776121501346155
O	-4.959251304846154	-5.4643328878653845	-2.4720555001346156
O	-4.4853975948461535	-6.070364227865385	-3.6308897601346155
O	-3.8826297348461534	-5.272977717865385	-4.570943770134615
O	-4.395360454846154	-3.9969844278653843	-4.668705280134615
O	-5.005160514846153	-3.4104138278653844	-3.557676340134616
O	8.022506585153847	-0.5206813278653846	5.520641009865384
O	8.216856235153847	3.2760175221346155	5.573567739865385
O	6.993264435153847	1.7101082721346155	-2.613913620134616
O	8.043472555153846	-1.0798063218653846	-4.947996580134615
O	5.695080465153847	-3.5004945278653845	-3.1666634301346157
O	7.828728065153847	-3.0362921478653844	-0.07173367513461551
O	10.654380135153847	-4.788302357865385	-1.9080964801346154
O	8.995561935153846	-6.952399247865385	-4.525033470134615
O	5.605592255153847	-8.673615877865384	-4.376496200134615
O	2.173777825153847	-13.194097157865384	-4.796887720134615
O	3.4437114751538465	-13.007360057865384	-1.2032160761346156
O	6.889075105153847	-14.465377157865385	-1.9329944501346155
O	8.444154335153847	-11.073263957865384	-1.2866967041346156
O	2.7031836051538463	-6.234501437865385	-9.230948700134617
O	-2.5535846408461538	-6.438433597865385	-11.345041280134616
O	-3.0267538648461536	-3.1563243878653844	-9.481523450134617
O	0.3841703151538465	-1.8942156578653846	-8.181847820134616
O	0.5252309751538464	0.6347182961346155	-10.998526480134617
O	3.814012015153847	2.6129938021346155	-10.717962680134615
O	4.424403475153847	1.4209198921346156	-7.154320780134615
O	4.406556005153846	5.992543572134615	9.674220819865385
O	4.8498110951538465	3.2315336821346157	12.241482519865384
O	2.2197888551538467	0.8312617291346155	10.810005719865384
O	-0.8325050048461535	-0.6840000818653845	12.396539219865383
O	-7.141041044846153	-2.7892535378653847	10.664732319865385
O	-7.446660354846153	-5.856568017865385	12.865002919865384
O	-9.503173054846155	-2.4128145678653845	-8.691599640134616
O	-2.3177158668461537	6.851024582134615	-8.385165760134615
O	-4.435588914846154	9.202667012134617	-6.3272246801346155
O	-6.612546014846154	8.611229322134616	-3.284708990134616
O	-7.099144504846153	10.457901542134616	-0.013659855134615484
O	-9.303903124846153	10.235517842134616	3.0794794598653845
O	-2.6535228438461536	4.710301522134615	6.530501299865385
O	-2.489622470846154	0.9194716621346155	7.044614869865385
O	-0.21335994484615362	-2.1023925578653846	6.845579279865385
O	3.3179130751538466	-1.1362635078653844	7.910177679865385
O	2.864746975153847	2.4337401521346154	6.593635549865385
O	3.6462252551538468	1.1875568621346155	3.0675109698653844
O	6.3086401751538475	3.1664090021346154	1.2951726598653845
O	1.5888983651538464	5.019711142134615	0.6474296398653845
O	0.6161536851538465	2.2145566321346153	-1.7473943801346155
O	-2.5829913978461536	0.27949858613461553	-1.0953255541346154
O	-6.064503724846153	0.18715498113461546	0.43438066186538454
O	-9.006064404846153	-2.1670499978653845	1.2136113198653846
O	-8.845969304846154	-2.6485285978653845	4.9217178398653845
O	-7.915102454846154	0.4257775851346155	6.905123679865385
O	-12.928359364846154	3.3130267621346157	1.2424362098653845
O	-9.909066554846154	5.565309172134615	0.5943306788653846
O	-6.176256284846153	5.189618332134615	0.7776578498653846
O	-4.276291944846154	4.952524412134615	-2.4896875301346157
O	-0.9539512168461536	6.666462022134615	-3.058221600134616
O	1.6117830251538463	6.512480192134615	-5.816664330134615
