67

O	10.042403355218172	7.856859225892037	3.9636648273236386
O	10.002537438957136	9.14346508021189	4.414366298246776
O	10.98815984329935	9.376042916193377	5.275683442511799
O	12.077000040080716	8.576817329087007	5.2486634540760395
O	12.371971022817075	7.744906857845246	4.173904897831531
O	11.210084637577605	7.477861885597274	3.45923192063419
O	11.523949421088602	6.8891350611989095	2.229223300087277
O	13.519481644605982	8.353400513434316	3.730133639797293
O	14.09373854414688	8.743874667100421	4.795452376485671
O	13.251150547356481	8.731358411328426	5.780676326748669
O	15.255449106718432	6.65119091405279	9.542063368661193
O	13.86045963623081	9.942180778246996	9.131841259956758
O	11.49444512772889	10.107523195637203	7.745672103641938
O	14.515964080162819	8.708455063880196	7.416617717986577
O	14.293545607738372	6.666023104606209	8.705808580347785
O	13.101081001235224	8.725775398058438	9.022730216261337
O	12.299916999963482	9.080119476214069	7.7908570612663794
O	13.80053095625285	7.844487571282777	8.072983547595973
O	13.530093429386238	9.479963649907447	6.911510291777658
O	18.612635138844066	6.469775112613616	5.651114800631409
O	19.67712670409507	7.080079615255114	5.309341862051875
O	18.46386720858747	5.395912433882967	6.7212754377309505
O	17.19323474872581	5.334734108470641	7.430570369930591
O	16.287403105369492	4.591369187348818	8.073852491524802
O	14.91025585420687	4.239698709474334	8.025390699131126
O	13.942119055354851	4.459597216712883	9.135334248003733
O	13.308961147459884	5.738819819574658	9.205936482976764
O	17.728110921129133	7.0530232840275975	4.773501451763741
O	16.914733248259573	8.173883646369195	5.254420689103396
O	17.779848087670565	8.901031014128442	6.162693950443853
O	18.78723262633952	9.461903538777296	5.740401487218239
O	16.021828930448162	7.337692115678604	6.106346833444815
O	15.184073802967006	6.329717609480741	5.461157385813987
O	15.833334104332623	6.243499333402903	4.141865258989231
O	15.894414737946098	6.66091563515729	2.8236332537484206
O	15.11421222138596	7.2141603827736684	1.8045663745171243
O	17.386580693403374	12.282060725272775	5.14699268755298
O	17.351844912460805	13.412100956320689	4.6381301832357
O	17.373362306845188	12.131559314200935	6.639101673132065
O	16.466028382946668	11.137576156697031	7.262279101644577
O	17.269537597693827	10.159719919308891	7.884342571541899
O	16.905004375067772	8.984195197472253	8.688891357575672
O	18.125676151548973	8.189556260635769	8.486651647512087
O	18.392454653095083	8.124141975830407	7.167160459644237
O	17.920318024027946	11.383064387298088	4.199156731473824
O	17.048224044505872	10.736342895651422	3.377114879742056
O	17.229167865411767	9.468832225184922	2.7354333723341533
O	18.682956960152346	9.163093910507287	2.637372240238605
O	18.80016836924691	8.519924951355474	1.2845757719102942
O	17.678724616029804	8.216761175172497	0.5326138791520911
O	16.81277586313523	9.020205453523472	-0.2130391118980519
O	15.756933328062196	8.497616059280247	-0.99100878089674
O	16.69378288805967	10.226196672070225	0.1720228142696687
O	15.674767730753732	10.836164095893182	3.8429969248494835
O	15.06517277075379	10.76338166179229	2.793367837807997
O	15.237453075051606	11.695677104831795	4.818229899077498
O	14.241977402520142	12.742532884040479	4.749510983515356
O	13.013657297986718	11.822857042804259	4.760957875520374
O	12.844831835157883	11.305602476965175	3.506886599449068
O	11.904201727924685	10.983365606169036	2.526087576941544
O	11.90064511891866	9.943496692777416	1.6038827607939012
O	12.928517790438992	9.476129286321683	0.7556886798464113
O	12.661159429406762	8.46370907082991	-0.22235234342496213
O	13.557671433837577	10.480023644865042	0.20342133393739026
O	14.312254200285349	13.581284904992902	3.5456465309203633
O	14.861556198595565	14.691554085781398	3.421734701442116
O	13.786315950499816	13.047932555953036	2.3192296029781296
