73

O	-2.1525847560833324	-0.41224376144791597	-1.7865021838749995
O	-4.367342699083332	5.443557678552084	-3.168791092875
O	-4.399226329083333	4.073267838552084	-3.427516382875
O	-2.7663453090833325	4.420082368552084	-2.1576682548749995
O	-3.1796487590833324	5.689330558552085	-2.4995481628749996
O	-3.5507505590833324	3.400463228552084	-2.6242806928749998
O	0.9425488509166675	3.043757278552084	-2.4602014928749996
O	-1.7513866690833324	4.142717968552084	-1.3219049778749996
O	-0.45197715908333236	1.7772073325520839	-3.6588525428749996
O	-1.7285900140833323	2.880746838552084	-0.8978155578749996
O	-2.4681070980833324	1.872615053552084	-1.3443355738749996
O	-3.3053552390833323	2.053573424552084	-2.3739699988749994
O	-0.8819531150833324	2.7723794085520836	0.13878054712500054
O	-0.5127741390833325	1.5609646272520838	0.4600501071250005
O	-2.038520189083332	0.6202114865520839	-0.9142811008749996
O	-1.1075297650833325	-1.2129300214479162	-2.2190731858749997
O	0.0606295409166675	-0.37421181144791604	-2.1979617968749996
O	0.29578239091666747	-0.35006974144791614	-0.7590479588749995
O	-0.8708753650833324	0.4161941885520839	-0.17697553287499956
O	1.6447621009166677	-0.03155542144791612	-0.6956940708749996
O	2.181910850916667	0.9001791335520839	-1.6500041068749995
O	1.1718107909166677	1.6667023735520838	-2.3053666018749994
O	-0.045425079083332376	0.9830539055520839	-2.6254124828749994
O	0.023344220916667657	3.1258377185520843	-3.4759376528749995
O	-3.3651156090833325	-0.2984901214479161	-2.5487564028749996
O	-4.047924619083332	-4.999623591447916	-12.211406142875
O	-7.229248029083332	-7.344277351447916	-8.208490902874999
O	-5.546889719083333	-10.179850521447916	-6.258713012875
O	5.6619985509166675	-4.611051931447916	-7.716289632875
O	2.3114948909166673	-3.411097181447916	-7.140325572875
O	0.0978045709166675	-5.652005431447916	-9.042406452875
O	2.6419760809166677	-6.3810799814479156	-11.860874442875
O	3.7138514609166675	-2.876635401447916	-12.922303242875
O	1.1938749009166674	-2.1944077614479163	-15.695293042874999
O	7.933132800916667	-0.025228111447916035	-11.060612772875
O	5.1363709609166674	1.1903304755520838	-9.077909792875
O	5.141837890916667	3.9988402385520843	-10.074576182875
O	-0.5959942530833324	6.396060018552084	-8.423584072874998
O	-0.22947161908333236	2.632918308552084	-8.409077592874999
O	-2.7854921490833324	-0.10861194144791608	-8.898098212874999
O	-3.751662839083332	1.084181982552084	-12.492289342874999
O	-5.869855269083333	4.171305688552084	-12.163874942875
O	10.724402180916668	3.3838854585520837	-5.1854292028749995
O	7.889232340916667	5.306942368552084	-3.6617400428749995
O	8.833828180916667	7.955373418552084	-1.1206439468749996
O	5.835725680916667	10.200180898552084	-1.0096769298749995
O	13.357487980916668	3.475824698552084	-0.5051858538749995
O	9.894986880916667	2.044457066552084	0.2931621571250005
O	6.366994690916667	2.084098893552084	4.725010437125
O	2.5956751309166677	1.892111313552084	3.535471657125
O	2.1951083609166675	5.539117168552084	4.413109527125
O	-1.2249672520833323	5.030456058552084	6.162714827125
O	-3.5057447490833322	2.000358783552084	5.988998797125
O	-6.925834479083333	0.30740482855208384	5.576440237125
O	-7.3604194590833325	1.585704444052084	1.9872066971250006
O	-9.212089409083331	4.402809968552084	3.8403284671250004
O	-10.487245019083332	5.210211688552084	7.414658237125
O	-7.742247359083333	7.6264748685520845	8.436894877125
O	-5.415060819083332	6.247050138552084	11.165102457125
O	2.5232064409166677	3.467033018552084	8.236145747125
O	7.802145250916668	-3.3765532014479156	7.399333007125
O	7.300428280916668	-6.936485661447916	8.437019737125
O	3.572919170916667	-6.374866951447916	8.574026077125
O	1.0399352109166677	-4.084263911447916	10.083847357125
O	-1.8426205460833325	-2.295127231447916	8.560690257125
O	-4.9523039390833326	-1.727889531447916	10.599703957125
O	-13.318225119083333	-0.189291751447916	8.226047077125001
O	-10.321200469083333	-2.498129011447916	7.740725807125001
O	-6.096023019083333	-9.781353721447916	3.214072597125
O	-6.421105509083333	-4.559258381447916	6.776593847125
O	-2.9589001690833325	-6.248464011447916	6.660986277125
O	0.4483255809166675	0.289861058552084	12.844059157125
O	3.627782340916667	-1.667440281447916	12.246452057125
