17

O	15.47687610345488	-8.152117194733798	21.02915668135132
O	15.44054287175123	-9.552091097496106	20.710447916565304
O	16.692932613177508	-10.226283496141654	20.460718879705585
O	17.734940938154995	-9.538531093699799	19.82226126369789
O	17.403635969377497	-8.21831052356576	19.475435602761433
O	16.216321361330746	-7.638995986313473	19.961257795698717
O	17.356289481369274	-10.573143425737996	21.652449586159726
O	18.73626985577022	-10.449054089872336	21.581362635765217
O	18.813538929935774	-10.125115881075173	20.338530837573668
O	19.503996052505315	-10.375735134353395	22.853169035429666
O	19.07111790013751	-9.973984426507197	24.01171738216933
O	20.04062657145599	-9.233294705354112	24.761444790386097
O	21.24996109885225	-9.288496745775426	23.878267502304073
O	20.905462860606498	-10.390998553925948	22.97991549638989
O	15.634091543521032	-7.6830869027385535	22.344300157783515
O	16.605058243879125	-7.747056110740363	23.28717233153651
O	16.109757500815	-6.284322278855512	24.148265982503585
