16

O	13.872370524248208	5.158129933060314	11.542808852369223
O	13.477834657563944	4.758359677198142	13.206658265148796
O	11.816345122004716	4.12724885029707	13.139082155877444
O	11.491289609844634	3.1303967559060304	13.933436155485321
O	10.826935302446868	4.6743341324207055	12.439055601143707
O	9.517207633456628	4.363044940828621	12.765253035477667
O	8.654185220291883	5.21314212296865	12.132032060867164
O	9.474708815791477	3.0648237941421095	13.228406335887634
O	10.327134052881926	2.318733343587428	13.890168059923615
O	10.86064163552747	1.2139379986762466	14.718774135775726
O	11.28400589138662	1.3480352815893946	16.06747433843702
O	12.295176809241966	0.6768725091768373	16.691541283272123
O	12.473130082532363	-0.5885830169334492	16.21193757227354
O	11.776142108437938	-1.0088096939288826	15.114895888683
O	11.44157694135427	0.05107769796068551	14.227410006763686
O	11.476954549988385	-0.25229312600788667	12.53070190714898
