79

O	-4.133954334968254	-2.4148502396730156	3.130665682666667
O	-2.749009344968254	-1.8784367196730158	4.067712952666667
O	-1.763281194968254	-0.9401863296730157	2.9225312626666664
O	-0.45326533596825413	-1.0243061896730157	3.0071229826666666
O	-2.245740854968254	-0.04646391167301567	2.0641815726666666
O	-1.3904009529682542	0.8987889933269844	1.5223486726666666
O	-2.103371674968254	1.8794092103269842	0.8910813386666665
O	-0.13866174696825406	0.3357692469969843	1.3887335526666666
O	0.5163405350317458	-0.5710492856730156	2.0741972526666665
O	1.6415640950317458	-1.3813171596730158	2.5929737326666666
O	2.174284265031746	-1.2766259696730158	3.9050181626666665
O	2.698823985031746	-2.2768535596730155	4.671039372666666
O	3.311913885031746	-3.2490078896730155	3.9347639426666667
O	3.228692645031746	-3.2296194196730155	2.5714659326666665
O	2.037210885031746	-2.6166596696730156	2.0944146926666662
O	1.279142725031746	-3.2699951796730153	0.6906379356666665
O	7.703996685031745	10.065946150326983	3.2699582126666664
O	7.577866475031746	6.254660100326984	3.2393089026666666
O	4.596621335031746	6.005984180326984	0.8639440006666665
O	2.684383975031746	8.826148080326984	2.6265293426666667
O	3.3399379050317455	7.026884770326984	5.9517530726666665
O	1.8602650550317459	3.8494706503269844	4.444189862666666
O	-1.1985321919682541	5.8389073003269845	3.2265345026666665
O	-1.567344535968254	7.382421880326984	6.721009022666666
O	-1.376045082968254	3.8801107303269844	8.335846592666668
O	-4.048737214968254	2.5887854903269845	5.868450132666666
O	-6.276745094968254	5.607420260326984	6.605873392666666
O	-5.919524184968254	4.926774790326984	10.360818802666667
O	-7.009576314968254	1.2998797063269842	9.780381752666667
O	-4.2127674849682535	11.528700830326985	0.25330132846666653
O	0.1544014570317459	8.673497210326984	-4.473735627333334
O	-3.5673343349682543	7.895571780326984	-3.919599767333333
O	-5.3050025549682545	7.258086910326984	-0.6154867893333336
O	-8.747983784968255	6.286171500326984	0.5722173466666665
O	-7.390396594968254	3.9534382803269845	3.2191859326666665
O	-8.385875254968255	0.3648903132269843	3.9676684026666664
O	-6.844738284968254	-1.0525116696730157	0.7810726586666665
O	-5.869367964968254	-4.678349269673016	0.15741347366666653
O	-7.6328454949682545	-7.845683979673016	-0.7801859373333335
O	-5.897726364968254	-9.909521869673016	-3.5029120673333334
O	-4.497782184968254	-12.226036769673016	-0.7617627473333335
O	-3.2577289149682542	-9.176285679673017	1.2954841726666666
O	-1.648257774968254	-7.760503559673015	-1.8417100473333332
O	0.2372886350317458	-10.993010869673016	-2.7471533773333334
O	1.3143054350317458	-11.550143169673015	0.8610107266666664
O	2.3164582850317457	-7.9758913696730165	1.7210681526666665
O	4.010289415031746	-6.992552799673016	-1.5697807173333334
O	6.575162935031746	-9.646465299673016	-2.0488566273333335
O	6.112546305031746	-13.428407769673017	2.4068623826666666
O	9.505722915031745	-9.559856459673016	5.9794564826666665
O	10.877698215031746	-9.471806799673017	9.508429132666667
O	10.874620915031747	2.7015873703269846	7.323194602666666
O	9.121734975031746	-2.2233557796730157	7.9155239926666665
O	10.250237315031747	-2.3500911896730154	4.271154412666666
O	9.789527015031746	1.3734801703269843	3.4331534926666665
O	7.627811635031746	0.6650807193269843	0.3617152258666665
O	10.705746815031747	-0.6490641606730156	-1.4629255973333335
O	12.328317415031746	2.8367239503269843	-1.2415561373333335
O	10.041445415031745	3.5427919903269847	-4.251466887333334
O	12.784594615031747	1.7826256403269842	-6.297417507333334
O	8.596261125031745	0.3767549558269843	-12.295266497333333
O	5.895997625031746	0.6063210263269843	-9.636553237333333
O	2.1707357350317458	-0.17315593367301568	-10.144312497333333
O	-0.01775050296825409	-0.5990648426730156	-7.014364237333334
O	-3.8005839649682542	-0.43637123167301567	-7.593480967333334
O	-5.862698364968254	-1.3956558696730157	-4.534637477333334
O	-9.479639214968254	-1.8744940796730158	-3.5344549473333333
O	-10.605959804968254	-3.2765432796730156	-0.19223315733333346
O	-14.247954484968254	-3.4811944796730154	0.9327417746666664
O	-14.023662884968255	-7.333801189673016	0.8648739826666665
O	0.17036397003174586	-5.264086769673016	-8.742549567333333
O	3.211990255031746	-4.305195319673016	-10.858452097333332
O	-11.632073084968255	2.0537755903269845	-1.5833640373333335
O	-7.971227944968254	2.5618622403269846	-0.9820958973333334
O	-4.633227284968254	2.3216679603269843	-2.7282005073333333
O	-2.8765101749682542	4.099708190326984	-5.575725467333334
O	0.913482275031746	3.7511381003269846	-5.939560737333334
O	2.076929535031746	4.814921610326984	-9.429752797333332
O	0.3788576650317459	12.626911030326983	9.179428692666667
