100

O	-0.1550277055942032	2.973971994246377	1.7126836507608694
O	-1.330745718594203	-6.066120315753623	-3.812345679239131
O	0.7268611024057969	4.018863464246377	2.137610660760869
O	-2.0295682275942033	-4.086933895753623	-2.9242177892391306
O	-3.1937994875942035	-4.127757545753623	-3.6858503592391307
O	-3.439024387594203	-5.218177725753623	-4.4732802592391305
O	1.8982022224057966	4.681830644246377	2.3545003207608692
O	-2.474926927594203	-6.144861945753623	-4.5361061592391305
O	-1.317122561594203	2.231697484246377	1.9074585007608693
O	0.27546581940579684	2.435029694246377	0.6991018207608692
O	-3.2125091475942034	-2.377587375753623	-2.4813791592391308
O	0.5147769024057969	-1.1675984357536229	-2.826568439239131
O	-1.060131564594203	-5.017133105753623	-3.038537849239131
O	2.6444691424057964	5.104047834246376	1.1983421707608692
O	1.8291055324057968	6.103495224246377	2.8215554907608693
O	2.867382952405797	4.333809424246377	3.417268010760869
O	0.19000516440579684	5.194670914246377	1.3698983607608692
O	-2.5083636475942033	1.3912079612463768	1.1404660007608691
O	-3.4222019275942035	2.026228558246377	0.17273155076086932
O	-3.5658802675942027	0.974179855246377	2.1670027807608694
O	-2.197335027594203	-0.11356270575362304	0.4857271607608693
O	-1.409389302594203	-0.7702685057536232	1.3945665707608694
O	-0.43027095559420314	-1.6069642457536233	0.5761717007608693
O	0.22115108440579678	-0.714925655753623	-0.47458343923913077
O	1.546935082405797	-1.0969377057536231	-0.5567043752391307
O	-0.4290399445942032	-1.139493345753623	-1.7869964682391308
O	-0.9339102605942031	-2.495514055753623	-1.4020489652391308
O	-1.257033299594203	-2.505946175753623	-0.0715054422391308
O	-2.023627867594203	-2.962598885753623	-2.218104189239131
O	-4.023632667594203	-3.272576775753623	-3.0992887792391306
O	-4.595846537594203	-5.309180345753623	-5.26610157923913
O	5.1243693924057965	-4.743072835753623	9.10393452076087
O	2.2359470724057973	-4.168171785753623	6.6344120407608695
O	1.7360891624057968	-0.3611084857536231	5.952603650760869
O	-1.8340909275942032	0.3001086772463769	4.938441040760869
O	-4.236929547594203	3.274153374246377	4.6089759007608695
O	-6.990044407594203	0.9412633442463769	5.720538140760869
O	-10.129353057594203	0.19246315724637697	3.7305327007608695
O	-8.753047537594203	-3.3110473157536227	3.568968330760869
O	-9.619373227594203	-5.669129305753623	0.7841917407608692
O	-8.177583357594203	-8.954591305753624	-0.5126868802391308
O	-5.177472617594203	-7.194478375753624	-2.005592799239131
O	-4.098292137594203	-5.885000495753623	1.3734930907608693
O	-4.8221892775942035	-9.313759705753624	2.903680530760869
O	-2.333348957594203	-10.971494405753623	0.5239708107608692
O	0.4206059524057968	-8.895901605753624	2.150852970760869
O	-0.9652477965942032	-9.770670905753622	5.606564490760869
O	-0.5190469625942031	-3.757916615753623	10.26568264076087
O	-0.44129834059420314	-0.008730545753623087	10.33486744076087
O	-3.5409591475942035	1.932868875246377	9.38919814076087
O	-2.786381187594203	5.596458234246377	8.66735142076087
O	-3.690001197594203	8.071934484246377	6.035747620760869
O	-0.8926717325942032	10.369402234246376	5.5374460507608685
O	1.240063202405797	12.220159994246377	0.29834680076086917
O	-1.9806286775942032	13.903193994246378	-0.7489356022391308
O	-9.939640847594204	8.444779174246378	0.8886869407608693
O	-12.550403737594204	5.844417604246377	2.096088930760869
O	-2.8385655975942035	-3.028889125753623	14.59820694076087
O	-1.0854091505942032	0.3370598142463769	14.80879294076087
O	-3.509376617594203	3.244791174246377	14.33051184076087
O	2.7673465124057968	8.784884524246376	-10.65319115923913
O	5.408863452405797	15.774334794246377	-3.6166225992391308
O	3.509081372405797	12.440542494246376	-3.3925468792391307
O	6.450674482405796	10.105556924246377	-2.946095389239131
O	8.199429532405796	12.435681894246377	-0.47896802823913076
O	5.077691962405797	11.929838294246377	1.6697667907608693
O	5.160233862405796	8.168760674246377	1.2110541007608693
O	8.863615412405796	7.732898804246377	1.992421270760869
O	7.031380012405797	4.807339164246377	5.69752642076087
O	6.6985836024057965	3.665826594246377	10.49850294076087
O	9.926769262405797	1.690291521246377	10.03796664076087
O	8.155139532405796	-4.790435585753623	5.4928537907608685
O	5.5698438124057965	-5.811947515753623	2.9026870707608694
O	4.490491242405796	-3.8823022857536227	-0.2064674002391308
O	2.186356772405797	-4.822930295753623	-3.1340033592391308
O	3.528840152405796	-4.854824585753623	-6.739140969239131
O	0.1794880284057968	-3.057472425753623	-7.328539759239131
O	1.9615188524057967	0.14340107424637694	-6.417940819239131
O	5.153738772405797	-0.7897970957536231	-8.222757239239131
O	6.775686982405797	2.6392137442463772	-8.22015528923913
O	6.021482212405797	3.0089725642463767	-4.4234750992391305
O	7.674496732405796	-0.42220235575362297	-3.976237849239131
O	10.845652062405797	1.9641308432463769	-0.8145547677391308
O	11.476208262405796	-5.265445365753623	1.6708259707608693
O	9.135909092405797	-7.998858445753623	0.3455323707608693
O	7.112463312405796	-7.288828495753624	-2.7993528792391307
O	3.8151627024057966	-9.171152405753624	-2.9930241892391307
O	2.1379904924057964	-10.029930205753622	-6.351518509239131
O	-0.9215148185942031	-7.985471905753624	-7.44605885923913
O	-4.244651677594203	-9.523811005753624	-6.31595353923913
O	-6.309428307594203	-5.181438965753623	-10.177775549239131
O	-8.079129287594203	-4.950451655753623	-6.820792179239131
O	-8.179932827594204	-1.387061445753623	-5.55718600923913
O	-10.444959027594203	0.5768943852463769	-3.218363149239131
O	-10.715569567594203	3.159612914246377	-6.04347091923913
O	-12.584492837594203	0.45356315724637697	-8.014341429239131
O	-0.2944452935942032	1.870761667246377	-17.10498965923913
O	-3.1775791275942034	1.7910741412463769	-12.22262365923913
O	-1.7918913275942032	-1.527141345753623	-13.31844965923913
O	1.5837368824057967	-3.0411681057536235	-14.14941295923913
