14

O	30.60722348760254	66.51393440406777	10.031507561116232
O	32.01837138969762	66.35127127684129	9.560342308018752
O	29.518479120703887	66.45282103878402	9.275845693994048
O	32.150982540334205	66.10934649093663	8.110334548228067
O	30.91895221896876	66.39280307465918	7.323754566901849
O	29.629843313055144	65.93535266784644	7.9115479067479715
O	28.543118578955347	66.5895831105222	7.134811036540493
O	28.952343429847968	66.9017326417089	11.400454008455203
O	28.4961355098964	66.78819653791575	10.116511543053102
O	30.20330211823991	66.38504785386992	11.316872275783833
O	33.185664080151234	66.61750461401361	7.393606301113327
O	32.40303568643461	65.11170704456669	10.10858368545013
O	31.27007105997806	65.92795089030275	6.077744252782034
O	27.75146634336852	65.79317889869903	6.347503406845962
