22

O	35.25088633655972	-4.42744137990986	12.429330217747532
O	36.35877730710438	-4.236931442021931	13.24210850885808
O	37.04984393752203	-3.0281520503076615	13.193056011797806
O	36.7083325151386	-2.0339391704182277	12.335318195135574
O	35.05768101028124	-3.4926737461663357	11.464018167126492
O	43.33455511850943	1.0353032290567472	14.816434178993816
O	42.61073907960491	-0.29221967758978834	14.602539078003563
O	41.38491703927316	-0.2565367803331567	15.472266630856812
O	42.397970979876526	2.0918198400840597	14.236164338817733
O	41.11172047695381	1.9946390678247607	15.00435698200069
O	40.456714700310926	0.69191409579276	14.840821596936348
O	40.51000234406654	0.40027498392831456	13.440527494657093
O	39.181534023332645	0.39219144676965206	12.777662878202674
O	38.78169179177553	-0.9530188612762992	12.737119505756835
O	38.065588701997235	1.0148690507452647	13.560314308201889
O	38.02848210750698	2.3955723362864285	13.48837759941041
O	36.85471785871058	0.36201925528197726	12.911138901976834
O	36.301088235716676	1.3181395604652573	12.082355602794042
O	37.487763068062975	-0.8031750512842629	12.209305856946038
O	34.53366866028866	-5.476085151436201	12.4818397231944
O	35.68485986467845	-2.2860205496105945	11.47656857232783
O	35.22705984014272	-1.2900079917923735	10.829180957154309
