16

O	-5.44913068127166	-0.3788584846598031	16.036111542380134
O	-3.416900929501769	3.9578548813374055	14.585668109664857
O	-4.490733492425823	4.773177099483725	14.356036343043227
O	-4.17280754588177	6.003806746509742	13.768088427014458
O	-3.0463387260823422	6.727171335336884	13.923037390261326
O	-1.6475591979950721	8.640716094345562	13.65042923142196
O	-7.208566472199556	1.4375358260275481	16.63774268201102
O	-5.5554526045140955	1.1834046498445345	18.036035128644947
O	-5.740370392283619	1.2544184843599862	16.534963408977458
O	-4.9217941872238535	2.48408503546766	15.626324811125393
O	-3.7968004429434714	2.7051794344618707	14.952757797355371
O	-5.758640107613274	3.893240199306668	15.159050124861515
O	-1.964888041940278	5.892480191052411	13.888933256847428
O	-2.2268065166233653	4.5883494778478955	14.089897979309796
O	-2.840597627346194	7.952088548179388	13.27811028566717
O	-0.5367347405014664	8.09797740729589	12.759314893281536
