33

O	20.789545607101257	31.415438772768475	22.636014233793254
O	22.14543957059282	31.311857541885406	22.95462938154562
O	23.152247185637773	30.841576303679304	21.967664377119725
O	23.098317839397875	30.32558859258653	20.66020530493042
O	21.7654466907042	30.811584705678303	20.27664618933685
O	20.795168896138236	31.317637035659505	21.272988959527105
O	19.724094731727078	31.30167418012229	23.498519250921092
O	24.04272821505211	29.79093484091517	19.729025648448935
O	23.541611254431107	29.582367161455473	18.48808345704335
O	24.259160551207554	28.98343905625124	17.528841844280752
O	25.39160747720214	28.350543676799447	18.03068194717562
O	26.25659326450764	28.71378093145605	18.793449441210292
O	25.35713185261116	29.39067760362714	19.778614245747683
O	24.44826190630871	29.25169377785976	16.162672577483743
O	25.545310672250142	28.477785653890447	15.63170093457521
O	26.58922971025153	27.740914699329753	16.1793666072347
O	27.42853614529334	27.38951583284959	15.17371692024605
O	26.87518815272275	27.950515774268894	14.10921964477689
O	25.757648558563528	28.5414048401622	14.391835784282591
O	28.662239661899623	26.61226590273848	15.005769055759282
O	27.735189237923837	27.6465847867489	19.310805110498872
O	26.96955009337644	26.108322216998175	19.57916520618608
O	26.57415470171871	26.15613032437658	20.94881768161411
O	25.53342121084958	27.165724841127545	20.94225647875679
O	24.459638294938372	26.91376717885921	20.348160903600377
O	24.63427238468052	26.528711815092468	19.110296808478612
O	25.852400519480344	25.833833989792712	18.843081517406635
O	23.340445518811695	27.278519137097597	20.962263455004138
O	23.210039578471545	27.4961620782696	22.3343017405586
O	24.290773182421056	27.961222791001276	22.807118140685393
O	22.018821099431747	28.323727984356434	21.91766618969771
O	20.69913560295183	28.413648563122088	22.11450666541109
O	21.58887253544663	28.505398777634134	23.24541124825444
