37

O	40.89128128539439	30.882150795158594	36.5568935802416
O	40.237222630144075	30.721008214696013	35.56152670582397
O	40.6758703061294	29.43400031779201	34.94773955311016
O	39.6221643365893	28.682166699573887	35.049989200745365
O	39.89550917067555	28.26829332872515	36.45859023140191
O	39.60850097419653	27.290414294976305	37.38690338249932
O	38.3741473410742	26.77702569989981	36.85719723662022
O	37.83837648345334	27.15206118222275	35.59579050409985
O	38.77086758965799	27.6713264983415	34.67797495984259
O	39.469987029809886	27.484050510383682	38.85362953367225
O	39.32505501252589	26.36766483587306	39.81780407844936
O	40.555783519012984	25.57430626641562	40.03791915454899
O	41.613801821759346	26.514027268962987	40.247431015005205
O	40.866784677169946	27.496408524110887	40.950681865453895
O	39.99256798088648	28.337441942808944	39.954130566381494
O	39.847996239016986	31.53092992794299	34.38149304358198
O	38.81878520360043	31.032822761494476	33.55900801183697
O	38.76752106891343	31.131034349073726	32.15963075349669
O	39.952819561010095	31.45188549816545	31.609057674103894
O	40.068596768701894	31.787998259325196	30.1777449331325
O	40.77409421218901	32.144217147159004	32.42692602807752
O	41.002878825285116	31.761935909944288	33.75856372096268
O	41.8188723873613	33.09491630173779	31.982675343358874
O	42.283558059616105	32.887379382188314	30.725518504828838
O	43.54766244540837	32.30427963461538	30.737534113712005
O	44.0755287151236	31.792553340983304	32.021833697343624
O	44.07217424658877	32.776603354187294	33.041655086747774
O	44.25979909976346	31.884996603804524	34.12647362924291
O	42.811659477566295	33.48026320099466	32.81091340525129
O	43.69386423804844	30.482458850913233	32.713919170081134
O	44.10513126928221	30.653550402001336	33.78407730313678
O	45.19228015408617	30.652708779059292	31.541465606984957
O	46.265846989171	30.640201853774148	30.693513508001004
O	47.77888156949341	31.05336841842029	30.84392201100529
O	48.3144641032238	32.4466739769533	30.803190448777826
O	46.91967141425625	32.7763160429923	30.82196461609555
O	45.68204322665978	31.866909330083228	30.545815161959876
