96

O	0.5814655209445785	1.3901066609698796	-0.996211886891566
O	1.4923751209445786	0.4166035519698794	-0.799752335891566
O	2.900810990944578	0.41615158596987945	-0.870530731891566
O	3.5790090109445787	0.8366785848698794	0.17903338910843403
O	3.3881772509445787	-0.5927903290301206	-1.387636004891566
O	1.3476001809445786	-0.6648635490301205	0.19854762910843393
O	0.1733628309445785	-1.2454131290301205	-0.357389249891566
O	-0.9481224760554214	-0.49972421903012054	-0.48637377849156604
O	0.16725228094457845	-2.2589728490301204	-1.218059960891566
O	-2.1395521030554217	-1.1140679390301205	-0.38095510889156603
O	-1.0500997630554214	-2.7874236090301205	-1.464832506891566
O	-2.0093127500554218	-2.4524561190301206	-0.5585119272915661
O	-3.1141034190554215	-3.1322912290301206	-0.653215270291566
O	-3.1499377790554215	9.98603552096988	7.726472942108435
O	-5.2503603690554215	6.851664210969879	7.236207082108434
O	-5.047326689055422	7.30167844096988	3.465858532108434
O	-1.3234363654554215	8.07439282096988	3.763715022108434
O	-0.9465323750554215	4.882483450969879	5.800590732108434
O	-2.8115362390554215	2.970360870969879	3.0842291221084337
O	-0.3304887390554214	4.168335570969879	0.47852906210843404
O	2.9163868909445787	4.50253491096988	2.510757492108434
O	4.169803720944579	0.9430476359698794	3.046079982108434
O	6.6292681309445785	-1.8050241890301204	2.1068526121084337
O	6.533323620944579	-0.38699434903012064	-1.454784129891566
O	8.17954686094458	2.8338309209698793	-0.37456185789156604
O	10.997178310944578	1.2446146879698794	1.5574426821084337
O	11.486555410944579	-2.1856929690301206	-0.04882006789156601
O	10.07739611094458	-2.1164523990301207	-3.6137303978915662
O	10.921224610944579	1.4225523629698795	-4.796559847891566
O	-6.225165659055421	8.721200700969879	-7.2819184878915655
O	-10.855098779055421	6.20942206096988	-7.023888867891566
O	-6.645319039055422	-6.95534895903012	-2.534197417891566
O	-7.475505929055422	-10.40055493903012	-1.085328671891566
O	-4.714538409055422	-12.09829003903012	-3.114773507891566
O	-2.2576324500554215	-9.31982703903012	-2.304544097891566
O	-3.2305744690554214	-9.58541543903012	1.396957212108434
O	-2.3193923510554217	-13.25256573903012	1.3067246621084339
O	1.3692329909445784	-12.46594323903012	0.6467714221084341
O	1.6526242009445784	-8.87998821903012	1.9352605821084339
O	0.7277798609445785	-9.73944103903012	5.514538812108435
O	6.049561040944578	-10.35006153903012	4.385530772108434
O	4.875556720944578	-7.842349479030121	6.997078612108434
O	9.60665711094458	-7.397444419030121	9.436317222108434
O	-7.923066709055422	2.4310331209698797	11.456554522108434
O	-4.039232469055421	3.8735900409698796	14.705064222108435
O	-3.0412018490554216	5.981518610969879	11.701858322108434
O	8.51088191094458	-0.8010790490301205	-14.172874777891566
O	3.7958627009445784	-0.6160592690301205	-11.993512177891565
O	5.591212580944578	1.0614355589698794	-9.077055417891566
O	3.2929109209445784	4.0914261409698796	-9.289341707891566
O	0.24077232094457846	1.7956088709698794	-9.105885087891565
O	1.6689166809445786	-0.31619244903012067	-6.324913407891565
O	2.9129212809445786	2.6851439309698795	-4.354640917891566
O	-0.24406791905542158	4.80570646096988	-4.497349007891566
O	-2.4469492490554217	1.7304748709698794	-3.734249977891566
O	-4.238897399055421	2.144670390969879	-7.047131687891565
O	-6.088033729055422	-0.6434054990301206	-8.820038237891566
O	-6.5223620090554215	-2.6676255790301204	-5.627845407891566
O	-10.08333920905542	-1.4949294490301206	-4.902147917891566
O	-8.716698839055422	-0.24275154903012064	-1.576313377891566
O	-8.532277859055421	3.5188009509698794	-2.084297197891566
O	-6.651538849055422	13.01065956096988	-2.452916337891566
O	-2.3753182890554214	15.44571286096988	-0.22642207089156602
O	-2.4597815890554218	11.71007956096988	0.547574942108434
O	-0.7022824650554215	11.04384356096988	-2.7709516478915663
O	1.9613122009445785	13.729105860969879	-2.268153017891566
O	2.5622226609445784	12.42435926096988	1.252544912108434
O	3.257019750944578	8.97421959096988	-0.18893317489156602
O	5.541393890944578	10.36941038096988	-2.8749146878915663
O	8.909069610944579	7.22351095096988	-1.266900396891566
O	11.435347910944579	9.33116835096988	-3.160516737891566
O	12.536563710944579	5.378212550969879	0.9878056821084339
O	12.524461610944579	-3.3720996190301205	10.686699122108434
O	8.91267371094458	-1.5409553790301205	7.845421982108434
O	6.441388170944578	-3.1935205690301207	10.201946522108434
O	4.461741770944578	0.019898410969879432	10.821129522108434
O	4.710507750944578	0.7649172614698795	7.142139062108434
O	3.3341676009445784	-2.7489250790301205	6.4740920721084345
O	0.6817847209445784	-2.7149963690301204	9.196472592108435
O	-0.8732798620554215	0.6333394369698795	8.248542792108434
O	-1.1540218930554216	-0.8033483990301207	4.722909992108434
O	-2.3943752890554215	-4.299098069030121	5.438193842108435
O	-5.391027189055421	-2.9831544990301206	7.379176762108434
O	-6.251211399055422	-1.0444601590301206	4.214463522108434
O	-5.887055559055422	-4.119262579030121	2.0100661321084337
O	-8.145448919055422	-6.290034049030121	4.0345804121084345
O	-10.910163279055421	-3.655976749030121	4.4135953921084345
O	-12.46325248905542	-4.178597549030121	0.9250782921084341
O	-13.27672788905542	-7.77092941903012	1.888197482108434
O	4.319819540944578	-15.37554043903012	-3.440979247891566
O	2.295663570944578	-10.71468043903012	-6.865901817891566
O	-0.21852028905542142	-6.98302225903012	-7.624952847891565
O	1.3060716009445785	-6.321973019030121	-11.028387377891566
O	-3.814278889055421	-3.5063562690301207	-10.822603677891566
O	-3.0240519790554217	-1.9536625590301204	-14.232561277891566
O	-6.945474779055422	0.8440295919698795	-13.224224677891566
