31

O	3.7543671067965665	5.899153857091305	26.585782401982392
O	3.6357245407946928	7.66120401782162	26.60054287726047
O	3.8363029019943347	8.594849265932115	27.699704567868878
O	4.333594316524419	9.985681772998657	27.66562340145878
O	4.826463411989428	11.226260662434058	28.651333536779713
O	3.4686649578873525	10.235552440278727	26.49138934955269
O	2.83990292218588	9.359477049545864	25.547308488785728
O	2.9266029278303867	7.964725727461549	25.48229507767001
O	3.740777847477116	7.144589764213407	24.105896120385307
O	4.646542342748137	5.976248121870012	24.49147673885095
O	3.06434457178682	6.665028330573865	22.98650953262206
O	4.8978790681378666	8.306381024112312	23.787183922795474
O	5.464044420383521	8.755695092258264	25.10199115216372
O	6.110175852760108	9.926831740886755	25.17168342973289
O	6.972763789678783	10.239732762458496	26.295263641567963
O	7.562949682040226	11.884716913594982	26.5885455462604
O	7.8218881007364605	9.360838124140454	26.460578045618377
O	7.640252808301023	8.122757781206126	25.84528287555052
O	9.238303582978425	7.31461322790693	25.550580224121727
O	6.431549783286335	7.694468367465004	25.240715080455125
O	8.613239700832217	9.267356360390792	27.53177274744927
O	7.91615655470201	8.063182535978733	27.76471127673725
O	6.486071620137256	8.171259248663056	28.020648897092094
O	6.352599131576948	8.234665338164776	29.44244062394251
O	6.475092253408356	9.48326989651266	30.159888239231172
O	7.634312273889112	6.749774458550023	27.692192224457532
O	7.488263608559217	6.431998194073181	29.040356634739
O	7.358430955607531	7.453791602380468	29.956856927398032
O	8.341266785941656	8.116397222871363	30.78494189926361
O	8.524857597147392	9.428844124141593	31.015723644739452
O	7.434385241372884	10.236400127999106	30.739088051982613
