97

O	-0.765956363520274	-1.8078273888575345	-2.1064338159315064
O	-0.6049603373102739	-0.7471352088575347	-1.1974783329315066
O	-1.996464364310274	-0.6964428888575347	-0.9317838189315065
O	-3.0062195643102743	-1.5785608888575344	-1.5903946889315066
O	-1.9307756443102742	-2.4750441688575346	-1.6004114669315066
O	0.008127828689726058	0.3565329161424654	-0.8515040459315065
O	-0.800517455110274	1.1905715231424654	-1.4957578469315065
O	-2.157867914310274	0.4338676111424654	-1.3606349749315065
O	0.579379735689726	0.7675905531424654	0.2167478860684935
O	1.817514455689726	0.2325564611424653	0.2782932580684935
O	2.724299365689726	1.2106811751424653	-0.012504621931506588
O	3.7592530456897255	1.3942440526424653	0.8595042740684934
O	3.7873436056897263	0.9357263431424654	2.139992824068494
O	2.8987344356897258	-0.0537670988575345	2.4256837140684935
O	2.040344645689726	-0.41770809885753457	1.4815307440684937
O	2.829124105689726	1.7013702771424655	-1.3822013259315065
O	4.532023795689726	2.9955300811424657	0.6094387540684935
O	-3.888145204310274	-1.9019574988575345	-0.7398392410315066
O	4.714571195689726	1.3442725957324655	3.1286853440684936
O	5.710104695689727	1.3982482545424655	3.739898844068494
O	-3.030663414310274	0.44780057714246535	-2.4530017759315066
O	-4.237880724310274	-0.2668863888575346	-2.7017860959315065
O	-2.772752284310274	-0.6044268388575347	-3.2526422759315063
O	-4.108661494310274	0.47765932814246537	-1.4913269329315066
O	1.700069965689726	0.0723966311424653	10.717918724068493
O	-0.29169204231027396	-0.36615017885753454	13.926299024068493
O	-2.832026984310274	2.1950818791424656	12.764198824068494
O	-11.703831194310274	1.3332407820424654	5.341029324068493
O	-9.369674174310274	1.9028366591424652	8.273406964068494
O	-6.676219184310273	3.715407101142465	6.341515624068493
O	-6.477633734310274	1.0689979261424654	3.479093614068493
O	-6.630851514310273	-1.8018499388575344	5.930153114068493
O	-3.612821824310274	-0.21094168885753461	7.646390894068493
O	-1.7464120593102739	0.18236442114246532	4.316776334068493
O	-2.413585184310274	-3.4729904488575345	3.6920474940684938
O	-1.016910643310274	-4.499761678857534	7.084902414068493
O	1.996251655689726	-2.1804818588575348	6.652270694068493
O	2.4924572556897258	-3.4859719088575343	3.1587055240684934
O	2.7157234356897257	-7.047765888857535	4.604922444068493
O	5.145237085689726	-6.074281478857534	7.332174024068492
O	7.334444915689727	-4.335094438857534	4.676184344068493
O	7.3161739556897265	-7.332739228857534	2.3505253040684937
O	8.520208675689725	-9.503036318857534	5.236981884068493
O	12.085423205689725	-6.619252648857534	2.1288707140684937
O	8.151966395689726	-5.149547788857534	-3.8258633059315064
O	5.783475865689726	-2.239047088857535	-4.5388870359315066
O	8.468556485689726	-0.12182013885753462	-6.217773745931507
O	10.913543005689725	-0.8155527788575345	-3.3904490859315066
O	8.224236305689725	0.2502285411424654	-0.8879602639315065
O	7.471925245689726	3.392958831142465	-2.7987359359315063
O	11.114166105689726	4.419651661142465	-3.1514367059315065
O	11.968295105689725	3.8274559511424657	0.5099876340684933
O	8.817613885689726	5.661038811142466	1.5430717440684933
O	11.617152205689726	8.556696631142465	4.685973424068493
O	3.5248341756897257	14.518421681142465	3.9528394840684933
O	3.820747175689726	10.850461731142465	3.0049317640684934
O	5.6751336256897265	9.078308901142465	5.814550434068493
O	4.436487675689726	5.488739101142466	5.3159389640684935
O	5.326104135689726	4.7469566111424655	8.936488064068493
O	2.135554685689726	5.853250461142466	13.027873524068495
O	0.821202755689726	6.244377261142466	9.481555124068494
O	1.6691652756897257	9.671767271142466	8.100154154068495
O	-0.5368649753102739	10.906832591142466	5.258155644068493
O	-4.411225974310274	11.413865181142466	0.7572967040684934
O	-7.6803474143102735	7.028444911142466	0.9219876640684935
O	-9.083903984310275	7.532690661142466	-2.5906905759315064
O	-5.5402559743102735	7.306889491142465	-4.021699825931507
O	-4.890571614310273	11.042060301142465	-4.205526235931507
O	-3.287956404310274	11.040878991142465	-7.646750515931507
O	-0.997333203310274	8.140762611142465	-6.678493525931507
O	-0.07637618231027399	9.924329361142465	-3.4626265759315062
O	7.944683115689727	2.2564324021424653	-12.200874675931505
O	4.012406815689727	4.941314581142465	-9.830865635931506
O	4.333357205689726	1.3008833338424655	-8.776298935931505
O	2.160790725689726	0.31287922114246536	-11.724491575931506
O	-0.634878326310274	2.7138877111424655	-10.721130175931506
O	-0.37858739531027397	1.5564426051424654	-7.199067955931507
O	-0.5910530183102739	-2.0530340088575345	-8.372037075931507
O	-3.676383334310274	-1.2668772988575345	-10.472344315931506
O	-5.414416694310273	0.3808801881424654	-7.5391382559315065
O	-4.480590024310274	-2.4090228688575346	-5.150997595931507
O	-5.676073964310274	-5.033772958857535	-7.587588225931507
O	-9.439126984310274	-2.8137633388575347	-4.3249045159315065
O	-8.704773374310275	-6.455920478857534	-3.6225886759315062
O	-12.594293694310274	-5.589708058857535	-0.9585537199315066
O	-15.853603494310274	-1.7787866888575345	1.0392008940684936
O	-11.187503094310275	-3.3760902088575344	3.4508975140684934
O	-6.365242224310274	-7.784372448857534	2.9545419740684937
O	-0.24427096331027398	-13.174894118857534	2.2487528740684937
O	-1.2595701103102739	-9.987614218857534	0.43145283406849344
O	-4.329328914310274	-11.573903618857534	-1.2036671609315066
O	-2.061570264310274	-14.289858518857534	-2.6108676159315065
O	0.613790285689726	-12.013800318857534	-4.0708678959315066
O	-1.8980563943102737	-9.527652918857534	-5.490197485931507
O	-3.961946944310274	-12.239684218857535	-7.171919365931507
O	0.485837445689726	-8.661806518857535	-9.581696725931506
O	-0.769252377660274	-5.543264678857534	-15.063026775931506
