20

O	17.790348369161205	16.992493815197648	23.045263900113902
O	18.885013511406868	17.205266871200738	23.58216079891292
O	16.806344082103912	17.00039911394482	23.927191597994177
O	15.625517844531558	16.585144719809144	23.41154075035015
O	14.68935726952533	16.53690671328883	24.457506547998378
O	15.252837724692554	16.265673826141285	22.138838769796685
O	16.163271969736865	16.42876239438176	21.21211415463537
O	16.060106593680146	15.99359264936362	19.85422065481966
O	14.652892001189613	15.849053368984627	19.22720033849409
O	15.177669543220258	15.578087071137965	17.678496526654396
O	14.17911295046507	14.726477019174006	17.190890219017003
O	16.75676322182567	16.877105526720122	19.166100657311453
O	16.891269061815585	17.093336726803987	17.91257132993559
O	18.071119331323086	16.864638899363435	17.36474042564482
O	18.326841751173326	17.24875578555748	16.061164336598786
O	17.322869286704478	16.87132136776855	15.043287186742102
O	18.588968490381358	16.326978229282272	18.42335249524122
O	18.150769922150804	16.863069648238685	19.527218462987797
O	18.453879553084207	16.71324904456237	20.83126268612782
O	17.451176357060543	16.78646225184741	21.74203201527016
