12

O	-35.732795966666224	4.92953191202041	12.361862177160532
O	-35.59797425785164	3.743405585420952	12.798210582778594
O	-35.703926518079584	2.6846556512632915	11.778580898366966
O	-35.94480238440896	3.669674148687707	14.164714501142251
O	-36.83522016481835	4.568304472637989	14.828364758712254
O	-37.864043583962435	5.303441702847101	14.302684899742953
O	-37.783513153915706	6.655745825804436	14.624722171087083
O	-37.13691549534084	6.509427229546899	16.233477541355093
O	-36.670879254948936	4.841514489094985	16.184459878549387
O	-36.541072512628205	3.9872152028262855	17.344173272857162
O	-37.406939568844166	4.191141292949001	18.266885852661524
O	-35.27741995077239	3.960345603593179	17.97658109196692
