29

O	3.004594206118793	-12.917405479121571	37.41343405488544
O	1.0115925974192113	-11.185997132514034	37.56638252932728
O	4.422723796795373	-12.797034712590733	37.11525962990673
O	2.262717253689594	-11.812457152474003	38.013856370435384
O	-1.9891398233238193	-6.596412319059133	39.93008174375562
O	-0.4979014217665493	-13.310072430255786	33.36841964992011
O	1.5115807263009562	-14.123476378320989	33.378862441116354
O	3.007253191886069	-8.810421387375746	32.378375897094855
O	4.26084164452875	-9.49384374481083	32.294603358478994
O	-0.5025407118001233	-9.803864175401587	40.79557369801313
O	2.83593450015112	-8.922877373494757	30.80198028022229
O	4.019618389540773	-10.859445407608247	32.13114958206178
O	0.2067712140386667	-10.773390101104015	40.04934054073809
O	-1.5309425104391552	-9.116707825506987	38.81535533751166
O	-0.17205205260852988	-9.586773285122304	36.944873911418796
O	0.936501680479637	-10.748441158425136	31.022089252137278
O	1.0580670386258801	-10.95640224822987	34.89050284117012
O	0.9286982544592659	-12.258182101256411	35.040406777014184
O	-2.0625240996786296	-7.811470329230772	40.47349536230426
O	2.30828166899705	-12.1505627679343	31.235332261202174
O	-1.4184313399858668	-9.002747342923199	40.21333195885871
O	0.7390942635195223	-10.543353222737474	36.2665981017573
O	1.0731704163158695	-11.896140382430495	31.879519712705132
O	2.1008444632572982	-10.124099526558425	30.70793523200473
O	-0.5368441692509722	-9.79138754077101	38.185466119298674
O	3.026740471933672	-11.057401390805879	31.05169818883415
O	0.21347383674321174	-10.774022307410744	38.64589363969711
O	0.9595525636297005	-12.76400836095309	33.243127654998496
O	2.8466078102031296	-13.961343250431543	36.752378963823
