93

O	4.016016242611719	0.18529668527343746	3.546416069484375
O	3.0840794026117186	-0.2646199647265626	1.112840049484375
O	3.596026742611719	-0.2232527147265626	4.877274759484376
O	3.730022992611719	-0.6412659247265626	2.377313299484375
O	1.7969937126117186	-3.6402397347265625	-3.641564160515625
O	1.7408610426117184	4.487052685273437	1.287573749484375
O	2.1424352526117185	4.238778385273438	3.403430919484375
O	-2.4257557073882814	0.9863724972734375	3.261832619484375
O	-2.1155144273882813	1.0040108872734375	4.657901099484375
O	4.529393572611719	-2.7531229347265627	-1.406879520515625
O	-3.4458991373882815	2.1877634292734376	3.469165189484375
O	-1.2512342793882816	2.070391891273437	4.914075019484375
O	4.620136742611718	-1.9015181047265628	-0.28148947951562486
O	2.7379495726117185	-1.4626223547265624	-2.1660866805156247
O	1.6263649226117187	-0.4119495847265626	-0.3697816189156249
O	-1.8417832073882816	3.9104731152734375	2.265811729484375
O	1.0275889226117183	1.3813621822734374	1.638953599484375
O	2.0587020226117185	2.1533723332734374	1.912164799484375
O	3.0404292026117186	-3.210257834726563	-3.427010370515625
O	-0.8275259163882815	4.138109845273437	3.942910889484375
O	3.6361086326117187	-2.5222148247265626	-2.390938830515625
O	1.7382955326117187	0.30953228227343743	0.923364279484375
O	-0.44217028038828154	4.006430365273437	2.586677289484375
O	-2.604503247388281	3.2890133252734373	3.201886089484375
O	2.678901262611719	-0.9836549347265624	-0.8982979895156249
O	-1.7878614173882816	3.2992884452734375	4.287933649484375
O	3.6280733326117183	-0.9548972747265627	0.017555205484375114
O	1.1407852326117185	3.6771631352734375	2.4800686594843753
O	4.295491112611718	1.3529598062734374	3.8784043794843748
O	-9.839466177388282	3.2301012552734374	-9.686368140515624
O	-8.578940897388282	4.228485175273438	-6.244109500515624
O	-4.990247217388282	3.7045878852734373	-5.086225960515624
O	-4.605357867388282	4.939028075273438	-1.467019410515625
O	-0.9717367923882816	5.9758284552734375	-0.6392445385156249
O	0.7367195626117186	7.693232525273437	2.269029909484375
O	3.1730203226117184	9.428522225273436	-0.06641356851562485
O	6.926784052611718	8.713239765273437	-0.20933756951562488
O	6.0838820526117185	6.571091455273438	-3.222269620515625
O	8.176872032611719	3.6200067752734375	-4.299173090515625
O	7.886980312611719	0.7173498492734374	-6.709897070515624
O	5.290606482611719	-1.0032343947265625	-4.642348920515625
O	3.1217765526117187	2.0874192242734373	-5.081588300515625
O	3.7664227026117185	2.1385691712734376	-8.889201610515624
O	2.7641652126117187	-1.5054117847265625	-9.160762550515624
O	-0.6826096663882815	-0.4957835247265625	-7.776148610515625
O	-0.8815968223882815	2.4339085352734373	-10.203135220515625
O	-2.5848869073882814	-2.4950801147265627	-12.175146460515624
O	-5.250807017388281	0.22098964127343745	-11.930820660515625
O	-7.191921527388281	8.335603105273439	-8.344619750515625
O	-4.124438787388281	8.182208265273438	-6.036812420515624
O	-4.747925077388281	9.422698885273437	-2.515807100515625
O	-1.8051782373882816	10.776388415273438	-0.6148024305156249
O	-2.8196625673882814	11.202431455273437	2.970845459484375
O	-0.7234374493882816	10.990520155273437	6.069662559484375
O	-3.0877479173882816	9.366827005273436	8.465851839484376
O	-3.1223577973882812	5.155692025273437	11.609949639484375
O	5.633854022611718	11.920262625273438	-5.680739760515625
O	-7.2069033073882816	4.352637255273438	12.009134539484375
O	-6.595344297388281	2.6870093152734373	8.765389819484376
O	-10.05107347738828	1.2927295669734373	8.278369689484375
O	-10.068029677388282	3.8592622752734376	3.9838959594843755
O	-14.31260619738828	4.054741865273437	-6.812488970515624
O	-9.64843828738828	-0.02956075472656261	-4.828665700515624
O	-6.063044997388282	-1.3391879347265627	-5.002392940515625
O	-4.048820697388281	-2.5377661147265624	-1.9792011905156248
O	-0.5458164585382815	-4.292822074726563	-1.729704750515625
O	-0.5042009353882815	-7.891364934726563	-0.2829420915156249
O	2.5423210026117187	-6.580146584726562	1.7722912194843752
O	0.1966003756117185	-5.624654464726563	4.447684429484376
O	-1.8114967073882817	-8.765231494726564	4.172946049484375
O	-3.5642975573882816	-8.474183414726564	7.515368069484375
O	-4.631633817388281	-4.9760902847265625	6.630450019484376
O	-5.890150747388281	-6.244962514726563	3.200712499484375
O	-7.953267157388281	-8.897972474726561	4.935281379484375
O	-9.41621379738828	-6.2841320447265625	7.385282129484375
O	-10.383500237388281	-4.101041104726563	4.369289659484376
O	-4.830476757388281	-7.128070934726563	-3.7619714505156248
O	-1.5607101373882815	-6.6407518147265625	-5.714326080515624
O	1.4345261726117187	-8.995217974726561	-5.119374630515624
O	4.299047022611719	-7.660753254726562	-2.975116690515625
O	6.967400932611719	-5.859636884726562	-5.130768590515625
O	9.598184602611719	-6.838527324726562	0.3818398644843752
O	9.456250202611718	-3.2077972947265625	-0.7676981265156249
O	9.062158722611718	-0.8318281347265626	2.1467571294843752
O	10.136842302611718	2.7033428252734373	2.9538939794843753
O	11.804579702611719	1.1893895210734373	6.0719226294843756
O	14.317571902611718	-0.6773544647265626	3.9329872894843754
O	13.547479802611718	-1.4149838947265625	12.230930839484376
O	10.501522102611718	-3.7134090547265624	12.194554439484376
O	10.097237802611719	-5.756886724726563	9.032511259484375
O	7.057699982611719	-7.750971954726563	7.825622439484375
O	6.5331735926117185	-10.270418174726561	5.087379009484375
O	3.980664442611719	-12.908870674726561	4.076809729484376
