23

O	27.309467470159223	-4.495463030941302	17.37453064415395
O	25.203375027222464	-3.697248003178758	18.725287347288898
O	22.76173855396225	-4.153723299035804	19.876011953656615
O	25.894238919495727	-1.6752818002704595	24.92915027000539
O	28.3971285501393	-5.173367520699968	17.940803639291076
O	25.014824552923635	-5.521241191191706	19.47760463457087
O	23.035145971796773	-5.9047957556726205	21.06429747083775
O	27.80374968015408	-4.022335582052933	25.12940161885114
O	27.904127840583495	-6.487234751807314	18.184190343617928
O	23.623421659539897	-4.0314121422805105	22.06320422350417
O	27.107596328454157	-6.460916417587704	19.308364587098566
O	26.421352544750082	-4.272199489376821	18.458547681371233
O	26.318902893583996	-5.313752730446195	19.31799736758414
O	24.40580640542101	-4.769748710371048	18.551839225705642
O	22.880865459118162	-4.7938584011591425	18.57180006966302
O	23.491701034667575	-4.736609349484132	20.86971686204431
O	25.05417872662915	-4.013042419959398	22.216938701561727
O	25.917599489020137	-5.022144781814958	22.39466273315527
O	27.24628641934556	-4.586312517369344	22.62060381850484
O	27.208902727750203	-3.69369632691175	23.61865624589903
O	26.346254627275457	-2.6370419674746666	23.557352043668494
O	25.410926366707823	-2.754877637614653	22.596617358819536
O	22.82563057714158	-6.259915044026236	19.023085603893755
