61

O	0.667195942309677	-0.6968747620322581	2.460580794774194
O	1.934272030709677	0.294841875967742	4.138696228774194
O	1.8544943507096772	1.154498583967742	6.231098988774194
O	0.804112671709677	-0.392683594032258	3.8158015787741935
O	3.905121510709677	0.9859339589677419	5.7543194487741935
O	2.650372970709677	-1.037731456032258	7.196561458774194
O	0.0021521567096770555	-1.814938196032258	2.1083800357741938
O	4.4551480907096765	-0.05723089603225802	6.622250268774194
O	1.545020608709677	-4.489836706032259	1.7074021632741938
O	0.41440662070967704	0.351748794967742	1.5773764407741937
O	1.530685838709677	-4.3222487060322585	3.136546708774194
O	0.451967673709677	-4.840549136032259	3.2280570287741934
O	-0.08011796329032295	-0.8745216700322581	4.714610208774194
O	-0.9182562492903229	-2.356349676032258	2.9364101687741937
O	-0.03257631129032301	-2.230356026032258	0.8326203987741937
O	-0.15213666829032302	0.016439497167741984	0.31900199877419366
O	-0.7587132092903229	-2.022208036032258	4.242660758774194
O	2.560411050709677	0.6312233439677419	5.366573988774194
O	-0.01139812329032297	-1.2672290560322579	-0.11269163122580617
O	3.724405260709677	-1.338120326032258	6.647575038774194
O	3.647860700709677	-2.463205146032258	5.678696468774194
O	2.376133080709677	-2.7975699260322577	5.092508068774194
O	4.484286720709677	-1.9719297260322581	4.6706375287741935
O	2.153194490709677	-3.269778086032258	3.8113362087741933
O	4.2098322707096765	-2.043517516032258	3.354662758774194
O	3.159273500709677	-2.862773816032258	2.9770201087741937
O	3.748747370709677	-4.168027376032258	2.432934057774194
O	3.318927260709677	-5.476159336032258	3.0906238087741937
O	4.078450150709677	-3.9949550560322575	1.0660835117741936
O	5.155472850709677	-4.450561726032259	2.8155055887741938
O	10.571874660709677	8.680731023967741	-2.873096331225806
O	10.627024820709677	7.050386803967742	0.5116096587741938
O	7.382700010709677	5.711553073967742	1.9257217967741938
O	3.982848110709677	4.819823383967742	-0.033045531225806224
O	4.754296020709677	2.206538283967742	1.6606059187741937
O	7.436431630709677	0.869416533967742	-0.7476521712258062
O	4.899470340709677	0.658848912967742	-3.0199560212258056
O	2.650095350709677	-1.788163256032258	-2.440782411225806
O	3.031226220709677	-5.197587586032259	-3.8854817612258064
O	1.859960270709677	-8.224066876032259	-1.8666465712258062
O	-1.3670804492903228	-9.783415646032259	-2.8673734812258056
O	-1.331840999290323	-7.2418665360322585	-5.663136831225806
O	-1.580662749290323	-3.771733506032258	-4.534983861225806
O	-0.43094820929032307	-1.063450566032258	-6.274862131225807
O	1.173757928709677	4.3483105739677415	4.095829488774194
O	3.962932300709677	5.912719033967742	6.105196808774194
O	6.602335390709677	10.357338573967741	-1.304136221225806
O	8.729599530709676	13.192525673967742	-2.3662234812258056
O	-6.031401579290323	-3.250341296032258	11.713682418774193
O	-9.865393889290324	3.283902963967742	4.103923318774194
O	-7.971955069290323	0.360439746967742	5.368881318774194
O	-4.783051369290323	1.770538423967742	3.771780938774194
O	-6.586591069290323	2.049187823967742	0.6241360487741938
O	-7.6239610292903235	-1.563037336032258	0.9135735017741937
O	-4.713757759290323	-2.397734406032258	0.8627253607741937
O	-3.4018582292903226	-0.173101441032258	-2.116065411225806
O	-5.762305229290323	-2.0260183260322577	-4.041982241225806
O	-5.379453789290323	-5.570428616032259	-2.8611933812258057
O	-1.921338989290323	-5.7185734260322585	-1.3524583912258061
O	-3.5801865992903226	-7.2729280160322585	1.6438997637741937
O	-5.332765579290323	-6.2298139960322585	4.947509888774194
