75

O	4.223852949562501	-1.2497212931718753	3.0251043033906244
O	4.6650704595625	-2.3344540031718752	2.6906110533906245
O	2.8935688795625008	-1.105128483171875	2.564688173390625
O	-0.2130901804374996	0.5698332528281248	4.812443853390625
O	2.3144343895625004	-0.4091867321718752	1.5994911533906246
O	0.9629920995625003	-0.2408975421718752	1.6051912533906245
O	0.41231692956250043	-0.3401903241718752	2.8376093733906247
O	0.7924028195625006	-1.463109713171875	3.4628930433906246
O	2.0766510295625005	-1.8027598831718752	3.3629967633906244
O	-0.44633401843749954	0.6206231028281248	3.4379423333906245
O	4.4781515395625	-0.8510800231718753	4.314394263390625
O	2.9818693895625006	8.593175596828125	1.0297842603906247
O	11.8319519995625	-6.123287173171875	-3.7977218966093753
O	8.3628980895625	-5.042091803171875	-4.910004066609376
O	6.399012889562501	-3.6391937731718755	-7.807778236609375
O	1.9558881095625003	-10.247963043171874	-4.457415696609376
O	3.0755000095625005	-13.607841743171875	-2.9856416866093753
O	4.2961349095625	-12.114439443171875	0.33301702739062466
O	6.9298295095625	-10.391092143171875	-1.7470017866093754
O	-3.4213678604374995	-9.339998153171875	6.989818963390625
O	-2.1785779544374995	-11.528632043171875	4.130732933390624
O	-1.6361351254374996	-12.411292843171875	-1.6522237166093756
O	-8.2301539604375	4.951013036828125	-8.294279796609375
O	-4.472135350437499	5.345259166828125	-8.463316796609375
O	-1.4657004464374996	3.429722476828125	-7.074004016609376
O	2.1257856595625007	3.279303076828125	-8.300655616609376
O	5.3765920195625	2.341439146828125	-6.591923436609376
O	8.8760066995625	3.029510216828125	-5.2847243666093755
O	7.665481409562499	2.7024017468281247	-1.7479067166093754
O	8.6344027695625	4.980746256828125	1.1320714053906247
O	7.4720486395625	8.556619576828126	1.0500835053906248
O	7.230103299562501	8.580012736828126	4.848731693390625
O	6.831102859562501	5.756627896828125	7.367772083390625
O	9.9660160995625	6.8899899068281245	9.194096323390625
O	11.9833284995625	7.130656366828124	5.966894113390625
O	8.6109938495625	6.513341936828125	-9.232965406609376
O	5.5044084795625	7.904604356828124	-7.543584086609375
O	1.7396056295625004	7.616561556828125	-7.777944226609375
O	-7.112732370437499	6.782153986828125	-3.0977696366093754
O	-10.8235606904375	6.065565346828125	-2.7485336466093755
O	-8.652656940437499	-9.218580103171874	8.979779293390624
O	-9.8041994304375	-7.867075333171875	-0.2614498366093754
O	-10.4080265204375	-4.200306993171876	-1.1350015166093752
O	-9.6499276204375	-1.2129652231718753	1.0679959753906247
O	-8.710953410437499	2.2082445368281247	-0.3103402676093753
O	-7.5934903404375	5.423737686828125	1.3241475873906245
O	-7.5712882004375	9.189752586828126	1.3909760373906246
O	-5.5909038404375	9.833157926828125	5.262272913390625
O	-1.3897968554374995	5.897998316828125	0.8832052083906247
O	0.7732205895625004	3.097592456828125	-0.22868140060937536
O	3.5787102995625006	2.4778855568281246	2.071716323390625
O	6.6965640195625	0.21305936382812482	2.5373582533906247
O	7.8755928995625	-1.0168836431718753	-0.7258984966093752
O	4.7226336695625	-0.5440788891718752	-2.7241687266093755
O	3.4658854695625005	-4.138465673171876	-2.399707276609375
O	2.7438878195625005	-6.095854793171875	-5.631369926609375
O	2.0197976595625002	-2.7002346531718753	-7.139466386609375
O	-2.5569960504374993	-5.374710513171875	-6.016714096609375
O	-0.9766237944374996	-3.6303338731718755	-3.0239708766093756
O	-0.9831332794374996	-6.231466153171875	-0.23382637860937527
O	-0.8613646594374995	-4.8616363631718755	3.3470081933906246
O	-2.1028061964374993	-2.3462441831718754	5.903531093390624
O	-1.5596771404374996	-1.180018033171875	9.482868723390624
O	1.2941854095625005	1.3288809838281248	9.100518243390624
O	0.9586480695625004	3.982058906828125	6.394572483390625
O	-1.5223036744374996	6.905314656828125	5.999978493390625
O	-2.8604702404374995	6.514084396828125	9.530178123390625
O	-6.501229430437499	7.313865976828125	10.307915273390625
O	-6.1752277504375	2.099066706828125	8.702629013390625
O	-6.706141620437499	1.9995207168281248	4.908115503390625
O	-4.3865317104375	0.2663642218281248	2.5107028633906245
O	-5.5556943704375	-3.2529989631718754	1.7394353233906248
O	-5.4192929304375	-4.718814973171876	-1.7483481066093756
O	-5.8622466004375	-8.150181183171874	-3.2955638166093753
O	-9.2367403604375	-8.012607683171874	-5.098005286609375
