21

O	37.87146437161756	-11.016030494015208	-13.288626837605825
O	38.78042667711944	-11.666801715652742	-12.513647530011092
O	39.585588339855164	-12.593509168255437	-13.007290709819998
O	39.612859567683806	-12.831268761466912	-14.232148029985776
O	38.59937823792649	-12.402831515985188	-14.9947708839856
O	37.9496129456376	-11.282505662917922	-14.590945278600667
O	37.10205351990668	-10.76806781836111	-15.299006835397464
O	38.97421435046773	-12.245414211011001	-6.291006014694889
O	39.3978328642677	-10.144499373681377	-6.391156719661796
O	37.44905279968614	-10.700573013465446	-6.605081866235819
O	38.72268189400558	-10.573159293533664	-10.562169031427208
O	39.092053626033724	-12.846563938715992	-10.291558184971507
O	38.80754107447606	-10.378531262544717	-9.242058690554018
O	39.1739954582951	-12.595775908659485	-8.950751840046987
O	39.40976804542422	-14.776339987044064	-14.179855617672265
O	40.3458843875489	-13.862488418301792	-15.056474529357047
O	38.64780356774008	-12.84751673939687	-16.455956158971617
O	39.29263206818268	-14.571669334132512	-15.90702812809193
O	38.671955212546074	-11.818688663302758	-11.060355366076845
O	38.782936196107464	-11.410910372547386	-8.391731608723138
O	38.67269199498541	-11.114613091682473	-6.965894164861837
