71

O	-0.5764634854385966	-0.681023504226316	-7.567552337263159
O	0.48013074456140337	-1.1133013452263159	-6.752520677263158
O	0.24167472456140326	-0.866406280226316	-5.301573657263159
O	-0.7129445844385967	0.12492098187368401	-5.261323397263158
O	-1.6090298444385966	0.720200027773684	-4.467132417263159
O	-1.4477197084385967	0.521271594773684	-3.1075380872631584
O	-0.4724436064385966	-0.612909753226316	-3.0732976872631586
O	-1.4107949844385965	-1.550620285226316	-3.5976347472631582
O	-2.676900015438597	-1.1195543152263159	-4.144750207263158
O	-2.9235891554385964	-0.903920562226316	-5.499728327263158
O	-2.730171995438597	-2.060346335226316	-6.287287887263158
O	-1.8461025754385967	-2.8625741352263163	-5.394316287263159
O	-0.9621430244385967	-3.538945685226316	-6.345839667263158
O	0.19697095456140334	-3.516306555226316	-5.579160127263158
O	-7.984377725438597	9.014863444773685	-10.444885997263158
O	-8.592716735438596	11.726363214773684	-7.819233337263158
O	-2.506242235438597	13.241165214773686	-7.405855187263159
O	8.588252814561404	7.846685494773684	-9.079834247263157
O	5.643524794561403	10.089923414773684	-7.931598507263159
O	7.175878294561404	8.870740494773685	-1.3869993892631585
O	4.110492384561404	8.479430444773685	0.8176333127368416
O	2.0782491445614033	9.684161574773684	2.553000142736842
O	-10.594287105438596	3.966719524773684	-6.657477907263159
O	-11.319840175438596	2.173372724773684	-3.3957138872631583
O	-12.652980175438596	-1.1774666152263158	-2.2207753242631583
O	-10.243162575438596	-4.027117165226316	-1.3992556272631584
O	-10.726770785438596	-6.836170355226316	1.0756815827368418
O	-8.555542275438597	-9.700782605226316	-0.3142527012631583
O	-6.898382915438596	-12.463923485226315	1.6533783027368418
O	-1.6779324354385965	-15.325739685226315	1.2131423927368417
O	-1.4174482994385966	-9.819568205226314	4.508648982736842
O	-2.5223098154385966	-9.515748995226316	0.8531224527368417
O	-5.365419115438597	-6.982674375226316	1.0734196527368418
O	-6.8207011854385975	-3.992117135226316	2.9608683927368413
O	-8.564223975438596	-0.818789399226316	1.7379991627368416
O	-9.381277645438596	2.7409109347736837	2.944985052736842
O	-9.151577495438596	6.386639214773684	1.8009897627368416
O	-7.0894875454385975	2.2902566247736837	6.685735292736842
O	-4.217646265438597	0.456315740773684	5.070626282736841
O	-3.4204284154385967	-3.2136586752263163	5.628104072736841
O	-0.9961214634385966	-4.304206395226316	3.025986452736842
O	1.6568787245614032	-7.002748455226316	3.5375768427368413
O	4.466506564561403	-8.669110785226316	1.5269815327368415
O	7.886414884561404	-9.999699685226314	2.5843347327368416
O	3.5765165045614036	-10.245183785226315	-3.9717067272631583
O	7.202407434561405	-5.023892625226316	-5.031168907263158
O	10.417725224561403	-5.043685465226316	-7.049395077263158
O	12.271302024561404	-4.9464462452263165	-3.6864746872631584
O	9.251719824561404	-5.9134597752263165	-0.2349750872631584
O	6.1654501845614025	-4.5126984552263165	1.5128334327368416
O	4.912420454561403	-3.5418898452263163	4.962342102736841
O	1.7720333845614031	-1.3685514552263158	5.455016922736842
O	-0.12360555543859664	-0.795641263226316	8.689388452736843
O	-1.8044869284385965	2.6584087547736837	8.631235482736843
O	-4.723037135438597	3.331614044773684	10.945983292736843
O	5.797450834561403	3.907502694773684	-1.0948923702631583
O	2.5205494045614034	2.705768454773684	-2.412710667263158
O	0.16977950456140345	5.918533894773684	-2.210337222263158
O	-1.6082453094385967	4.952878444773684	-5.545026637263158
O	0.029116063561403394	4.490041604773684	-8.92638932726316
O	2.5353009845614034	2.913818604773684	-9.657906197263157
O	3.813311434561403	4.309336144773684	-6.359174707263158
O	6.632459284561403	1.7170386347736841	-5.925881787263158
O	9.052786724561404	2.574866974773684	-3.190261067263158
O	8.755507244561404	-0.823381204226316	-1.5683934102631585
O	7.011313994561403	0.021102054073684012	1.7341942627368416
O	8.037995474561404	0.135079628373684	5.363675652736841
O	5.233337484561403	2.2259932747736837	6.755401432736843
O	3.9451302545614033	1.496862984773684	10.212072592736842
O	1.4316105245614033	4.240747064773684	11.163585392736842
O	-3.1831705654385964	11.497210814773684	-1.7573674292631583
