14

O	-0.6756917142059811	5.811790755584436	14.013131938447966
O	-1.4400144693685446	6.380321469904887	15.04275111965345
O	-2.615085782015546	5.548299161726643	15.430064933414686
O	-2.31218650508999	4.278647172048849	14.992019613529193
O	-2.8440223024524194	3.0830987000118286	14.716556759329112
O	-4.095913694683138	2.8338420573939893	15.250157070207806
O	-4.528616888854872	4.2006363127468695	15.678344668771237
O	-4.652723772137617	4.676274077114258	14.33927786627888
O	-4.15100561419811	3.9105418970435624	13.221195461004328
O	-2.9071949173668683	4.103152472461549	12.621899816442417
O	-2.747566543020824	5.399782466732709	12.085010380107043
O	-3.78013554068891	6.150624753738386	12.85480488903611
O	-3.1521211651751813	7.461077822745187	13.035277607802414
O	-3.6432526086020562	7.734894931689819	14.306367439286253
