19

O	33.6454818530809	23.086666172870643	28.091078211904986
O	34.507783879929164	23.599877904608423	29.106660181596855
O	34.02953211042035	23.484321317038788	26.75538338218277
O	34.72910195958994	25.08854141029787	30.806889589408136
O	34.213519497806985	24.609567971742035	26.12462714289967
O	32.69186018738702	23.330283533191867	25.968014297675285
O	32.638517073838464	23.676577278072013	24.679690751358926
O	36.72003908170724	25.34129002320052	31.981368044321208
O	32.621071587502904	21.921187207553643	26.190191388847133
O	33.38799797139255	21.61264159517586	25.083826351013904
O	32.57239289003061	21.21461437137135	27.41753231090041
O	33.356990356817946	21.78142978105918	28.37185102004561
O	32.422898033396294	19.769419816774707	27.646923276566266
O	33.62341985193894	19.082314341630262	27.396204336803212
O	35.8247662707095	23.52670624388996	28.916972498024403
O	36.63913299542495	24.154456255140325	29.81914521594872
O	36.03607792268303	24.73487622118393	30.9068051222101
O	33.89771682593829	24.34172755666121	30.063226280579087
O	32.65649185847517	24.525060385392823	30.103488402783523
