89

O	1.3843623902828575	0.0428109023114287	0.4004451013714284
O	1.9959085602828575	-1.2307357376885715	0.6064743273714284
O	1.9770028302828573	0.7973245505114287	-0.6808464206285716
O	3.3398338502828575	-2.473640167688571	1.9499527073714282
O	3.1646534302828573	1.2448488183114288	-0.9759614966285717
O	1.5806241502828575	2.261479592311429	-0.3172837116285716
O	2.0159876602828573	3.272173552311429	-1.0732590676285716
O	3.9522870502828575	-4.652390197688571	1.4160411873714285
O	0.18086047428285734	2.0074252423114287	-0.4439493314285716
O	0.1605636282828573	2.265537512311429	-1.8005576626285715
O	-0.6219201920171427	1.0745050983114286	0.25832108237142837
O	0.028491015282857357	-0.09645351368857125	0.4894450373714283
O	-2.0758582597171427	0.8648409916114287	0.1830795673714284
O	-2.4349202197171427	0.16764180231142867	-0.9836313466285715
O	2.2531311902828572	-1.9903478176885712	-0.4577644303285716
O	2.9741156602828576	-3.1373394676885713	-0.2686337856285716
O	3.2978883202828575	-3.465670987688571	1.0240133073714284
O	2.4857216002828575	-1.4426339776885715	1.8525576873714282
O	2.3661052002828575	-0.6142797576885712	2.7881818573714283
O	-5.205015389717143	-9.870656597688573	5.363596937371429
O	-2.2199574397171427	-7.062542327688571	8.673599917371428
O	-4.890629289717143	-4.988859487688571	10.437263567371428
O	-3.3959904397171425	-1.7164160176885714	11.661541167371428
O	-6.228025339717143	-0.7370818676885713	14.049116067371429
O	0.5035957802828573	-3.906876177688571	10.666041467371429
O	3.4766063502828577	-2.1024583776885715	9.102470207371429
O	1.9887155902828573	0.8956857263114287	7.3192489373714285
O	-0.3044925477171427	1.6613551733114287	4.3856749173714284
O	-1.4786558007171426	-1.8176361676885715	3.5027644973714285
O	-2.3716983497171427	-2.677066507688571	7.134286217371429
O	-4.071132769717143	0.7081944224114287	7.726697517371429
O	-6.123891429717143	0.32972594331142874	4.528642917371428
O	-7.565138489717143	-2.917110237688571	5.877025657371428
O	-8.561259679717143	-1.0352595776885714	9.06836568737143
O	-10.268991159717142	1.8638441823114287	7.187362297371428
O	8.342538240282858	-5.952532957688571	10.218321967371429
O	8.989808030282857	-5.475701857688571	6.4492594373714285
O	7.214554060282857	-2.699277137688571	4.516480977371429
O	7.238946350282857	-3.284796107688571	0.7314723473714284
O	9.849658710282856	-6.120197667688571	0.8028865573714283
O	9.793295610282858	-9.953691197688572	0.4914015773714284
O	11.694298610282857	-12.276369097688573	2.8514655373714284
O	-7.143238919717143	-11.166723397688571	-1.1002196016285715
O	-5.197850419717143	-8.198519867688573	0.33638608837142836
O	-1.9778448897171428	-8.542461687688572	-1.7283270426285717
O	-0.6203415285171426	-12.068290097688571	-2.4027639826285716
O	-0.06941618771714264	-12.805567897688572	1.2913965273714283
O	-7.060575039717143	-9.948639497688571	-5.794018662628572
O	-5.768109499717143	-6.466265537688571	-4.909590592628572
O	-2.1786713097171426	-5.524211387688571	-5.890078132628572
O	-0.44755355171714273	-2.848744697688571	-3.8045522926285718
O	3.0036704002828576	-2.3658469176885717	-5.417869682628572
O	5.120044810282857	-2.7414772276885717	-8.583330542628572
O	8.511124670282857	-2.8911001676885713	-6.827377342628572
O	11.710190410282857	-6.793064447688571	-4.4060149426285715
O	8.220709320282857	-6.782632697688571	-2.8057161226285716
O	6.769763130282857	-9.584105797688572	-4.962417962628572
O	-7.326760579717143	-4.295925597688571	-9.12096433262857
O	-4.692643979717143	-1.6416951376885713	-8.532746812628572
O	-5.118281009717143	1.0552404223114287	-5.889257292628572
O	-4.999783539717143	4.300288272311429	-7.907827452628571
O	-5.646701559717143	5.147541462311429	-11.567600232628571
O	-1.0000429097171426	2.3251832623114286	-10.734978132628571
O	-3.7976845697171426	0.3206427983114287	-12.36911883262857
O	0.9506409202828573	0.7070123984114287	-15.102263432628572
O	-8.611236879717143	4.184377172311429	-5.918183692628571
O	-7.846362159717143	3.9921258123114285	-2.1861521926285716
O	-9.503392899717143	6.099732542311429	0.5067012273714284
O	-9.463218029717144	6.766820222311429	4.268823187371428
O	5.636968520282857	7.305470322311429	6.494093377371429
O	7.855960610282857	4.196931512311429	6.567424087371428
O	11.755978810282857	5.113958612311429	-3.0065133026285715
O	9.929043810282858	7.506265662311429	-0.6609008276285716
O	8.766888300282856	6.623105832311429	10.372935367371428
O	5.582433010282857	15.868374302311429	1.7527629373714282
O	4.610834340282857	13.246249602311428	-0.8526067606285717
O	8.231927780282858	9.446584972311427	-4.136598042628572
O	6.890656550282857	3.9131026523114283	-7.404720222628572
O	4.157533100282857	4.664978132311429	-4.789126472628571
O	1.0871863502828574	2.6904246323114287	-5.877701712628571
O	-1.3800822107171427	5.078968302311429	-4.178122342628571
O	-0.3602325517171427	6.4712494623114285	-0.8062753656285716
O	-3.0471090197171424	7.124657552311429	1.8832853573714283
O	-1.1351693607171427	9.422840702311428	4.2288606573714285
O	-1.4710522127171428	11.964869302311428	1.3890269473714283
O	-5.288382369717143	11.825266502311427	1.7051592173714285
O	0.022954485282857262	7.355248122311429	-7.0514847326285715
O	-3.1164867597171426	9.090833872311428	-5.820538982628571
O	-10.953424589717143	9.992651562311428	-0.9958832846285717
