61

O	1.7297927681428573	-2.1032346922183676	-1.7477546038163267
O	4.816908808142857	-3.485244882218368	-2.5128088838163265
O	-1.6828446118571425	-3.6753418322183675	-0.6666234018163267
O	3.738447428142858	-2.552250192218368	-3.5240234038163267
O	0.7245288981428575	-2.835782062218368	-1.042598263816327
O	4.493190108142858	-1.3005583422183677	-3.5472329538163265
O	-0.5701937448571425	-3.115803712218368	-1.3715197138163269
O	3.9001913981428578	-3.1783721622183676	-4.846636163816327
O	-0.2693272968571425	-3.1132631622183675	-2.7572064738163267
O	2.137121408142858	-2.2933848922183677	-2.9894586438163264
O	-2.2252627218571424	-3.9854275922183677	0.4870115041836732
O	0.8729369881428575	-2.682547412218368	-3.4941892038163265
O	0.11619883414285753	-0.5522361542183677	13.944976636183673
O	6.429887848142858	10.668035477781633	4.284934906183674
O	7.125524428142858	11.920219477781632	0.7507906071836733
O	0.2936174351428575	1.7991519177816322	-11.874961863816328
O	3.0439068481428575	-0.7341027312183678	-11.229357863816327
O	4.852288048142857	0.19575525348163225	-8.011869783816328
O	2.4967273381428576	2.4642915277816324	-5.990451883816327
O	4.851780398142858	3.303374347781632	-3.1130973438163267
O	7.8824247181428575	1.9237783477816324	-1.337555543816327
O	9.597158988142859	2.4732952477816323	2.0942881261836734
O	7.861085438142858	6.086413667781632	2.9960537361836734
O	7.5886849281428574	7.384323827781632	-0.5319882278163267
O	4.262245128142857	7.539915047781632	-2.4505318638163267
O	4.215544498142858	7.629189247781632	-6.240571533816326
O	-0.9844604648571424	7.4122408077816315	-8.831538683816328
O	-4.279259351857142	9.131252677781632	-8.025181503816327
O	-4.510944301857142	9.145133707781632	-4.229995483816326
O	-12.216882111857142	2.8680186677816324	-3.475875333816327
O	-7.949855681857143	5.649607607781632	-7.5647028638163265
O	-5.464283901857143	4.231158717781632	-5.050429323816327
O	-6.563331071857142	4.409197997781632	-1.413227313816327
O	-3.9110615518571423	6.330302327781632	0.5806542891836732
O	-4.803285401857142	4.662611487781632	3.8919847561836733
O	-4.460143661857142	0.9767143187816323	2.5978731761836733
O	-1.2761721088571425	2.036182327781632	1.1099247291836731
O	0.13239731114285752	3.7295744377816322	4.0311251461836735
O	-0.7610066158571425	0.6952912297816323	6.297744296183673
O	1.4212664181428574	-1.4611667922183678	4.107629956183673
O	4.312174508142857	1.1067896187816322	3.679050016183673
O	4.3872070881428575	1.7547768877816323	7.371785896183673
O	4.639449528142857	-2.0138016422183678	7.890105446183673
O	7.905424418142857	-1.8305976822183678	5.928809476183673
O	8.665253658142857	-7.726212392218368	4.607359696183673
O	5.999270878142858	-9.016304602218367	2.2513284861836733
O	3.5190992581428575	-11.734410622218368	3.1445767161836735
O	2.6739932781428575	-14.645040422218369	0.8434176581836732
O	-3.3366087918571425	-12.675856822218368	-0.028066907816326786
O	-2.5533002618571423	-9.740557612218367	4.444140796183674
O	-1.9984373618571425	-6.055847992218368	4.0501562861836735
O	1.7366381381428575	-6.967355652218369	3.6626905961836735
O	0.8007794681428575	-9.106925782218369	0.5670429741836732
O	2.5165948081428575	-7.568344222218368	-2.4445053738163267
O	-0.7622047028571425	-7.056490762218369	-4.608374103816327
O	-3.1271862818571425	-3.928314952218368	-4.169612543816327
O	-6.541310841857142	-4.7978071122183685	-3.5687773338163264
O	-9.123046091857143	-2.3589767722183677	-2.2871051038163266
O	-10.913787511857143	-3.4833526122183676	0.8605248041836733
O	-13.459467711857142	-1.3934356322183676	2.7695984561836733
O	-10.330587851857143	-2.679457242218368	7.719210116183674
