12

O	45.56347024679196	6.829773146882285	25.35084176578614
O	44.60100221953097	7.642161612179443	24.55665658142764
O	45.2313862971433	8.812721079409766	24.19451115519361
O	43.608128155232336	8.175667325735892	25.59401830677555
O	42.518798836031	7.437136682643628	25.281266682603473
O	44.03059948048424	7.842101985067792	26.96964248441755
O	43.861643808417966	6.584637081459763	27.2534179520653
O	45.76366289582503	5.44984478421496	27.43538521004053
O	46.46934678292728	6.587843641350894	27.887510867910155
O	44.39882042055813	5.042369696556079	25.628564259104806
O	45.29245877454871	4.814807593143178	28.413733505889684
O	44.8450296163904	6.022095439926474	26.33729788158776
