42

O	21.288750578723032	24.235158422090656	8.663349874503805
O	20.270968657001614	24.010326466885378	9.474535131831615
O	22.236101562268782	25.267927492017424	9.701700114914612
O	20.004130650996018	25.01337542304942	10.309200432538887
O	21.000981830927657	25.824020661468477	10.7872752957342
O	20.833314660347227	26.72412490034689	11.918299272372554
O	19.59456633145248	27.229047782886255	12.072816745635997
O	18.813383452956177	26.060835849629353	12.155278702330289
O	18.95619642666272	25.023574477296407	11.186805991420576
O	18.933963547363348	28.690669701924268	12.620275073143697
O	17.420850351105706	28.565147085871285	12.48589362142394
O	19.013471050762035	29.980321168241584	12.002212263070671
O	18.919708858682736	28.547752863671885	14.351913308106052
O	18.041187626535184	29.45907285740673	14.868008243650076
O	17.801995237439034	30.795204054185323	14.918191301467687
O	17.252532982632395	31.683277276807715	15.889922713664257
O	18.55822908812305	31.751224472096574	14.264498413889251
O	20.294387346500443	28.72900410317299	14.683919697843795
O	20.24225935833795	29.980012038704103	15.407751582721085
O	18.605824833514685	33.16146573611418	14.701656020068617
O	19.465437974832515	29.487087524133333	16.5368318648431
O	20.78638561769133	31.095258538827355	15.94929823307313
O	16.57753134695139	32.93189170246547	15.596666796555276
O	20.191327685848915	31.589640175298502	17.125720545901952
O	20.202830796150252	32.89737987372106	17.604898433572096
O	20.853173157432007	33.664311465121635	16.829577215803855
O	18.900472822162467	33.39034120300044	17.752432188508536
O	18.75531645106007	34.74774460288146	17.648629477879084
O	17.47979957438757	35.18042463160186	18.21243149296637
O	18.03091977176757	35.16053313843798	19.511500799522516
O	18.860901535540254	36.39096147905474	19.28821929502257
O	19.181730313021315	36.375572051064786	20.61915583510135
O	20.33627314062631	35.795723594145315	20.884193492520918
O	20.146378810524062	34.576596145559	19.849047467366084
O	19.7704283949649	35.25825863528041	18.592393967943284
O	21.596189727032375	32.05642664131583	15.278366197169149
O	21.48623988237023	30.991140413196856	13.144776471167534
O	22.033270143888124	30.211221080099822	12.1742316405163
O	22.814162962486606	29.171306827659823	12.46979045273595
O	23.331668480216887	29.233107539960645	13.691967019790514
O	22.711618587522853	29.909304734001676	14.708367196444502
O	22.195742748503587	31.134388827612728	14.282436055378152
