78

O	5.27003772858	-0.2913251172000004	-0.4460257448444449
O	6.155071938580001	-0.11585936720000012	0.7904415961555552
O	5.2614462385800005	0.7339278527999997	1.554408650155555
O	4.00552740858	0.4810042927999998	1.031673830155555
O	4.04968775858	0.5441719327999996	-0.3946443088444449
O	3.67623646858	1.7895608407999997	-1.088122531844445
O	5.5797497085800005	2.2138516583	1.357533210155555
O	6.18879185858	-0.19813422720000018	-1.449539489844445
O	6.756256348580001	-1.2329163572000001	1.278485040155555
O	2.5887328185800005	2.4755990438	-1.420431489844445
O	4.7530840885800005	3.1177222157999998	1.821910670155555
O	6.459252198580001	3.2553172127999996	1.487526360155555
O	6.2203248685800006	4.6135449128	0.8059356281555552
O	4.87295424858	4.2464778328	0.7917491401555552
O	6.831452688580001	5.9600008128	1.178607130155555
O	2.3120414485800005	3.5173277628	-2.5666297998444447
O	2.0528904055800004	4.8182495828	-2.3558962598444446
O	2.5499581785800003	5.7913348928	-1.475070669844445
O	3.6817754685800006	6.6579207828	-1.941642589844445
O	4.70993985858	5.6979267228	-1.884091879844445
O	5.97372667858	6.3381473928	-2.088369769844445
O	5.967185078580001	7.6978438127999995	-2.4225902498444447
O	5.194887688580001	8.6168000028	-1.657503929844445
O	3.98443326858	7.9309119928	-1.425124859844445
O	5.46924242858	10.0343345528	-1.644089629844445
O	4.65935062858	4.4039815128	-2.337929709844445
O	7.00762858858	5.4190529627999995	-2.307621159844445
O	2.4401775285800005	5.416009712799999	-0.3047810258444449
O	7.922684638580001	6.2810374728	0.36461334415555513
O	7.42590848858	6.2445350628	2.361095620155555
O	5.98033861858	6.987320812799999	0.9156914001555551
O	6.4919130785800006	10.6082318428	-0.8357454428444449
O	5.42621203858	10.9187631828	-2.5640095598444446
O	15.48170042858	-3.6850633672000006	-8.728627579844446
O	10.09372032858	-4.2665759972	-8.683013969844446
O	5.74270506858	2.9437661727999997	-9.766272559844445
O	3.23318788858	3.5832569627999997	-6.801818969844445
O	0.6970290615800003	1.2338228897999997	-7.599764279844445
O	-2.62433492142	2.8888311518	-7.074193249844445
O	-2.5224966114199994	3.4547852927999996	-10.708311529844446
O	-6.874294561419999	-7.328134947200001	4.562146700155555
O	-4.5403426714199995	-5.129574257200001	2.5788748301555553
O	-1.9995831114199996	-2.9627501272000005	4.430072680155555
O	0.6580921015800003	-2.3663832972000005	2.054354150155555
O	1.4064572235800004	-4.8285920372	-0.7082760348444448
O	4.20071218858	-3.3259476072000007	-2.5621364198444447
O	4.43492006858	-5.2962760272	-5.874567859844444
O	1.0817352374800002	-6.6045787972	-5.483889979844445
O	-0.8643706514199998	-4.4842682572	-8.062117559844445
O	-3.6955272414199998	-3.7085054372000004	-5.722155959844445
O	-3.5724066914199994	-7.4243278572	-4.479391479844445
O	-4.14683304142	-11.211453327200001	3.5762121801555553
O	-1.6080923914199998	-8.5631367272	2.6340317901555554
O	0.9828014655800003	-6.8495176372	5.010713660155555
O	4.297786668580001	-5.557685617200001	3.7591868401555555
O	7.066421308580001	-4.694489267200001	6.150919980155555
O	9.62018704858	-4.997278537200001	3.3585813101555555
O	8.24704061858	-6.7014290572	-1.608420489844445
O	6.24156122858	-7.6718638372	9.299719600155555
O	5.574991558580001	-4.3520913472	10.899776270155554
O	-7.483747231419999	-1.6517672272000001	1.641966910155555
O	-5.2337976914199995	0.9205960527999997	3.1902361701555555
O	-2.2941024514199997	1.9265244627999998	1.137516110155555
O	0.5069468205800003	1.6293228007999998	3.6151491301555554
O	1.5858959235800003	4.1320984628	6.1154373001555555
O	-0.5846868614199998	7.2428771128	5.928250070155555
O	-0.10368247141999976	7.8258796427999995	9.669516610155554
O	-0.9268604414199999	4.1740235328	10.296196070155554
O	-4.37467825142	4.2385777028	8.599824130155554
O	-6.09853945142	5.4213037928	11.797709470155555
O	-8.20802034142	4.0964080928	1.508983300155555
O	-5.79969373142	5.4017137027999995	-1.046291002844445
O	-4.157622101419999	8.7890326328	-1.044846940844445
O	-6.692814051419999	10.5890456128	1.0834385701555551
O	-0.3779803814199998	12.672321072799999	0.3726333121555552
O	-4.79406140142	11.8877667628	-9.693528079844446
O	-1.6424060614199998	10.7414579428	-8.001342129844446
O	0.06708257858000022	7.868278742799999	-9.622481069844445
