73

O	-9.452481872046512	4.035646057611627	-0.26421305239534837
O	-8.23439791204651	2.805858247611628	-0.10173594339534842
O	-8.418155202046512	1.5001819886116277	-0.4589352443953484
O	-7.334037872046512	0.6598583146116277	-0.5033413123953483
O	-6.981935392046512	3.1894482876116275	0.28423013060465174
O	-5.925351622046511	2.3243692176116277	0.03649228660465165
O	-6.087765632046512	1.2298504287116276	-0.8396442522953483
O	-5.020557342046512	0.24932093461162774	-0.7760705888953484
O	-4.124177802046511	-9.486238837230765e-05	-1.6546605553953484
O	-4.795399582046512	-0.3041062523883722	0.5585780906046516
O	-3.5457295920465115	-0.6107296223883723	1.1311028106046517
O	-3.5174878020465115	-0.8870952623883721	2.421953400604652
O	-4.8894124320465115	-1.278360592388372	2.793960110604652
O	-6.027134342046511	-0.6052475623883722	2.518665540604651
O	-7.212550262046512	-1.2293470323883724	2.9575043006046515
O	-8.40118208204651	-0.5257068823883722	2.601975100604651
O	-6.022950112046511	-0.3487379623883722	1.1507791106046517
O	-2.2649512230465114	-0.8493346523883722	0.5096022706046517
O	-1.9872134560465116	-1.1513749823883723	-0.7872078850953483
O	-0.7322981920465115	-0.8805047323883721	-1.1496483813953484
O	-0.14729157204651155	-0.39266452238837224	-0.08353349039534841
O	-1.0513838820465116	-0.5271396123883723	0.9235974406046517
O	-0.9012072920465115	0.0013118576116277758	2.2009517106046514
O	-3.0965992500465114	-0.9530394623883722	-1.5523824983953483
O	-3.9485167420465115	-2.2116120523883724	-1.3102286123953484
O	-4.1547764220465115	-2.031123742388372	-2.7533315093953483
O	-5.456246502046511	-1.9819365323883724	-2.9260793993953484
O	-3.8579089020465114	-1.0345231223883722	-3.785126249395349
O	-3.2008378620465114	-1.7317747023883723	-4.830448789395349
O	-1.7921942550465115	-1.9888641723883722	-4.303447689395348
O	-6.548183522046512	10.274204577611627	8.614614650604652
O	-4.5915747920465115	8.501280547611628	5.836864840604651
O	-2.2937269080465117	6.550896587611628	8.202370540604653
O	-4.341946922046511	3.321333017611628	8.522271330604653
O	-3.2999144570465115	1.5483329946116278	5.420331420604652
O	0.4284556379534883	2.013400280611628	6.455024420604651
O	0.06974377795348863	1.0009790146116277	10.137763630604653
O	0.8994788379534886	-2.7067861023883726	9.532361330604653
O	2.4133288879534884	-4.907753952388372	6.784104520604651
O	0.37932933795348855	-5.1422494723883725	3.465589850604651
O	-1.8808440250465115	-8.193043182388372	4.144802670604651
O	-1.9669778500465116	-9.640571932388372	0.6508313506046517
O	-4.317603972046512	-12.452700732388372	1.7786271106046516
O	-7.112144262046511	-10.279748632388372	3.2221661106046513
O	-6.697465862046512	-7.6009153223883725	0.5131013406046516
O	-6.662053712046512	-10.347744532388372	-2.2160047493953483
O	-3.3371977810465117	-9.140393732388372	-3.7034016393953486
O	-1.6335200230465117	-12.366809432388372	-4.650434619395348
O	0.9590460679534885	-10.503617732388372	-6.787695529395348
O	1.9206842779534883	-7.888942092388373	-4.145588629395348
O	4.979550757953488	-9.755829432388373	-2.793853859395348
O	7.509766387953488	-5.861911722388372	-3.722085949395348
O	5.313370077953489	-0.15879791238837226	6.9054419706046515
O	4.884933277953489	2.1857232176116277	9.891887130604653
O	11.044675957953487	2.260129707611628	1.1631713206046517
O	7.456004417953488	2.3308764376116278	2.4506822006046516
O	6.478555367953489	5.224530277611628	0.17481201460465168
O	8.341417557953488	3.7762922676116277	-2.815734519395348
O	6.633497327953488	0.39062524861162773	-2.4677364793953487
O	3.2236236979534887	2.0831208116116278	-2.5161298093953484
O	4.202370667953488	4.061932937611628	-5.689666459395348
O	2.922751787953488	-1.3272864323883724	-6.765744829395349
O	0.15743206795348863	1.1885029483116278	-7.583090969395348
O	-1.1238105320465115	3.356975717611628	-10.420363149395348
O	-0.6590956320465116	7.094841917611627	-10.531865749395347
O	-3.6650048520465113	8.927978817611628	-9.101896849395347
O	-4.9445395320465115	5.972637037611627	-7.109217139395349
O	-6.412792672046511	6.925475037611627	-3.6888080093953484
O	-3.6331179320465115	5.023464327611627	-1.9036826193953484
O	-1.0074614820465115	6.901666257611628	-3.816027969395348
O	-2.5843246570465115	10.257944347611627	-2.833864569395349
O	-2.5887919470465115	9.020319397611628	0.7905606706046517
O	1.0840771479534883	8.081638617611627	0.6055136706046516
