50

O	-5.79842816531208	5.134685398590291	7.62083283555236
O	-6.154059394546019	3.8245449267672553	7.5062691928613905
O	-7.83370224436889	4.061680086602202	7.190614563595581
O	-7.760624602480666	5.541808842895079	6.376506739713372
O	-6.563765837724642	5.904693530616442	6.825385058626091
O	-5.109528027378865	2.8367226941433152	7.585451435377428
O	-3.8970007274540053	3.149525525499097	7.620696029220548
O	-2.7609312642780224	2.558760620850212	7.239383978743107
O	-2.304342573217981	2.240934300917359	6.16114582205077
O	-1.576421826960739	3.1705628739832923	7.7916686769749814
O	-0.9993760664879605	2.3918298501366406	8.761499725327445
O	0.1680033766475822	3.1774726956400703	9.111085943153146
O	0.1978263674913654	3.768998187836595	10.463498293229728
O	-1.308980247135352	3.6888474629427837	10.871648371541804
O	-1.4073509318166058	1.0315129832184944	8.500893947683725
O	-2.82567218824416	0.5433063749089997	8.234145310352309
O	-2.9878988862253175	-0.5657468299108284	9.075575479936502
O	-3.8996935500983496	-1.5599641415018115	9.08516359653658
O	-4.9461512050394845	-1.3795892539572105	8.229975954012192
O	-4.754444922064263	-0.4359075978667879	7.285148549230741
O	-3.5220951922210486	0.053347267075452454	7.132534638528795
O	0.5538283720875885	4.342640070383975	8.574793207193881
O	-2.4028676823770923	2.9386880912349977	10.246608428578236
O	-3.60709090190868	2.3879666127743926	10.60459787167855
O	-4.8815085109957135	2.908632403263918	10.400280561878603
O	-6.063448682958208	2.189727697527472	10.267689595025663
O	-5.920727102978505	0.8491678832039333	10.198958696257042
O	-4.992642610748375	0.42938423477845733	11.148216251567273
O	-3.815542168478435	1.124840659526034	11.15588727662682
O	-1.5626157081494163	4.910569314518993	10.197641970034024
O	-2.1225000489850987	5.9411879226900535	8.260141748761592
O	-1.1888998273287439	6.89019593638173	8.91214345557533
O	-0.8626863677921008	6.101513108971321	10.068615990183755
O	0.05306483213638313	6.337029245274806	10.81301201686082
O	-0.14674780469569915	7.427954727606	8.057797080272659
O	0.8449496697102905	8.103685717356814	8.958462786957853
O	-0.9218363060773791	8.23806888598404	7.093124527790804
O	-2.047722465166794	5.70550800197603	6.994361550277587
O	-3.220561631432921	5.45508396196664	6.40401117355588
O	-3.6883053153595284	4.78196713381903	5.278127490264002
O	-0.959871127493207	5.648745091037366	6.508306120967626
O	-4.5643401807050505	3.708363586454296	4.821324645203154
O	-5.613313286051747	4.363326151144533	4.275272489149615
O	-6.587607629078622	3.0757943452878096	4.125302169257397
O	-5.844246719339324	1.7588271054260696	4.953447927389392
O	-4.750060361777276	2.384986002714524	4.954406615647967
O	-6.980266916476591	0.9801405968407932	5.450909966471011
O	-7.472791325668718	1.0104389292521128	6.788875338360038
O	-8.348571721250234	1.4842423805844929	4.957209195120324
O	-3.8607376814874788	6.822111840345389	6.265478017797832
