69

O	-0.7777749337977268	-2.595594750681818	1.955315192113635
O	0.13473430220227317	-2.350005200681818	2.9968615621136347
O	-0.7814005327977268	-1.4854466406818179	1.2040392241136348
O	-0.6009310347977268	0.41849676511818196	3.9596512121136347
O	-0.49119175779772684	1.716149159318182	2.585621272113635
O	1.3925779942022731	-2.1016295506818183	2.442296212113635
O	0.34957854420227324	-0.758415380681818	0.8534886405136349
O	-1.8336327157977268	-0.051960623681818086	3.623301282113635
O	-1.6061885957977269	1.282534203318182	1.931809182113635
O	3.4886591742022732	-0.06322252668181805	2.605345562113635
O	0.3729544312022732	1.305703372318182	3.6353689521136348
O	2.8877855642022734	0.558644682218182	3.695490882113635
O	1.3155775242022731	-0.950353380681818	1.6344187521136349
O	-2.2711938457977268	0.27711180731818197	2.436320582113635
O	1.8397523542022733	1.3744996153181819	3.395877842113635
O	4.151475424202274	2.229486139318182	4.379928872113634
O	6.085167834202274	1.254041453318182	4.844975532113635
O	3.993445364202273	0.7447882593181819	4.433075792113635
O	2.0507534242022736	1.058472907318182	2.029756242113635
O	2.5474107542022733	-0.1676783756818181	1.7418623831136348
O	5.326639634202273	2.393519329318182	5.141464662113635
O	5.349751204202273	0.48502019111818195	3.999204552113635
O	3.086344954202273	2.814647769318182	4.659501192113635
O	7.355677004202273	1.306520799318182	4.791866092113635
O	-3.4612264757977265	-0.07512787368181806	1.9716093621136348
O	1.897827794202273	0.15781270931818192	-9.995451577886366
O	3.6669314242022732	-2.488045300681818	-12.097825877886365
O	9.731088814202273	3.417083119318182	-9.532027877886366
O	8.963305644202272	2.209336209318182	-6.029831417886365
O	11.314878214202272	4.668648299318182	-4.403302747886365
O	9.178702024202272	7.4279484493181815	-5.846831067886365
O	5.799943304202273	5.715580449318182	-5.4792968178863655
O	6.689557084202273	4.909962689318182	-2.0349929478863653
O	4.708798204202274	3.946687769318182	1.026943630113635
O	3.1032889842022735	7.387386489318182	1.693109675113635
O	2.0087596242022734	7.4407558293181815	-1.8748153878863651
O	0.3565690072022732	4.028608689318182	-1.635187607886365
O	-1.4208552557977268	5.143697879318182	1.538942966113635
O	-2.5577574957977265	8.189146969318182	-0.20970418788636502
O	-3.9078302157977265	6.244182309318182	-3.1403690878863655
O	-5.783241705797726	3.875907249318182	-0.886242127886365
O	-7.097777195797726	6.659257839318182	1.188816472113635
O	-11.547079485797727	4.386085769318182	0.33824781611363486
O	-7.537278835797727	-3.561235760681818	-4.2238665778863655
O	-5.596462185797726	-3.028955430681818	-1.1316412778863651
O	-3.7254520657977266	-6.216251680681818	-1.895750637886365
O	-3.0513959357977267	-5.082802960681819	-5.485096527886365
O	-1.719172405797727	-1.838044530681818	-4.154734467886365
O	0.44134264520227323	-3.783557790681818	-1.6927028378863649
O	2.161594744202273	-5.9764246306818185	-4.138841347886365
O	2.5937800942022733	-3.1199804106818183	-6.613606577886365
O	0.07107539420227321	-4.818495050681818	-8.981249067886365
O	0.44401566220227323	-8.565465860681817	-8.583371587886365
O	-0.4261018396977268	-10.357555780681817	4.580690062113635
O	1.6942604342022733	-9.096211920681817	1.689845070113635
O	5.455051484202273	-8.730214620681817	2.180788062113635
O	6.082640564202273	-5.440628980681818	3.7304105021136347
O	2.5604165542022734	-4.902913600681818	4.819232762113635
O	1.437291074202273	-3.0379498306818182	8.010331032113635
O	-0.8219717987977269	-5.029613610681818	10.287690612113636
O	-3.282867425797727	-2.177536580681818	10.338625612113635
O	-3.6208421657977268	-2.3180484406818183	6.554028622113635
O	-3.9708151757977266	-6.140684160681818	6.667739122113635
O	-6.607473125797727	-5.766736820681818	9.324696542113635
O	-8.500239005797727	-3.636325780681818	6.884020222113635
O	-6.730103325797726	5.322377219318182	6.154049652113635
O	-2.7327771957977265	6.127158099318182	8.871498732113634
O	-2.0563690357977267	8.635198749318183	6.0820124221136345
O	2.3327441042022734	9.220856749318182	8.105020052113634
