14

O	-6.6486184193544995	-29.407067905998392	9.281944462211673
O	-5.16515081732748	-31.659811465360363	9.607281686602512
O	-2.9568381971533695	-29.765378584052762	4.775782452982146
O	-2.106807765864657	-30.720792520368562	9.065065295962755
O	-1.2814222928605439	-29.397678876673197	7.677899190302515
O	-4.85412343497344	-29.147217687772347	6.071771207319511
O	-4.070496215292551	-31.34436712788337	7.181075121111722
O	-6.082506764794988	-28.819332835677688	8.198235951350211
O	-5.968237893042398	-31.374619610962423	8.523910430305104
O	-1.9550625599486384	-30.396495106992827	7.688308603351632
O	-3.488730998140089	-29.495408530817507	6.093869541100096
O	-5.490679253110682	-29.513710471213557	7.215197094060237
O	-5.341404839186122	-30.837490405357613	7.443418122306833
O	-3.1277271015760775	-30.418599691044108	6.881587097208026
