82

O	-3.346630404692188	-0.7447019271250002	-2.8834700370781245
O	-1.5393957156921878	-1.3767357671250002	-3.6312573770781245
O	-2.824537884692188	-1.4782287071250002	-3.8374529770781245
O	-4.783304304692187	-3.096616737125	-3.7859936570781247
O	-1.316415101692188	-0.2108069651250002	-3.0529858570781245
O	-0.22461878169218785	0.4659497238749998	-2.6344383170781245
O	-0.33356096969218785	1.1362633918749998	-1.3692987420781244
O	-0.9227098426921878	-1.0277617271250001	-0.3488113770781245
O	-1.4150449266921878	0.8789020198749997	-0.41890720107812446
O	-2.573441084692188	0.5429694915749997	-0.9806945190781244
O	-2.401108284692188	-0.1369814531250002	-2.1826712470781247
O	-3.499955314692188	-2.584907497125	-4.328728047078124
O	0.7202972753078121	1.0396107428749999	-0.5412892779781244
O	1.631381335307812	1.6909700528749998	-1.0072475100781244
O	-0.03610879469218786	0.03965302087499978	0.19698653592187554
O	-1.7097322146921878	-2.161938907125	-1.0130670560781245
O	-3.0516762946921876	-2.780036777125	-0.9730369060781245
O	-1.6801905606921879	-0.2177296861250002	0.5080258129218754
O	-7.352677254692187	-11.798317567125	4.576852962921875
O	-8.525755834692188	-8.210771267124999	4.919055242921876
O	-10.503697114692187	-7.055479527125001	7.961833982921876
O	-4.905153614692187	-7.056544727125001	7.9209709129218755
O	-6.836278124692187	-4.278931647125001	9.597208802921875
O	-7.639081004692187	-0.9710623471250002	7.767699702921876
O	-0.9933611447921878	-6.094915857125001	10.377425402921876
O	-2.4484466046921876	-2.595975487125	10.210298402921875
O	-2.0834557546921877	-0.4214055171250002	7.0921689829218755
O	-1.0074768912921879	3.117247362875	7.623554152921875
O	-4.139518224692187	4.683716292874999	6.264602942921876
O	-2.9499882546921876	7.055714262874999	3.5270609029218756
O	-3.866621044692188	4.884193172874999	0.5635726929218755
O	-7.5029067046921885	4.675910822874999	1.6424447529218753
O	-7.6257883846921874	8.381959042875	2.6548114029218755
O	-6.5838305046921874	9.368702172875	-0.7955767540781244
O	-8.947623874692187	6.9807565528749995	-2.5099762770781244
O	-11.991607174692188	7.015699712875	-0.20231937207812445
O	-12.278594774692188	10.362755292875	1.5913039729218754
O	-3.066684024692188	14.746937632875001	5.338296672921875
O	-0.8327789836921878	6.954008892875	11.989003502921875
O	2.791472235307812	-1.4568983371250004	12.022168002921875
O	3.1654076153078123	0.06401850887499971	8.547493952921876
O	5.0848458953078115	3.3035950128749993	8.102130032921876
O	2.9419313053078118	6.218037042874999	6.927801012921876
O	3.6210718453078123	6.683102872875	3.2421671429218755
O	2.3069764153078123	8.206502922875	0.05134677992187553
O	1.292860315307812	5.672579092875	-2.5526750070781246
O	2.273480845307812	7.574626722874999	-5.777601177078124
O	-0.49834506069218787	7.615282152874999	-8.418822557078125
O	0.02379632530781217	5.775591292874999	-11.690899797078124
O	1.132068845307812	6.970186472875	-14.099905097078125
O	3.609394655307812	9.439211012875	-12.601393797078124
O	7.506103685307812	10.167283022875	-8.556942077078125
O	7.663292915307812	-2.1910803271250003	8.158501612921876
O	8.950415225307813	0.4996065078749998	5.802454882921875
O	7.438727705307812	1.0593874548749997	2.3412276129218754
O	9.395181825307812	1.454126647875	-0.8610174560781245
O	7.980275705307813	3.9511880728749995	-3.4125154270781244
O	9.396236025307813	5.305929882875	-6.647114707078124
O	6.667323525307813	4.389124252875	-9.148031027078124
O	9.937740425307812	-3.9123095971250006	3.6585489529218753
O	6.8941642253078115	-3.4100306671250005	1.4239568829218756
O	6.909115835307812	-2.7307940371250004	-2.2576171570781245
O	4.4711403953078115	0.1639101718749998	-2.3503147170781244
O	3.0694806353078126	1.9601821228749998	-5.3382765670781245
O	2.0465788753078122	-1.1323469571250002	-7.355124857078125
O	-1.262723602692188	-2.725090167125	-8.231681897078124
O	-2.425797284692188	0.7821297438749998	-8.907918067078125
O	-3.306923854692188	0.42897328087499975	-12.582977797078124
O	15.444003625307813	-4.675042127125001	-0.3532541860781245
O	5.427727585307812	-7.404272987125	1.3344556129218756
O	3.485448225307812	-6.5860052671250005	-1.7923636170781245
O	0.3776262653078122	-4.810168037125001	-0.7244372310781244
O	-2.934247834692188	-4.921762967125001	-2.4210127370781245
O	-2.0089069886921878	-8.002262667124999	-4.509465077078124
O	-3.789761894692188	-9.942329567125	-5.847545877078125
O	-0.2280066206921879	-12.253565367124999	-9.511915417078125
O	0.7193046253078121	-13.921232967125	-6.215421047078125
O	5.296446245307813	-12.147809467124999	-7.162721957078125
O	0.26549477530781207	-10.353844767125	0.39309839992187556
O	-3.0960792646921877	-8.807621897125	1.1496467929218754
O	-6.098635404692187	-8.263922537125	-1.0470277160781245
O	-9.854381544692188	-7.780380827125	-0.8892966150781245
