73

O	-1.5913306625349122	0.35719628038596407	1.6098470471052633
O	-1.8800821875349123	-0.658531460614036	2.5039674071052636
O	-1.3713744225349123	-1.891994480614036	2.2958464071052633
O	0.7573235724650879	-3.0284717206140357	1.4527213971052633
O	2.1035008024650876	-2.888196520614036	1.2872951571052633
O	0.4515375024650877	-4.096814290614036	2.2290948671052635
O	-1.3916714325349122	1.633081879385964	2.0618032171052634
O	-1.2169495495349123	1.853309229385964	3.3906923171052634
O	-2.055766487534912	-0.30701091861403584	3.8093374171052634
O	-1.6242027085349122	0.9378164613859641	4.361026857105263
O	-0.10242932853491227	2.594103569385964	3.933462577105263
O	-1.1765868125349122	-0.1410402316140359	0.3696127491052633
O	-0.5787485812349122	-1.423319950614036	0.2792505491052633
O	-0.24048419353491224	-1.9827025706140358	1.4767378571052634
O	2.882799912465088	-3.1089949106140358	2.4167156771052634
O	1.6737277624650875	-3.6804565606140356	3.497393897105263
O	10.121588982465088	-1.1156098006140358	9.667486847105263
O	9.930900582465087	-2.182070360614036	5.983496017105263
O	9.008109472465089	1.165672208385964	4.364824627105263
O	12.795792682465088	-0.744541230614036	-6.005738752894737
O	9.362175382465088	0.7137366963859642	-5.299253992894737
O	7.667521422465088	1.499010109385964	-2.0039047128947365
O	6.684375832465087	5.1531100493859645	-1.6379349328947366
O	3.1506279224650875	5.189200319385964	-0.2668469188947367
O	1.1048515224650877	8.374569649385965	0.2149911961052633
O	-1.6866235275349122	6.1494444993859645	1.5694588671052634
O	-2.752637377534912	4.469614749385964	-1.7345167128947367
O	-3.0997737775349123	5.277003529385964	-5.4304853428947375
O	-1.9821383075349122	2.307089639385964	-7.529488272894737
O	1.7324950724650878	-1.945390670614036	-8.898797332894738
O	5.607070972465087	-7.788703410614035	-8.769715142894738
O	-8.195214567534912	-7.580375600614035	-7.079727352894737
O	-7.052776637534913	-5.677031390614036	-3.9594319328947365
O	-7.964430407534913	-7.142319020614036	-0.5808053728947368
O	-6.767374457534912	-5.538875230614036	2.6292644771052633
O	-7.585591997534912	-6.405736560614036	6.286164537105263
O	-4.807410937534913	-9.020777260614036	6.462595397105263
O	-4.246935317534912	-10.338259210614035	2.8884082671052633
O	-4.392121077534912	-9.305498640614037	-0.7883276318947368
O	-2.661872427534912	-8.485381190614035	-4.064253942894737
O	-3.9418392475349124	-9.338171010614037	-7.567152752894737
O	-0.6679075871449123	-13.189107310614036	-6.999633352894737
O	-0.2963297785349122	-11.807197910614036	-3.4896406428947366
O	-0.7043378164349122	-12.757544910614035	0.1584039931052633
O	0.8344370324650877	-10.845067710614035	3.0286436471052633
O	1.7605304424650878	-8.110765870614037	0.5608409051052633
O	5.4484831024650875	-8.326346030614037	-0.0839530258947367
O	11.410063882465087	-3.641447060614036	-2.7369745628947366
O	9.230607462465088	-5.326987410614036	-5.372273442894737
O	6.459607622465088	-2.804736300614036	-5.999153872894737
O	4.401760552465087	0.0639012863859641	-4.6739355228947375
O	4.036673212465088	3.700498529385964	-5.859204952894737
O	0.6162079124650878	4.898346709385964	-4.588402062894737
O	0.8789928724650878	8.715091499385965	-4.395552322894737
O	-2.7188527875349124	9.501508819385965	-3.2806656528947364
O	-9.203155577534913	5.284936149385964	-3.8328638628947367
O	-7.4953438575349125	3.710917839385964	-6.860136922894737
O	-8.451515157534912	0.12533407138596409	-7.605780532894737
O	-10.677042217534913	-0.863855150614036	-9.208333222894737
O	-12.087979617534913	2.677400539385964	-9.691403182894737
O	-4.526423357534912	11.171508889385963	6.960519707105263
O	-0.8403470185349122	11.628331889385963	6.152355967105263
O	0.7456660124650877	8.364077239385963	5.200181567105263
O	4.295501652465088	7.376893129385964	4.337631397105263
O	3.3183976024650876	3.702157029385964	4.101666957105263
O	2.5219566024650875	3.351649649385964	7.863215667105263
O	4.985873102465088	3.169428929385964	10.648074177105263
O	2.7800576624650875	4.120797249385964	13.624669677105263
O	-9.932355647534912	3.748913309385964	10.058881677105262
O	-5.973117467534912	8.963850139385965	12.575102777105263
O	-2.930667557534912	7.872579109385964	10.562350577105263
O	0.04035303246508781	10.193115849385965	10.621596077105263
O	2.711435902465088	7.642106949385964	9.773463237105263
