71

O	-1.7578338485283016	0.23035150681132033	1.7802902670754719
O	-3.6892269425283013	0.3512309058113203	-4.710724572924528
O	-2.287318762528302	-1.4225857841886798	-4.801343042924528
O	-2.701249842528302	-0.7098687241886796	-2.6408239229245285
O	-1.2949632315283017	-0.8912309641886798	-0.6315370519245282
O	-1.5530388965283017	-1.0462435041886795	-1.9779563629245285
O	-1.9759713475283016	0.055257409811320324	0.06611164507547174
O	-3.540330712528302	-0.059680744188679746	-1.7133968869245284
O	-3.2182513325283013	0.28791009481132035	-0.4346823719245283
O	-2.9511921625283017	-0.6823835641886797	-4.051256522924528
O	-3.495382192528302	2.34113611581132	-7.610540102924529
O	-4.553478632528302	0.47855085781132034	-7.098917762924529
O	-2.4642889025283017	0.4328402698113203	-7.741765422924528
O	-2.901069532528302	1.2899252008113202	-5.528764382924528
O	-0.8389706405283017	-0.8038174341886797	2.2769057870754716
O	-3.3580175225283018	1.1336826846113204	-6.911853622924529
O	-3.213839882528302	0.1754874018113204	2.680035177075472
O	-1.0237549545283018	1.4283916118113202	2.235123327075472
O	-14.998708262528302	4.24973871581132	0.7446901170754717
O	-11.445890162528302	9.654555475811321	4.427635057075471
O	-2.4523018525283016	14.42313608581132	-2.5581808829245283
O	-4.600763392528302	13.446748985811322	0.46144062707547173
O	0.014312877471698293	7.80833842581132	5.9307622770754715
O	-0.8620566755283017	6.47116420581132	8.426901537075473
O	-12.219196462528302	-5.82851981418868	-3.515913272924528
O	-14.970410862528302	-3.9126193241886797	-1.6961460619245283
O	-12.575129862528302	-2.2426933341886794	0.7571347370754716
O	-10.701163052528301	-5.15622306418868	2.279857467075472
O	-9.622949412528301	-8.627997194188678	1.1690681270754717
O	-6.2814481125283015	-9.19353441418868	-0.4891775549245283
O	-4.273352292528302	-12.44035761418868	-0.3749229049245283
O	-2.326278072528302	-12.25388081418868	-3.6606814629245283
O	2.632903227471698	-8.89778469418868	-4.048269782924528
O	-0.27597848552830173	-9.067144514188678	-1.5536108429245283
O	-1.3335040395283018	-8.71354813418868	2.0456227170754717
O	-4.566273552528302	-7.32062332418868	3.5214851170754717
O	-5.8676314225283015	-5.96537198418868	6.812638477075471
O	-1.9147194785283017	-6.25589968418868	8.667006187075472
O	-0.12578963252830166	-4.76769992418868	5.645623097075472
O	2.3330424574716986	-6.95807331418868	3.6888143570754717
O	2.8432130174716983	-4.99850529418868	0.4470190970754716
O	6.1086934574716985	-5.26050047418868	-1.5098309969245283
O	7.502311377471699	-3.49028760418868	-4.604378192924528
O	10.999058637471698	-2.48213441418868	-5.580846162924528
O	4.158125697471698	-2.7713041441886794	-9.637650832924528
O	2.425849917471698	-0.06158034418867975	-11.654318642924528
O	6.894988327471699	1.1935268798113203	-8.722189662924528
O	3.902948747471698	3.0868739458113206	-7.2745972329245285
O	5.043709867471699	6.15583963581132	-9.317543112924527
O	8.379829487471698	6.32149300581132	-7.445980092924529
O	8.657859017471699	2.1559762558113205	-5.0519699229245285
O	6.922346587471699	0.17341391381132032	-2.231427022924528
O	7.733509877471699	-1.1509863541886796	1.1805035970754716
O	4.791981537471698	-2.00756110418868	3.3842023070754714
O	5.352998807471699	-4.08769744418868	6.478596317075471
O	2.7010963474716982	-3.16365730418868	9.037102827075472
O	2.011176697471698	6.90024695581132	1.3172600470754716
O	-0.6744650995283017	4.46769723581132	0.28704774707547165
O	-3.427280122528302	4.63307017581132	2.9128278370754717
O	-6.247883542528301	4.267829495811321	0.3167673070754716
O	-6.862147382528302	6.26979335581132	-2.843877142924528
O	-4.897303532528301	7.1463865058113205	-4.891217872924528
O	-2.813818952528302	7.86043630581132	-1.8084684909245283
O	0.43919138747169817	7.8450424658113205	-3.767405972924528
O	3.5627827374716983	8.938777455811321	-1.8719587029245282
O	5.575198337471699	5.87736859581132	-2.756834952924528
O	5.916265137471698	3.84792989581132	0.4632077570754717
O	8.721386027471699	3.14539338581132	2.864129657075472
O	6.723626727471698	2.1542894358113203	5.958061827075471
O	8.138098707471698	-0.47938590418867966	8.282731697075473
O	5.849938687471698	-0.9394952641886796	11.359259857075472
