50

O	2.381709114875001	1.125453430375	5.2697709265575
O	3.228981294875	0.2087938353749999	5.8857069865575005
O	1.7802968948750004	1.839034233375	6.0671054065575
O	1.7543048948750004	0.7799832903749999	4.0340774465575
O	2.2621306148750007	-0.22157760562500006	3.2696122965575
O	1.9975022648750007	-0.1316299876250001	1.8869276335575
O	0.6766803648750006	0.2666745413749999	1.6156091865575002
O	0.46392533487500054	1.521566043375	2.1145756305575
O	0.8418017048750006	1.6170971333749997	3.4753631765575
O	3.4528193148750006	-0.7869263066250002	3.7639709665575003
O	-0.12526628612499946	-10.633699966625	0.19539901655750014
O	-10.247031755124999	-8.588871306625	8.8613626665575
O	-4.874778295124999	-7.137840796625	-9.7552890634425
O	-3.214956295124999	-9.271083946625001	-7.0977103334425005
O	-1.6178467291249994	-6.245502866625	-5.4478376834425
O	-0.3637276311249994	-5.079133856625	-8.815747963442501
O	3.0862163848750006	-8.353734176625	-6.2994725234425
O	4.135070044875	-4.700422616625	-6.677199773442499
O	1.3430880648750005	10.038525043375	-8.635981053442501
O	0.5823847048750006	7.251340543375	-6.1627226734425
O	0.3320779348750005	8.238125023375	-2.5037586634424995
O	0.8473716948750005	7.606197053375	1.1737363062575001
O	0.9969201748750005	9.424308373374998	4.4890824665575
O	-2.1916361051249993	10.457950953374999	6.4007722765575
O	-4.575411085124999	7.810796873375	7.7822061965575005
O	-7.459805285124999	9.966876683374998	9.1439913765575
O	10.456139334875001	7.122533013375	-1.1919687434425
O	5.805634094875001	10.024578593374999	-6.812646363442499
O	5.280484824875001	6.347386823375	-5.9905584334425
O	5.117356004875	5.887359313375	-2.2207672534425003
O	2.7517014748750004	3.031865903375	-1.5480887434425001
O	5.052169754875	1.391624107375	1.0467035715575002
O	8.035716414875	1.446272782375	-1.2791256334425
O	6.1209454748750005	-0.2563485726250001	-4.0460625634425
O	3.7406505948750004	-2.577771776625	-2.1636919634425
O	5.926958774875001	-4.0949005366249995	0.6098417175575
O	3.8272039148750006	-7.315376606625	0.7408780235575001
O	0.7365780048750006	-5.244936316625	1.6538711115575
O	2.1736135348750008	-4.867967736625	5.1812885565575
O	-0.06410414412499943	-7.2452168466249995	6.9054278465575
O	-3.244101105124999	-5.933321856625	5.2835505065575
O	-2.2340910851249993	-2.415831606625	6.1799953965575005
O	-1.7485020081249996	-3.347287196625	9.8042989365575
O	-5.233046695124999	-4.840656146625	9.8953756765575
O	-6.721601055124999	-1.7291204966249998	8.287538586557499
O	-5.274132735125	0.3458702523749999	11.1415156965575
O	-9.103420495124999	-2.002402846625	1.3515626265575
O	-4.664551975125	2.699119423375	-3.2018023034424994
O	-2.8741258451249996	0.07023246237499992	-7.465152763442499
O	-0.5161445971249994	2.720464853375	-8.8128140634425
