10

O	71.80570341750305	82.2630107599491	26.034454975439733
O	71.09163081098974	82.43973331848075	24.85276904421725
O	72.44291947247356	83.25788844044561	26.36733722776032
O	71.28516295423033	81.39918042542034	27.045770370686775
O	70.35012358328957	80.46613480978061	26.72868140875247
O	70.31419340547649	79.32724272503884	27.560287960276607
O	70.45328892335483	79.64927695467676	28.92182278571137
O	71.67536147386075	80.22373868226484	29.135170627642328
O	71.9125766609052	81.29978620776002	28.246626783242505
O	70.03598877606831	80.39681833057764	25.358183770214843
