67

O	-3.877803303155556	2.161332326544445	-2.256303958533333
O	-4.586468183155556	3.323663698644445	-1.8715029985333334
O	-4.006682553155556	4.3438123586444455	-1.0759565065333332
O	-4.289818563155556	6.0204095286444455	-0.8701595565333331
O	-2.908027023155556	3.7713116786444454	-0.5409685405333331
O	-2.760898103155556	2.2971091476444454	-0.3018555525333331
O	-3.008335943155556	1.4931694366444452	-1.452013316533333
O	-1.902566466155556	0.5937895686444452	-1.643165755533333
O	-1.0013859741555557	0.18193393864444518	-0.7507585778333331
O	-1.223351659155556	0.36810084864444526	0.6648652714666669
O	0.10310473684444421	-0.2963108113555548	-1.3220040825333332
O	-0.2275727731555559	-0.3101842013555549	-2.619810338533333
O	-1.477823537155556	0.09708579864444511	-2.7958003785333334
O	-1.8120852211555558	0.6348818886444454	-4.1491788385333335
O	-2.9106566531555558	1.5274440266444453	-4.357684078533333
O	-3.486978963155556	2.397770008644445	-3.6601763285333333
O	-4.294387543155556	3.485464388644445	-4.218342708533333
O	-3.609793193155556	4.6348524686444454	-4.494369898533333
O	-4.029155703155556	5.916023308644445	-4.283253748533333
O	-5.3754075031555555	6.074594568644445	-4.101596438533333
O	-6.114403703155556	5.023511658644445	-3.6423749485333334
O	-5.548815633155556	3.7824166086444455	-3.6499671485333334
O	-4.563231113155556	4.588042998644445	12.827475531466666
O	-5.688786223155556	11.185419438644447	7.6331308214666675
O	-3.328760823155556	8.959500978644446	5.616178721466667
O	-4.132031513155556	5.673621258644445	7.496249141466667
O	-6.904572983155556	4.380184038644446	5.1965668714666675
O	-4.981132633155556	2.4424184936444453	2.685029581466667
O	-2.968098893155556	0.6529057786444452	5.418504911466667
O	-5.910219263155556	-0.3269180913555547	7.643654111466668
O	-6.409000803155556	-3.803961801355555	6.011193241466668
O	-4.567603713155556	-6.1727668113555545	3.713610051466667
O	-4.0147727431555555	-4.953265421355555	0.1494747934666668
O	-6.978365513155556	-6.174796951355555	-1.908167488533333
O	-5.169140603155556	-6.723369551355555	-5.156597688533333
O	-8.397459943155555	-7.859319411355555	-6.823719078533332
O	-10.500849463155555	-4.787725971355554	-6.103913998533333
O	-7.527172603155556	-2.4706426513555546	-6.692509698533333
O	-6.639702013155556	-4.262123381355554	-10.000259448533333
O	-3.0331602431555558	-4.865762471355554	-8.974613698533334
O	-2.5469047681555557	-8.409127311355554	-10.212133468533334
O	1.2319163268444442	-8.213548311355554	-9.772324468533334
O	1.1089990868444441	-6.9820174713555545	-6.143722348533333
O	1.5492837368444443	-10.377673711355554	-4.497967658533333
O	2.4821033168444435	-8.596827011355554	3.118380071466667
O	1.687978526844444	-6.500687391355553	6.1370315214666675
O	-0.8458326931555559	-3.8587304613555546	7.049498801466667
O	-2.052740326155556	-1.9928610113555547	10.156547131466667
O	7.600924556844444	-4.464696361355555	6.593273501466667
O	4.386749306844444	-2.500461701355555	5.788853941466667
O	6.297627676844444	0.6415115086444454	4.855061731466667
O	9.011473266844444	-1.2225821213555546	2.9173395414666667
O	6.426319046844443	-3.143278091355555	0.8900946114666669
O	4.875831556844444	0.1609963386444453	-0.11122273053333309
O	8.171057166844445	1.5235619216444451	-1.285775971533333
O	5.904181246844444	-1.9185693313555547	-5.019610548533333
O	5.333070926844444	1.7754009216444453	-5.836469158533332
O	7.375217446844444	4.661305538644445	-7.3159692485333325
O	8.952694566844444	7.679632038644446	-5.607073438533333
O	6.6111979568444434	10.582376718644445	-5.244077768533333
O	3.508779146844444	8.462352338644445	-5.805009728533332
O	0.656217246844444	9.544693718644446	-3.518977238533333
O	0.668288796844444	6.232799998644445	-1.6457183225333332
O	4.432411516844444	6.606444858644446	-1.0481005375333332
O	3.9339666868444443	10.158340738644446	0.3174258514666669
O	1.317448106844444	8.719703268644444	2.6662781414666665
O	3.6358016568444436	5.950499908644446	3.8430811114666663
