22

O	28.80874892905711	15.774701015408013	-1.5421922019078325
O	27.590054641630903	16.154749614402064	-2.1518143846797457
O	27.32986803273146	17.481653900198076	-2.5776979733203333
O	26.31387644637463	18.19173915472176	-3.759660952013064
O	28.26514792341496	18.226515884853036	-1.9520420967685432
O	28.912335760754942	17.844598579586467	-0.6530493648125169
O	29.491821720047252	16.542829768247767	-0.6518617263969433
O	30.85118526876954	16.634232620316048	-0.19150773303626134
O	31.41858459599149	17.592896303493507	0.5414068977081685
O	30.61037383441367	18.557300962779834	1.2517848143272345
O	32.74717783237383	17.594105494230508	0.44252440014328354
O	32.9837610723786	16.48069808290051	-0.26330381665376357
O	31.854471882391408	15.83613293656467	-0.5263817850755124
O	31.878003519059614	14.918369419315473	-1.7052563128705087
O	30.682073128225984	14.543556015712952	-2.3953767438574003
O	29.573610427923594	15.09414618134532	-2.6058350361751863
O	28.670101514892774	14.71605529750236	-3.695447955854563
O	28.856381107920285	15.393989748918798	-4.866626074212954
O	27.89251175143478	15.862185662867851	-5.7113639712202176
O	26.65041999986799	15.31194636922084	-5.553304070567845
O	26.307312506087094	14.77646110017562	-4.346114019857814
O	27.29564086393703	14.551579657648487	-3.4334805647192086
