74

O	-3.8891579988859655	2.1533079643263164	0.08110402991403486
O	-2.7357104488859654	2.5321658343263165	-0.7553412853859651
O	-2.9292562988859654	3.9525661043263165	-0.7568878553859651
O	-1.6080216515859653	4.419090734326316	-0.49305861638596515
O	-1.6527825443859654	3.7930215943263166	0.8051660536140348
O	-2.8790854688859655	3.9139511843263164	1.6222629146140348
O	-3.8340465588859654	2.9078621643263167	1.2935259446140348
O	-4.130737998885966	-0.23443945567368352	3.337401494614035
O	-5.394803638885966	0.19556890832631646	2.936170754614035
O	-5.533913388885965	1.4485461713263166	2.412807424614035
O	-4.4811857788859655	2.3710506743263164	2.5079494746140347
O	-3.5485159488859654	2.007563152326316	3.4391414546140346
O	-3.1488764288859654	0.6968577283263164	3.011528164614035
O	-3.653767428885965	-1.7441263056736838	2.1798124846140348
O	-1.7952837568859652	0.6426182453263165	3.087686054614035
O	-0.8402043378859653	1.6653241003263166	3.215833794614035
O	-1.4121709658859654	2.8877479243263164	3.951463744614035
O	8.233083341114035	-1.8270094456736836	-13.073861785385965
O	2.737075151114035	-6.8176916156736835	-10.122591685385965
O	2.526409911114035	-6.333876745673684	-6.315643465385965
O	-1.1285285628859651	-7.426101095673684	-6.1345863953859645
O	-2.7473150088859652	-8.203489925673683	-2.809334115385965
O	-6.2321684388859655	-9.176199135673684	-1.7171653053859652
O	-7.289539808885965	-6.584324985673684	0.7902740236140349
O	-7.485651908885965	-7.096181255673684	-5.308794545385965
O	-5.128664718885965	-4.2991610156736835	-6.319571585385964
O	-1.5359451853859654	-3.0696949456736835	-6.3763852953859645
O	-0.24160436888596526	-2.7500888956736835	-2.872995185385965
O	2.242892031114035	0.14810504032631644	-3.548977915385965
O	1.6468596711140346	1.4763284813263164	-7.084378655385965
O	-0.9002692728859653	4.224309114326316	-7.820703175385964
O	-2.9615520388859653	4.586878144326317	-11.019025585385965
O	2.1076895211140347	3.2402722943263162	-12.524117585385964
O	-10.226631948885966	3.5859666343263163	-8.239602205385964
O	-9.763954688885967	4.533367914326316	-4.612453315385965
O	-8.055375108885965	7.393284864326317	-2.7603958153859653
O	-6.860390278885966	6.658041614326317	0.7980229816140348
O	-5.8960418388859654	9.044184844326317	3.465768974614035
O	-2.1841029038859654	8.268958594326318	3.866532984614035
O	-1.4527287868859653	9.402612464326317	0.21174051861403487
O	-2.5743484918859654	11.766500164326317	-2.535852635385965
O	-2.8629453188859655	9.497443004326318	-5.623953085385964
O	-5.591196278885965	7.0038717143263165	-6.692167045385965
O	-5.062807998885965	3.1930169343263164	-6.493061225385965
O	-6.9780448788859655	0.8018817793263164	-8.735390975385965
O	-8.544239158885965	-2.4684120056736836	-7.6668560353859645
O	-4.452011328885965	0.9051851883263164	11.005200114614036
O	-6.798356408885965	-1.8730828656736835	12.178382114614035
O	-5.0549194788859655	-7.764461745673684	11.243450214614036
O	-3.5865053288859654	-4.2922122156736835	10.870372914614036
O	-1.4154913078859652	-2.2360029656736837	8.672221544614036
O	1.7703229411140349	-1.2353865756736835	10.386770414614036
O	2.4207973511140346	2.2211288543263166	8.935848684614035
O	6.046207411114035	3.0400420843263163	9.394482194614035
O	7.930537781114034	6.136142144326317	8.252244804614035
O	8.814066991114036	1.1700833587263164	-4.791378305385964
O	11.739657491114034	-0.7451897756736836	-3.311151235385965
O	11.956426291114035	-4.279146095673684	-1.839403815385965
O	12.686931891114035	-3.876251375673683	1.8948671746140349
O	1.291488351114035	-8.143476255673683	1.548886294614035
O	4.221804151114035	-7.676219815673684	-0.8791747463859652
O	7.231167511114035	-6.467770625673683	1.074095516614035
O	7.881503761114035	-3.1589759356736833	-0.7144103573859651
O	8.616853891114033	0.24146023132631644	0.7753054526140348
O	7.973629861114035	3.5453885143263166	-0.9766162953859652
O	10.626756491114033	6.114215704326316	3.398572164614035
O	7.240596581114034	4.595675494326317	3.928097124614035
O	6.715257781114034	0.9045473243263165	4.731172784614035
O	3.239110051114035	-0.3169393756736836	5.473183064614036
O	2.5445841611140345	-4.004974835673684	5.3211529446140355
O	-0.6650485428859653	-5.699572985673684	6.374260814614035
O	0.03919226111403473	-7.936744525673684	9.257873524614036
O	-9.447296638885966	7.619586644326317	12.328731214614034
O	-7.3572265988859655	4.4401598943263165	12.742488814614035
