71

O	0.29738610391864406	-4.5470244251152545	-1.1909693460762723
O	1.3176592939186442	-4.756353015115255	-1.8520525180762724
O	-0.6671252120813559	-3.686946455115254	-1.8452555480762722
O	-0.1003080460813559	-2.3497866851152542	-2.0627966080762725
O	-0.6132861310813559	-1.2439021151152543	-1.2065253540762724
O	-1.6457761640813557	-1.5568532651152542	-0.19955537587627228
O	-1.332845913081356	-1.5943470451152544	1.2292930619237277
O	-1.7064888980813557	-0.5026984211152543	2.104296361923728
O	-1.9909679820813557	-0.6612696241152545	3.5443700419237274
O	-1.8985775320813558	0.36075914488474564	4.589535571923728
O	-2.334346156081356	-0.09266991011525438	5.952152431923728
O	-0.1663205160813559	-5.693691025115255	-0.5581003690762723
O	-1.727116011081356	8.898748594884745	3.358169181923728
O	-4.177780056081356	6.9048872948847455	5.461438561923728
O	-7.153507216081356	7.561052084884746	3.129287371923728
O	-5.0905179760813555	6.311210274884745	0.15732859492372775
O	-4.079033556081356	3.460993704884746	2.0586692519237273
O	-7.669373226081356	2.4885144848847456	3.000915741923728
O	-8.637026286081356	2.771778584884746	-0.6619518150762722
O	-5.915407756081356	0.44829512088474566	-1.5781592480762723
O	-7.256483206081356	-2.1406765351152544	0.9884173419237277
O	-10.514749156081356	-2.272280825115254	-0.7145682100762722
O	-8.962647846081357	-2.670700355115254	-4.1243973880762725
O	-6.7439097160813555	-5.488997375115255	-2.760905648076272
O	-9.852269566081356	-7.222266915115255	-1.3656980380762722
O	-8.377355196081355	-11.338088045115255	-3.964441468076272
O	-0.25029767308135586	-11.169711845115254	-3.3928319980762724
O	-1.772278077081356	-8.969337795115253	-7.325691678076272
O	1.820419673918644	-7.581808175115254	-8.040944578076273
O	-1.3041112422813559	-7.877588575115255	-12.412485028076272
O	-0.5494524190813559	-4.441872385115254	-10.893613228076273
O	2.3914090039186444	-4.218199095115255	-13.362888028076272
O	-0.16235292608135587	-4.322159295115255	-16.235358628076273
O	-1.638055862081356	-1.0818728151152543	-14.870483428076271
O	-0.5395480490813559	3.5607550648847455	-12.032117028076271
O	-4.111492016081356	3.1584992148847455	-13.281276328076272
O	-6.666908306081355	3.132103664884746	-10.488450228076273
O	2.8986455539186444	8.189785334884746	-4.166774048076272
O	6.603129013918644	8.525877154884746	-3.2915350280762725
O	5.868510043918644	11.962423554884746	-1.7234598480762722
O	3.579465303918644	10.511192554884746	0.9669775419237276
O	5.019869463918645	10.467559454884746	4.472257821923728
O	6.885825483918644	7.414996264884746	5.803845531923728
O	6.2331138639186445	4.532984554884745	5.756027781923728
O	3.3904507439186444	5.139521444884745	3.266966251923728
O	5.6066305139186445	6.602997004884745	0.5750249309237278
O	7.664728513918645	3.3757231548847457	0.6281112909237277
O	4.937933183918644	0.8579144328847457	-0.34858803357627227
O	4.522747143918644	1.4403436348847456	-4.062118438076272
O	8.021582243918644	2.258108534884746	-5.177907288076272
O	9.372456193918644	-1.3122852751152543	-5.167379778076272
O	6.281941123918644	-2.4123787151152545	-7.109400968076272
O	7.036430513918644	0.24887806668474563	-9.734941858076272
O	10.644417093918644	-0.9358905451152544	-9.867126778076273
O	9.603621493918645	-6.413892705115255	1.9443977719237278
O	5.927944993918644	-5.536761715115254	1.8767949819237277
O	5.239677213918644	-7.557682445115255	5.112226901923728
O	8.029324483918645	-5.679760215115254	6.778621691923728
O	6.459771093918644	-2.315518475115254	6.018567461923728
O	3.130480213918644	-3.6525959351152544	7.2882809819237275
O	4.879024693918645	-4.431983525115255	10.562926671923728
O	2.499304063918644	0.38704922088474564	10.445633471923728
O	1.232952573918644	-2.085369505115254	13.063810971923727
O	-0.03849349608135588	4.071001154884746	13.488407571923728
O	-2.573691326081356	3.3612836148847456	16.294233171923725
O	-5.447048626081355	4.4263160548847456	14.020544871923727
O	-5.2991613160813555	1.5810279748847458	11.512691571923728
O	-6.295804196081356	-2.0391328951152543	11.108058771923728
O	-6.618794786081356	-4.267103865115255	8.054051451923728
O	-9.801099626081356	-5.3736602351152545	6.322900241923728
O	-6.556038786081356	-9.242245175115254	4.639908301923728
