14

O	23.226431940764822	36.377756558052546	41.52346157480558
O	23.934129100885347	37.6081317543438	41.19652606964824
O	24.379013915933484	35.71051230460373	42.278235949929574
O	22.155430563415276	36.31149936004234	42.479469715770804
O	22.51567532084003	35.281397589031855	40.853096270316044
O	25.260083853582177	37.61106746712166	41.490253351705704
O	23.261040863556282	38.79465761958712	41.67527472651909
O	25.60552406090371	36.40379873755352	42.19377062098769
O	24.17262077058811	34.65341066635117	42.802467896902805
O	20.730329005731278	36.32143134338592	41.84445266204356
O	21.00801168929649	35.52413150494889	40.72523355312222
O	26.039109319481355	38.77318054490398	41.8710198620879
O	23.74581133657025	39.93091807285624	42.1709998346992
O	25.15145684377875	39.882013967646174	42.0570023418754
