16

O	-0.24870102308803155	3.1707900380507557	18.43055169364157
O	-0.7043120396249885	2.1133235290528454	18.88012646988443
O	0.7126668122302493	2.824807133308598	17.51834274208696
O	-0.69376643267295	4.490034481210497	18.409628796579646
O	-1.4935064858423965	5.394453001959755	19.163590474496893
O	-2.444906662796664	6.346030740544605	18.518544781706336
O	-2.8957622113593433	7.590161624863561	19.231278981474084
O	-3.1078818836752244	8.817557786032527	18.41734660425025
O	-4.426014877812544	9.458735550679188	18.736563616939435
O	-4.198947578573594	10.198068684906977	20.02597080720125
O	-3.508306587575268	11.510486047652115	19.83185721369909
O	-2.930371023629995	11.502424335181354	18.454784806855567
O	-3.7921458452475933	12.318311102722857	17.564268303984132
O	-3.8470453959959583	13.791004056671536	17.830467922216258
O	-2.9997020828782546	14.60958582091553	16.89706384335839
O	-3.6704409901786033	15.944591944590261	16.732197218027437
