24

O	5.229048816090951	13.346469573191426	42.53850481735869
O	6.776824513742083	11.727613995603578	42.42513445312704
O	5.265739557722682	12.619665388017548	43.779181809490986
O	4.223896381317256	13.516071402960275	45.46606974214113
O	7.17550316221207	11.57983052067092	43.75694453708673
O	4.110826527828221	12.52271664538526	44.553169139720666
O	6.231217763196098	12.083454997273904	44.56449093565712
O	6.077421646304352	12.772885526974953	41.75207010880296
O	3.8371646680736973	14.824688998649432	45.419524316157826
O	5.207815135494851	13.195166366306694	46.332567842840156
O	3.179872106811933	10.795635646180571	41.4826074954796
O	2.852907986757825	12.920952661945034	41.308623573758624
O	2.831442672362293	10.929016484506587	40.054816133266826
O	3.1538273563345967	13.10761351408027	39.89336654362317
O	7.717196131318488	10.292602414746305	44.32012794354006
O	3.058495781533356	15.397309684847231	44.28624040076029
O	6.360362414224082	11.111019362719041	39.81894123687493
O	3.1871243368542173	12.153936228198969	43.55998308559762
O	6.155502896766233	12.341605453325936	45.86239139968072
O	5.062690669431023	14.255483198700361	47.188636921301125
O	4.357149509072513	15.235007495955829	46.61462335388242
O	3.5064912929045096	11.979406735643064	42.13241547835989
O	3.306317165580676	11.904467760458576	39.25367395922182
O	6.103306685754627	12.349214915237399	40.39632208333629
