80

O	-2.5385980852115377	-2.0967073605	0.0457877857115383
O	-2.1423827492115377	-0.28384105049999986	1.4113574617115383
O	-1.8368868182115379	1.5779017075000001	0.8616237978115383
O	-1.9453502882115379	-2.3379495405	2.4189754237115384
O	-2.645317022211538	-1.3426788104999998	-1.0842966462884616
O	-2.2838127422115377	-1.5845618604999996	1.2483205287115382
O	-2.033445941211538	0.4261336535000001	0.2358250377115383
O	-2.629651627211538	0.03977435650000005	-0.9222844362884617
O	-0.6532459302115379	1.9767349695000003	1.6143508767115384
O	-0.11125718021153785	2.9722958095000003	0.6276463467115383
O	0.5540795597884622	4.1086392995	1.2216812287115384
O	-0.3903053502115379	4.9168322195	1.7540016757115384
O	-0.9966523752115378	4.1458247895	2.784620153711538
O	-1.1595290772115379	2.8043362395	2.5689803237115383
O	0.19622513978846223	2.3084866395	4.261274963711538
O	-1.680537755311538	-1.7203238804999996	3.682214573711538
O	-0.5249052702115378	-1.0997972305000001	4.060731573711538
O	-0.31189145021153775	-0.7678788504999999	5.407055603711538
O	-1.256497395211538	-1.0487417804999999	6.398157193711539
O	-1.7497588618115378	-2.3201892405	6.084688773711538
O	-2.051437204211538	-2.5537110404999996	4.744445463711538
O	-0.7640583602115378	-0.7228506505	7.750464863711539
O	-0.4800466902115379	0.5013264615000002	7.926284473711538
O	-0.9755227632115379	-1.4752574705	8.876464053711539
O	-1.077469309211538	1.8649713395000003	3.7301428837115385
O	0.9329795997884622	1.9459064495000002	3.238373983711538
O	0.371815599788462	2.2372603295	5.571417593711539
O	0.599598469788462	3.6547809595	4.201249253711539
O	-10.597378640211538	-0.5275426504999999	7.694822693711538
O	-8.680918800211538	2.6572245095	6.831330013711539
O	-5.272056610211538	1.5618654455	5.680344193711538
O	-3.826223740211538	5.1281347295	6.024279633711538
O	-2.7590938402115377	8.5453278995	4.470270143711538
O	-2.833874640211538	11.2781682795	3.5503528037115384
O	-7.189992380211538	8.1591173695	2.3566465137115387
O	-6.820159650211537	4.5377916595	1.3537147947115384
O	-9.353590940211538	1.9440570495	2.4437031437115384
O	-9.438183590211539	-1.8149609604999997	2.434373793711538
O	-12.617566220211538	-2.5836377104999997	0.48544334171153836
O	-10.725504520211537	-7.7798686004999995	-1.7138942462884617
O	-8.767276060211538	-4.6687113305	-2.6977233762884616
O	-7.786792870211538	-1.1376304404999997	-1.7146945862884617
O	-9.685293030211538	1.9950922195	-2.603339206288462
O	-7.919016930211538	5.344317359500001	-2.679234196288462
O	-0.34031454021153795	8.467842619499999	-12.543321306288462
O	6.6190161897884625	-6.1948804705	-8.127652986288462
O	4.421585989788462	-3.2927325404999994	-9.276936806288461
O	1.086915249788462	-2.6012088505	-7.516145586288461
O	-8.725625600211538	4.5960603095	-7.484395826288461
O	-9.257619690211538	0.8400373665	-7.316033566288461
O	-6.031357770211538	-0.7753891905	-6.352790606288462
O	-4.494441780211538	-4.1478735705	-5.750512266288461
O	-4.439817830211537	-4.6269127205	-1.9773850862884619
O	-0.9527509992115378	-5.1273667605	-0.44691839628846175
O	-1.5669536802115378	-7.2580285805	2.6931659937115384
O	1.6715563397884623	-6.4604708905	4.678635523711538
O	1.694641609788462	-2.5891613204999997	4.369940773711538
O	4.722404189788462	-0.46262961049999995	3.646401403711538
O	8.437250079788463	-1.0562032504999999	3.6033903537115384
O	8.754107979788463	2.0761371395	5.786438833711538
O	6.600895929788463	0.6317818275000001	8.569972903711538
O	8.791383179788463	-2.5632222304999996	8.366859063711539
O	11.998739879788463	-0.5102725704999999	8.476591003711539
O	10.645590479788462	1.4244462195	11.476425993711539
O	9.877680879788462	-1.9374378004999997	13.129246893711539
O	10.169550779788462	3.3628311695	1.7478556387115383
O	6.777612259788462	5.1422118495	2.1765150237115383
O	6.032726109788462	4.3144905495	-1.5395816462884617
O	6.918405259788463	0.5874252975	-1.4455526562884617
O	4.351715989788462	-2.0345651905	-0.3182213362884616
O	4.658862059788462	-5.6473177605	0.6443560847115384
O	2.677052799788463	-8.4670341105	-0.8899696962884616
O	1.2870323597884623	-11.482173620500001	0.9636065557115383
O	8.311864479788463	-5.7048714105	-2.509510886288462
O	5.805716149788462	-3.8351950304999995	-4.673160116288462
O	6.278078479788462	-0.3430591904999999	-6.167406776288462
O	3.0654401497884622	1.3683602065000002	-5.088540836288462
O	2.7630724397884627	5.098630629500001	-5.611653586288462
O	3.329277719788462	6.5198943695	-9.136983796288462
O	2.3336293397884624	10.0491122895	-8.073123736288462
