47

O	16.552109010790456	-17.28903861615083	23.445800279491884
O	19.73434562311265	-13.385887883045651	23.408310898436284
O	18.316132047973532	-17.066710477540987	23.516088269828334
O	19.169959190376694	-14.408179927732535	27.157257650767203
O	20.147007186132043	-14.707923977383755	26.1543211371674
O	19.636024030646492	-15.549398220558068	25.1583195728125
O	15.974180858394845	-17.802955959297485	24.68824440962918
O	16.517892575359465	-18.12269152206315	22.266637364671645
O	18.961107209743773	-17.712180107022178	24.539017660232396
O	18.82086685859304	-15.859447169397496	23.02342861902977
O	19.920142647609353	-16.93337267863161	25.150787196437264
O	19.703480390514855	-15.097303584382571	23.832258993742787
O	16.972270636347016	-13.705593583863795	22.117840931555016
O	15.932037246042354	-15.676131822029308	23.265630681943982
O	16.702441758982392	-13.05590276870344	23.192940479171657
O	14.398622372569003	-12.917206092151611	19.353989997432834
O	13.752527118365439	-12.309284487209423	20.635802765981445
O	14.031353330899114	-12.669771863038088	21.889362095378996
O	13.613420726483957	-13.731181227440363	22.74044081782289
O	12.985847903398472	-14.708734216839138	22.111383081346737
O	11.992931055387489	-14.020138641529059	21.35015988944956
O	12.469479691305065	-12.87640035798187	20.670086305658568
O	13.214862474482047	-16.128602994915397	21.854929898405395
O	13.573522998761582	-17.226473774202205	21.843827876308016
O	16.749504483132053	-15.12635251798665	22.243411503185854
O	16.715611868757062	-15.743235854628706	20.923447442205067
O	15.822372434158373	-15.011768079415184	20.030388281369387
O	15.112274028581679	-15.759361468061442	19.339743476492348
O	15.397790139356058	-13.7274199110509	19.89249929418082
O	17.94974778914847	-13.244149766397898	21.174133492627853
O	18.187176788795426	-11.764506030495015	21.15025681737158
O	16.993099393387855	-11.231667228801568	20.5290655930739
O	16.740358260124264	-11.89521726207291	19.521645753511812
O	19.359221093443782	-11.568192089116899	20.235831642348348
O	19.963604791163586	-12.913372249534172	19.95794637843794
O	18.839352533306286	-13.867796785740119	20.226639231749925
O	16.000372003087776	-10.330799510110355	20.824240493893466
O	14.859434821394728	-9.916315009149388	20.092814366470364
O	13.674533408763196	-9.571720992585218	20.94756235349474
O	13.705672889917215	-9.76303975545588	22.21065182898882
O	12.83533251577231	-10.00374760675972	23.188411466858163
O	11.690560211631254	-10.645284727442698	22.932276022229974
O	10.639520162004528	-10.58580439722234	23.904319841400827
O	9.938304142840055	-9.587726493082986	24.254717237580667
O	10.316527292307414	-11.767127422634788	24.556872244420276
O	11.477098842760107	-10.212122489438391	21.70834422339143
O	12.38722868335389	-9.80448689694083	20.81238725570596
