96

O	4.912353231028572	6.25129488222449	-1.158993182020408
O	-0.008614128971427937	5.69681966222449	-0.242882693020408
O	3.520340481028572	7.331455972224489	-0.910598331020408
O	1.7689143010285722	6.3065191722244895	3.2048519269795923
O	1.095853306028572	7.12856838222449	2.244864986979592
O	1.8497575510285722	7.29626966222449	1.0766584669795918
O	5.8982576610285715	6.30467307222449	-0.07875125302040797
O	5.288796071028572	6.73316777222449	-2.467680470020408
O	3.686604821028572	8.31702004222449	0.02749983697959202
O	2.251604941028572	6.78918076222449	-1.1368795320204081
O	2.586987901028572	8.47869196222449	0.8431325769795921
O	1.2534582620285721	6.92384970222449	-0.1370577730204081
O	1.937027311028572	3.89806558222449	-1.784163280620408
O	4.224178151028572	4.65732683222449	-1.094967260020408
O	1.8827667910285721	3.3268107722244897	-0.6346118230204081
O	2.7278020310285718	1.3339753052244898	-4.556203793020408
O	3.006929541028572	0.5446881022244896	-3.2412265030204077
O	3.281685621028572	1.0886530822244898	-2.054753834020408
O	4.454782951028572	1.6143568752244897	-1.443958722020408
O	5.4507476110285715	1.8244692162244898	-2.2860266120204082
O	5.550047031028572	0.5843543022244897	-2.987284843020408
O	4.310436011028572	0.05370675222448984	-3.410975343020408
O	6.206271851028572	2.9755038702244896	-2.774437918020408
O	6.695444591028572	4.00627364222449	-2.954172673020408
O	3.083704731028572	4.76216337222449	-1.933878277020408
O	3.287002261028572	5.079674832224489	-3.341662163020408
O	3.262352901028572	3.86899909222449	-4.156605793020408
O	4.149493921028572	3.8533094622244897	-5.024281143020408
O	2.666212891028572	2.6485008392244898	-4.094679883020408
O	0.7571410710285721	4.183386462224489	-2.549301286020408
O	-0.4214830879714279	3.29517233522449	-2.288132821020408
O	-0.04790543697142796	2.0355754142244895	-2.895974813020408
O	0.3994740305285721	2.25639966582449	-4.022988443020408
O	-1.5541473689714278	3.90724288222449	-3.056795093020408
O	-1.1200546589714278	5.26596322222449	-3.523112683020408
O	0.37642666622857207	5.178789242224489	-3.520026493020408
O	0.09909119302857211	0.7226940722244897	-2.523237489020408
O	0.49528888922857206	-0.4237230677755104	-3.256227503020408
O	1.258647850028572	-1.4339209077755104	-2.449931071020408
O	1.5962054110285722	-1.1827149577755103	-1.2433167900204078
O	2.556132311028572	-1.5476291177755104	-0.3966618730204079
O	3.759133271028572	-1.9104852777755106	-0.853611508020408
O	4.642442651028572	-2.61564920777551	0.027070416979591894
O	4.526239111028572	-3.7898166477755106	0.4944774169795918
O	5.793458221028572	-1.95296350777551	0.429169836979592
O	3.393920651028572	-2.4582596377755106	-1.992807418020408
O	2.307148361028572	-2.1782150177755106	-2.726117033020408
O	-3.7456502789714277	-4.296856497775511	-9.679374243020408
O	-10.082809158971427	1.1706009622244897	-3.4568697130204082
O	-6.968138558971428	3.0226957632244895	-4.619532943020408
O	-6.714489398971428	0.5993185722244898	-7.523903163020408
O	-9.978209158971428	2.1093116072244897	-8.784650503020409
O	-10.015217258971427	5.70177002222449	-7.373901313020408
O	-6.981338208971428	7.89043034222449	-6.544466013020408
O	-4.064664248971428	12.73954287222449	-6.848849063020408
O	-3.060347808971428	10.64423734222449	-9.877967363020408
O	-7.750984768971429	8.84085394222449	-0.21839072302040807
O	-4.940818558971428	11.32247985222449	4.190476886979592
O	-3.8767108289714285	7.75687968222449	4.767434726979592
O	-5.8879283089714285	5.337502082224489	2.571739336979592
O	-8.009126808971427	4.4502291022244895	5.550011216979592
O	-8.797160988971427	1.0035824422244897	1.3258858069795918
O	0.8966512770285721	-10.658930927775511	-6.784691563020408
O	2.254696611028572	-9.879553927775511	-10.228589153020408
O	3.853253441028572	-6.605040387775511	-9.051603553020408
O	7.4080314010285715	-5.40541277777551	-9.091976133020408
O	11.318664741028574	-1.1364931777755105	-5.579513443020408
O	1.7122669910285722	8.30996977222449	8.315172226979591
O	-1.2844041689714278	8.30607724222449	10.747021326979592
O	-2.099634088971428	4.58972785222449	10.99362782697959
O	-5.624035768971428	3.4937438422244895	11.881855426979591
O	-4.863082108971428	-1.2096554477755102	8.749819426979592
O	-2.219169158971428	-3.57685251777551	9.91200882697959
O	1.404534934028572	-3.9207553477755104	8.894896526979592
O	3.5544903810285717	-6.988385427775511	8.124241806979592
O	7.228819331028572	-7.72876122777551	7.334245646979592
O	7.419566311028572	-7.30657187777551	0.8313797669795921
O	4.664078681028572	-6.4986557277755095	-1.507911825020408
O	5.339385121028572	-3.67293207777551	-3.986053713020408
O	3.652971441028572	-1.7486494577755103	-6.763573163020408
O	1.4951504610285722	-3.7987080277755103	-8.756483903020408
O	0.6169376410285721	-6.067322447775511	-5.867248433020408
O	-1.923858808971428	-3.5294008177755103	-4.711773243020408
O	-2.3315724089714283	-5.00417077777551	-0.126395873020408
O	-2.5345318989714283	-1.18822829777551	0.3922300269795922
O	0.39734730482857206	0.8491106222244897	0.9553972169795919
O	4.050209771028572	1.0746041122244896	1.855589366979592
O	6.789531791028572	3.4308438222244897	1.587492726979592
O	9.097938991028572	1.8471994972244898	-0.754688943020408
O	9.409660011028572	-1.8520828477755105	-1.114770683020408
O	13.174198941028573	-1.0984348577755103	2.744381126979592
O	9.657128521028573	0.08423341222448988	6.735356796979592
O	6.6758264710285715	-2.3011526877755104	6.675983786979592
O	3.945242441028572	-3.2548715777755106	4.304788366979592
O	0.4409610578285721	-1.97234847777551	5.258369696979592
O	-2.703661308971428	-3.8747171377755105	4.553772766979592
