34

O	-10.09669032496375	41.064418168375234	4.578571667586058
O	-8.932040770561676	48.048400066607684	1.4079835592396246
O	-8.778547097436737	40.72650339777491	4.646040174832687
O	-10.455282963279071	42.14496420229189	3.837173164902149
O	-10.053480025238361	48.059647847684715	2.1853223330969014
O	-8.30684263042819	46.809847406282515	1.1904011119709128
O	-7.923217327521659	41.78904613842512	4.690948558154689
O	-9.556551971840719	43.20093714278707	3.9352972176390715
O	-10.706970152698407	46.8849201157234	2.41315991145475
O	-13.50522023509949	46.10199352719426	-1.332451447390396
O	-14.505212019056618	46.78114192571507	-2.0650466565277616
O	-8.979860877442654	45.684522550619484	1.4935483310625823
O	-12.094119767167479	47.89595023152398	-1.7299769693064
O	-8.237847834069658	42.918169726663514	4.039147314619172
O	-10.267087097363598	45.75729758503693	1.7846582067549404
O	-12.417565745567078	46.861132494904	-0.9086387475024895
O	-14.491394620072395	48.18282046221902	-2.146005673733905
O	-13.170403045410948	48.65458983335033	-2.225027283224353
O	-9.464469228820601	44.77413615366443	-1.3548767309128738
O	-10.488647981570255	45.400871110702624	-0.8552788830877187
O	-8.250847529944274	44.461664241617385	1.713735499682282
O	-10.896371950410128	48.6475074853511	-1.3406131032321533
O	-14.64413472129612	50.30523323353363	-2.911346346558636
O	-7.2367977381579625	43.98136791457798	3.985264565809276
O	-11.087855386176049	44.58616251177475	1.4642771919706163
O	-11.997147778896926	46.6374950517065	0.5118705753650834
O	-11.711480267408486	44.672077127272566	-0.5760586520581326
O	-7.322128078214435	44.609208432670584	2.72262115217405
O	-12.160956401705757	45.188328598901066	0.7173872610857298
O	-9.751169816618743	48.419840387404626	-1.7605571386825947
O	-8.76940133265432	43.38696992733764	1.471183821919389
O	-11.058442120106157	49.66305243502728	-0.4344517302981524
O	-15.367488134551522	49.13389109201994	-2.6405255513888837
O	-13.374954438260302	50.04069096760546	-2.37974893772388
