69

O	1.7727137557111106	3.072196176805556	1.0762868929999998
O	0.9010494557111107	2.091229917805556	1.5414014459999998
O	1.7752473357111107	4.333762296805556	1.6833257469999998
O	-0.5494348422888893	3.850779376805556	2.0948323269999998
O	-0.3623060982888893	2.489588830805556	1.8868645469999998
O	0.4787753457111107	4.780088596805555	1.940586727
O	-0.5462766402888893	6.989696496805555	2.0423909169999996
O	1.2140831757111106	6.278967436805555	3.6244473569999998
O	0.37844136571111064	8.105751636805556	1.6578695469999998
O	2.019352775711111	7.439910776805556	3.153441837
O	0.18699215371111066	8.799313316805556	3.8949104169999997
O	-1.4749653532888893	1.527190572635556	2.180102367
O	0.25352802571111066	5.971604506805555	2.6311313469999997
O	1.0989191357111108	8.482948926805555	2.829209627
O	-2.568013324288889	2.235030024805556	2.7973916869999997
O	-6.427616994288889	-1.4576799231944442	-5.450438162999999
O	11.636342675711111	1.3699008738055558	1.3126071689999999
O	13.711808775711111	3.784176546805556	3.394985367
O	10.738276975711111	6.225752456805555	3.2922537669999996
O	11.367221375711111	6.330887026805556	-0.4939340030000001
O	7.272000625711112	4.803896936805556	13.188118127
O	8.50570277571111	3.430573406805556	9.884673587
O	2.272752065711111	-7.660403233194444	-4.578270623
O	2.9288849657111107	-5.313667353194445	-7.527725923
O	3.2274092557111107	-1.600854693194444	-8.465112633
O	2.1199405357111107	1.5370293330055558	-10.198665773
O	0.3454583257111107	3.076005316805556	-7.223770742999999
O	-3.2364729542888893	4.440191676805556	-6.986264693000001
O	-5.942644384288889	1.8939919718055558	-8.046015463
O	-8.836029554288888	3.650149746805556	-6.108543293
O	-9.69603502428889	3.074486776805556	-2.406257423
O	-11.474339224288888	6.466189856805556	-2.5075486430000002
O	-7.311851454288889	8.991815586805556	-7.217878313
O	-6.41266605428889	7.111473476805555	-10.367501673000001
O	-2.858863234288889	6.051538136805556	-11.277950573
O	-2.2458137842888894	3.3247794268055557	-13.837415573000001
O	-2.8569971742888893	-1.3030899331944443	14.141423226999999
O	2.356976395711111	0.2821797268055559	15.707635627
O	0.44406368571111077	-7.455634383194445	7.279478627
O	-0.8352614796888893	-9.017169303194445	4.023441157
O	-4.166685054288889	-8.742220303194445	2.354442767
O	-9.46095221428889	-7.941501873194445	6.360225437
O	-10.98283112428889	-4.718723093194445	2.3517307769999998
O	-4.559134204288889	-3.807498183194444	-1.1114282330000003
O	-1.4149739352888893	-1.8786140331944443	-2.0530648030000003
O	-1.6717591802888894	1.863673961805556	-2.120428443
O	0.2307408557111107	5.236639386805556	-2.4820936330000003
O	2.965458705711111	4.916465176805556	-5.143372933
O	3.360883915711111	1.157907227805556	-4.644553103
O	5.692123375711111	1.943644757805556	-1.6416837330000003
O	9.11779856571111	0.33501107680555586	-1.8737607030000003
O	7.90765889571111	-2.397341233194444	-4.207325313
O	7.848390465711111	-6.164753453194445	-3.799048543
O	5.821524625711111	-8.720349703194444	-1.8718136630000002
O	8.54125463571111	-4.306266253194444	0.8314928739999998
O	5.416443335711111	-2.130058523194444	0.5057944269999999
O	5.615981365711111	0.1644635768055558	3.496360217
O	2.4953107957111107	1.763052770805556	4.942632737
O	-1.1280074352888894	1.4073172878055558	6.030407906999999
O	-4.23967845428889	3.3010664668055556	6.991043927
O	-5.67283890428889	4.3166355068055555	3.6286248469999998
O	-6.037394294288889	1.5559924891055559	1.034971433
O	-8.35890814428889	-1.475689983194444	0.7872090439999998
O	-10.48977352428889	-0.47243499319444404	3.822567837
O	-6.7828376542888895	-2.0489155131944443	7.594388777000001
O	-4.554621294288889	-4.335205043194444	5.538923727
O	-1.2597883492888893	-3.189912863194444	4.071598007
O	1.8741879757111106	-3.171688563194444	6.276700777
O	5.100179135711111	-4.497215533194444	4.798134437
