24

O	91.67633490103397	95.02600916180795	-44.208422241923266
O	91.28620200181153	97.2015711697342	-44.50858308545864
O	90.65353686299134	99.14577178372109	-43.99623907122045
O	90.92284050386742	97.57128610101512	-46.68542473733249
O	90.64424525742272	94.70125238132864	-45.09038605441619
O	91.83597965627756	98.54214395350907	-44.444405051363525
O	92.31788369438368	101.5867289027261	-44.88637355016071
O	91.1076562606434	100.0680775049575	-43.045105007949076
O	91.48055070559802	96.19930360600213	-43.61640097264545
O	90.1598175433264	95.7083248421983	-45.871588785133135
O	90.36526800349239	97.00090617545305	-45.51994856923203
O	90.47578121977438	101.35917754091646	-43.42955547470352
O	90.89807592822295	101.47952627016849	-44.84315271261588
O	92.65241470739421	102.63883159455227	-43.97854394642207
O	92.72062015449278	102.30743633764659	-42.53012689794035
O	92.65117776400177	102.0282359886388	-46.20855770954704
O	91.9259931201963	101.36472696523367	-47.328354984965685
O	90.33280704990804	100.53847744265387	-45.815301012939806
O	89.75820714010743	99.40143133891182	-45.03125849981872
O	92.6558087574189	94.00823431520973	-44.200358769183666
O	93.07765545523458	92.93013417253555	-43.816424859108764
O	93.25068507610469	91.48950754987958	-43.891228791192724
O	92.5944123252494	90.9665973862942	-45.02128359606033
O	88.64127339111249	95.14337045849881	-47.02978853201956
