30

O	91.66447890056007	91.04804901123568	-46.12174659122614
O	92.53028336047436	93.10256356843226	-44.973493975673186
O	89.73529533190487	94.51519428062915	-45.595085295205976
O	90.98622404915724	96.33824133148535	-44.89203020263568
O	90.15562538914719	98.31217865049572	-46.10398506054306
O	91.78413842030795	96.13315643849633	-42.72168412986643
O	89.98841061393502	93.94322920345974	-44.35157422822743
O	91.04857408987145	97.78524083881975	-45.08720851271259
O	91.03235959215034	102.12501111645824	-44.707555298162625
O	90.83966081011901	99.1885037931504	-47.03106695952349
O	90.50760233866984	95.5893527324565	-45.927675346068064
O	90.01321237247902	93.45035326040833	-46.671495334904456
O	90.46411868674194	94.59311940130576	-43.26517153388708
O	91.18211228234183	93.07976728991632	-46.902788957499254
O	92.46923663329086	93.61898540905626	-46.29044932706299
O	92.16935068502102	91.6821008253939	-45.01852647719373
O	91.31464567045573	95.5414545368524	-43.856239896749344
O	92.9242283657604	90.98631545904017	-44.14790305177093
O	90.98804836534659	100.55447850677237	-46.47427044562718
O	93.62676063643124	89.9472655638571	-44.74820033775523
O	91.08624183539354	100.71656113862088	-45.00591922386443
O	89.58694162771212	103.625876582535	-43.58578324709554
O	91.69664790506476	102.79690808913443	-45.836755868044015
O	90.76644721970322	102.96298955556037	-47.006869673322534
O	89.88988601619751	100.08219859931502	-44.38129087738569
O	89.26846997050082	99.19529203709786	-45.40212601415349
O	93.22392761819306	89.40827378981693	-45.97933762965482
O	92.10595310243507	89.8271698040364	-46.630160817289436
O	91.1570154292739	93.09581511010397	-41.849911800740784
O	89.66349889972238	102.64951158593963	-44.75623086399208
