15

O	1.1373864479372384	14.485044675146947	21.512160273335457
O	1.518822658354975	13.59277196635371	22.361459514086675
O	1.3556455374682053	12.421434198953804	21.601112016071745
O	2.1165528540956284	12.55350774168958	20.5231612845556
O	2.1711215480350834	11.656823252491982	22.4353981565434
O	2.481635558666494	12.197296849737077	23.61022143534548
O	1.2224127153051676	12.130146710091045	24.50517747651532
O	0.3395046672049209	12.799788430847872	23.863094563147847
O	0.5944928052080836	10.948847131167918	24.369286008497117
O	3.5453647850019214	11.52752745678479	23.56736655300738
O	2.9488196771042987	13.448916067690762	24.13798146647605
O	2.2304621765983987	14.18266896660083	23.363337718037013
O	2.4375535079735107	15.57150757359027	23.567123597160112
O	3.4332669475038435	16.009863695497515	22.557761957894236
O	4.356389842721451	14.994747969162662	22.412511497244488
