90

O	-0.9161505594615389	-1.8554973079807686	5.015487754923076
O	-0.7000953542615389	-0.7344211019807689	4.5576539949230765
O	-1.7977172152615388	-1.9018030579807688	6.115635034923076
O	-3.1064168382615387	-2.1594768979807686	5.718141194923076
O	-4.068733428261539	-1.2477258379807687	6.050210984923076
O	-3.904515538261539	-0.5431842419807689	7.184689334923076
O	-2.682637418261539	-0.537489210980769	7.8625399749230755
O	-1.782774953261539	-1.438443187980769	7.370485954923076
O	-2.785499288261539	-0.08917431398076892	9.164057644923076
O	-3.8553916482615387	0.7133505760192311	9.586200414923077
O	-4.926052308261539	0.8915647880192311	8.695382194923077
O	-5.538964168261539	1.9618795020192312	8.824216844923077
O	-4.538408038261539	0.641058417019231	7.418910984923076
O	-2.529275838261539	-1.120240337980769	10.085004724923076
O	-0.3915796922615389	-2.724672607980769	4.114453574923076
O	0.26405267173846114	-2.733515407980769	2.9311593649230763
O	1.5325749517384613	-2.0562414179807686	2.515987067923076
O	1.3429374717384612	-0.895610857980769	2.5544943389230763
O	0.5180941517384611	-4.0961688679807695	2.374959041923076
O	-0.47230681726153884	-4.950780837980769	3.0487471549230762
O	-1.8112217062615388	-4.949639227980769	2.810031133923076
O	-0.022990115261538824	-5.9696234179807695	3.8129231949230764
O	-2.598255758261539	-5.853316347980769	3.472301304923076
O	-0.8422339402615389	-6.415297257980769	4.797555714923076
O	-2.156560148261539	-6.034240907980769	4.791546424923077
O	2.1165629017384613	-2.373237077980769	6.383411224923076
O	2.023019071738461	-3.7654921679807685	6.307706054923076
O	2.588944051738461	-4.36642203798077	5.056793594923076
O	3.599128111738461	-3.5157000179807687	4.532581614923076
O	3.325363281738461	-2.112812127980769	4.260139424923076
O	1.9937496317384613	-2.019449997980769	5.076830204923076
O	1.4563160217384614	-1.537774087980769	7.244306534923076
O	0.9991647417384611	-0.3031239649807689	7.262593214923076
O	1.9205621817384615	0.20644400401923108	6.293865164923076
O	0.41932680173846115	0.4028236700192311	8.383649004923077
O	2.2862713217384614	-0.6387340689807689	5.169967154923076
O	3.777352991738461	-1.7826561679807686	2.7580281259230763
O	2.7024374117384613	-2.089248577980769	1.8017935973230763
O	4.860280301738461	10.451127272019232	0.8529049349230762
O	5.450177261738461	13.95397667201923	-0.6205159950769239
O	-10.914980768261538	2.033213052019231	-5.288664575076924
O	-10.377986458261539	1.508732542019231	-1.5136032150769239
O	-10.548460988261539	-2.104618277980769	-0.4178621550769239
O	-10.556547158261539	-0.5945214879807689	8.177461174923076
O	-9.010445648261538	0.4392958180192311	4.796932644923076
O	-6.9129831582615395	-2.4438011379807687	3.6253071049230763
O	-5.5010239582615394	-1.647780947980769	0.10072814492307613
O	-5.8760464582615395	0.3468298360192311	-3.1734080750769245
O	-6.980281498261539	-1.187959987980769	-6.408155555076924
O	-4.810922298261539	-5.095542737980769	-7.119193895076924
O	-1.8143329312615388	-6.717888177980769	-5.299337745076924
O	-1.876360667261539	-10.37999492798077	-4.394393875076924
O	-0.19735366926153886	-9.683803497980769	-1.0919877150769237
O	-3.2884700882615387	-7.66893654798077	0.12686563492307612
O	-5.05959678826154	-11.011203727980769	0.7913290649230762
O	-2.623767668261539	-12.40487892798077	3.3060388749230762
O	-4.751775188261539	-14.091015227980769	5.961006664923076
O	5.60279881173846	-9.354784227980769	-3.2967205950769243
O	2.1919143917384614	-9.527242327980769	-7.0825885150769246
O	-1.0739859482615388	-9.273845667980769	-8.904534025076924
O	-4.660458908261539	-10.167113827980769	-8.208794225076923
O	-3.503651908261539	6.24781819201923	-2.500490015076924
O	-4.768855208261539	6.780466082019231	1.0332530059230762
O	-1.6120510512615387	5.551421202019231	2.5579407709230764
O	0.7981638217384611	6.957063912019231	5.146317484923077
O	2.677693051738461	10.08697417201923	4.526223564923076
O	5.663193551738461	8.647094422019231	6.364674494923076
O	6.757246291738461	5.205805772019231	7.427697094923076
O	5.24786742173846	5.864942022019231	10.913193764923076
O	1.8951380317384614	7.635229382019231	10.264215484923076
O	-1.7374118222615387	6.4971517620192305	9.557303464923077
O	-4.334240448261539	6.34062381201923	6.721255224923076
O	6.9033015017384605	7.35394370201923	-2.8235386450769244
O	4.2047516417384605	4.831173602019231	-1.8405686750769237
O	3.9578535517384617	3.7930782320192313	1.7218512819230762
O	1.572137581738461	1.8683577120192312	3.9290109849230763
O	-1.8981367592615388	1.6561085120192311	2.870061734923076
O	-1.0142457776615388	2.457160562019231	-0.7624464450769237
O	-0.2808687182615388	-1.0507833979807688	-1.9996159350769236
O	-2.5479501682615386	-2.5737162879807687	-4.635576415076924
O	-3.2442395082615385	0.8769892830192311	-6.027555885076924
O	2.1405875717384615	-0.6323949439807689	-5.783809065076924
O	3.961382841738461	-3.571787547980769	-4.191129405076924
O	6.9198036517384605	-2.9052909979807686	-2.0030541650769234
O	9.897266681738461	-0.9647332679807689	-1.023892825076924
O	12.700613581738462	-0.34113247798076896	1.4307175089230761
O	11.03118878173846	2.249608472019231	3.699247904923076
O	9.081238281738461	5.091501212019231	2.1633659909230762
O	9.355283981738461	2.0404427020192313	-5.050680485076924
O	8.907549031738462	-1.3713593279807688	-6.6027858850769245
