67

O	-2.873355285767442	-2.334262677627907	2.1695917674883716
O	-1.6486145042674416	-2.194733497627907	2.5128911094883715
O	-1.3970202867674415	-3.010696927627907	3.7088845824883716
O	-1.4516069677674415	-4.3188506076279065	3.4032417424883716
O	-1.5534267631674414	-5.219619887627907	4.4830951924883715
O	-2.4223282637674415	-4.6398230876279065	5.364824972488371
O	-2.2918115727674415	-3.4035905576279073	5.930277082488371
O	-3.5741806057674417	-2.944872047627907	6.615957142488371
O	-3.902549175767441	-3.486791847627907	7.843913742488371
O	-4.473554255767442	-2.620415107627907	8.839183342488372
O	-4.404061845767441	-4.796888847627907	8.103443972488371
O	-1.4621625137674414	-2.692830677627907	5.031518562488372
O	-1.3497675967674416	-0.8948709576279072	2.1384875994883714
O	-2.2322458157674414	0.2015012782720929	2.6206757414883715
O	-1.4390735367674417	0.6442323653720929	3.6865178524883717
O	-2.0237587597674414	0.8332244773720929	4.942208862488371
O	-2.6728784957674416	-0.2524936126279071	5.387990662488371
O	-3.8383449057674417	-0.3427810836279071	4.532131262488371
O	-3.3953965557674417	-0.3164328936279071	3.1916106424883717
O	-1.5762987943674416	1.8411098123720928	5.968797632488371
O	-1.5509320460674416	3.0933586423720927	5.433477112488371
O	-0.5397657657674415	3.7890530223720926	5.968708042488371
O	0.36579039423255844	2.8134644923720926	6.075818232488372
O	-0.3098116557674415	1.621600652372093	6.263789532488372
O	7.971173794232559	-1.747330657627907	-2.635141667511629
O	5.880929004232558	1.0897280193720928	-4.111785527511628
O	2.7689434442325584	0.5531444013720929	-2.0205805975116284
O	0.22406987423255842	3.3659023323720927	-2.589028527511629
O	2.6445780142325583	5.447139662372093	-4.726697737511628
O	1.5884797042325582	2.976228742372093	-7.445539237511629
O	-1.7580022577674415	4.791197002372093	-7.450111587511629
O	-14.85473061576744	-3.1002602776279073	-0.9407752075116285
O	-11.449209185767442	-4.041908247627907	0.3213939224883715
O	-9.739830505767442	-2.7580997276279073	3.3190134824883715
O	-9.484409995767441	0.973110486372093	3.2500540524883714
O	-12.415111915767442	2.572157522372093	1.3745468044883715
O	-7.2795034757674415	6.898087242372093	-4.968383927511629
O	-4.907540015767442	9.815228922372093	-5.0894486175116285
O	-7.612518175767441	9.825684722372094	0.04956511248837159
O	-5.528764445767441	6.622035002372093	-0.7235117675116285
O	-8.798690675767443	4.693133722372093	-1.3134213675116284
O	-7.799468835767441	1.003175223372093	-1.9380722775116286
O	-11.095262175767441	0.0738765413720929	-3.6361179975116285
O	2.6341322942325585	-3.947110017627907	-10.645155407511627
O	-0.9795076497674415	-7.624656117627906	-7.437892597511628
O	-4.149081625767441	-5.747068227627906	-6.517150267511629
O	-5.005065965767441	-3.999749187627907	-3.175893147511629
O	-4.362717125767442	-4.604151707627906	-0.42839806751162857
O	-1.7748574117674416	-7.268791047627906	-1.0407616875116286
O	0.49814778423255857	-5.228716557627907	-3.2542511975116284
O	1.5005894542325586	-3.587441647627907	0.1896702224883715
O	3.0382061942325587	-6.493033577627907	1.8797922454883715
O	6.414792614232558	-5.0187517076279065	1.1876360004883715
O	5.063350174232559	-4.331511207627907	-6.901212667511628
O	2.259421444232559	5.104430322372093	0.39444542248837156
O	3.3461476942325588	2.7726493623720927	2.9496890524883717
O	2.7734929642325588	-0.8866986076279071	3.9899275524883713
O	4.142776544232559	-3.4917797576279073	6.094919202488371
O	7.895578584232558	-3.5454507476279074	7.047432132488371
O	7.441770764232558	0.036752453372092875	8.153468292488371
O	7.459046914232559	0.8969221913720928	4.478383562488371
O	7.009191334232559	4.675544442372093	4.141094772488372
O	11.612135984232559	0.2317577603720929	4.254338172488372
O	12.601192084232558	-1.6036211076279072	7.437846732488372
O	7.173837584232558	-6.6084210976279065	9.358961962488372
O	6.155947224232559	4.313002862372093	9.728650992488372
O	8.896340584232558	6.903662292372093	9.388501392488372
