92

O	-2.9816567308437496	0.5277057184374997	4.720427101109374
O	-1.8023048178437495	0.5718493324374997	4.238424281109374
O	-1.3415402098437497	-0.4967117255625002	3.255814171109375
O	0.06529056915625042	-0.5844496255625002	3.350879761109375
O	0.4325287091562504	0.06974467743749968	4.571185961109374
O	-0.7071048028437495	0.7022233904374997	5.177231661109374
O	1.6229735691562504	0.5441855604374997	4.815510921109374
O	-0.7115295588437496	1.6241119904374997	6.318140781109374
O	-1.9920217578437496	-1.8022631855625004	3.4443586511093747
O	-1.8661035608437495	-3.0861737255625	3.2461226311093747
O	-1.7597276068437495	-3.7028743155625006	4.586671251109374
O	-1.7644259248437495	-2.8965188555625003	5.7372990811093745
O	-2.8846317708437494	-2.0898391955625004	5.483332151109375
O	-3.1583957108437497	-1.6284993455625005	4.0876053411093745
O	-2.0409452898437497	-0.21474861556250024	2.009897351109375
O	-2.5215925728437494	-1.2406162955625004	1.142801301109375
O	-3.37949172084375	-0.7506830355625003	0.16574736840937485
O	-2.8840896908437497	0.46651420143749966	-0.3448624248906252
O	-1.7706656138437495	1.0734411155374997	0.14365153120937485
O	-1.4964489848437497	0.9344319366374997	1.5112062711093748
O	-2.4926467248437496	4.571976334437499	0.8680846371093749
O	-0.9158675018437495	3.2559507544374995	0.15516926610937484
O	-1.9505866658437496	2.4899119844374997	-0.22689466689062515
O	-3.2335967008437496	2.9549541144375	-0.5692137518906251
O	-3.6281763908437497	3.8642602644374997	0.34047031010937484
O	-1.2565296848437497	4.559728584437499	0.13659971550937483
O	-0.8777917108437496	5.550336904437499	-0.7902208158906251
O	0.3862214891562503	5.7416746444375	-1.303270378890625
O	2.00734659915625	10.9460652944375	-0.8849571438906251
O	-1.7819703308437496	10.919341674437499	-0.9495298688906251
O	-2.0585570278437495	7.991969634437499	-3.411690938890625
O	1.2073458591562505	6.0753886744375	-3.125742398890625
O	4.55639470915625	5.8596833044375	-5.049306888890626
O	4.804007119156251	3.0003358844375	-7.532351458890625
O	2.25997553915625	-0.6062379355625003	-11.671479588890625
O	3.0038319191562506	-1.6041966255625004	-8.121287558890625
O	2.91156342915625	0.3608242054374997	-4.8847066088906255
O	6.23721137915625	0.5417011904374998	-3.073848318890625
O	5.23538559915625	-0.46877179556250037	0.4589375211093748
O	7.8656646291562495	-0.7024841755625004	3.2415357111093748
O	5.1127478991562505	-1.2115743955625002	5.780947021109374
O	3.95077297915625	-4.6915116655624995	4.5635161811093745
O	5.34844775915625	-7.958383905562501	3.338019381109375
O	3.10818584915625	-9.437301695562502	0.6076223761093749
O	3.3619405991562505	-8.948503465562501	-3.1394366888906253
O	-0.3965962508437495	-8.653582405562501	-3.7819424788906253
O	-1.7650669678437496	-7.8055484855625	-7.255180478890626
O	-6.34840719084375	-9.697444595562501	4.8191979311093744
O	-8.89061094084375	-7.5655412455625015	6.704536781109375
O	-8.098089350843749	-4.1789937355625	8.205683921109374
O	-9.99556336084375	-1.1229327655625	9.711139831109374
O	-10.26569505084375	0.7582237624374997	6.340624361109374
O	-11.25503763084375	-2.3745072255625	4.377439701109375
O	-9.72583571084375	-5.6262237055625	3.098076961109375
O	-8.164319880843749	-7.649397075562501	0.3317224221093748
O	-8.604466560843749	-11.3340476955625	-0.38387412889062517
O	2.09761910915625	-13.534942395562501	-5.758193698890626
O	-1.2290808918437497	-13.1129633955625	-4.012577058890626
O	-11.21957482084375	-6.1527634155625	-2.108037298890625
O	-12.85675005084375	-3.3257555755625003	-0.13040281789062513
O	-11.34659501084375	0.2051657444374997	0.04564394510937484
O	-8.00203855084375	-1.2012965555625001	-1.0808213988906252
O	-7.51235466084375	-0.004766205562500403	-4.692255228890626
O	-7.51670734084375	3.8228827144374997	-5.194120008890626
O	-9.264713090843749	5.6342540344375	-7.960056718890625
O	-6.67475312084375	7.404799964437499	-10.154806588890626
O	-3.6105891408437496	6.025736604437499	-8.204409318890626
O	-2.4731790698437495	4.2567317244375	-11.406144788890625
O	-1.2122566638437495	1.1903439054374996	-9.506933598890626
O	-2.6850930908437496	-2.3351992155625	-9.629001728890625
O	-0.8632231188437496	-4.0726838255625	-6.797659978890626
O	1.4701532991562505	-3.6306081155625	-3.8475545888906253
O	5.03784429915625	-4.6452460055625	-3.220636158890625
O	5.427233089156251	-5.387523815562501	0.4228590441093748
O	9.05772114915625	-4.7486634755625	1.2039787011093748
O	9.04032744915625	-5.507382515562501	4.942649231109375
O	9.98473414915625	-8.879661765562501	6.615406851109374
O	10.224957249156251	9.810604044437499	-2.714906518890625
O	9.13387634915625	-7.4315072855625015	11.115677411109374
O	8.21267756915625	-3.8713261855625007	10.151122711109375
O	6.452916609156251	3.2029076044374998	6.093331601109375
O	6.3943866491562495	4.384755474437499	2.4184273711093747
O	2.8342930491562504	2.9773063044374997	2.3456158311093747
O	1.5000304391562505	5.464353354437499	5.000620341109374
O	0.7681694291562502	9.0514161644375	3.784733381109375
O	1.2811730991562504	10.965636404437499	7.2031300211093745
O	-0.2561417608437495	15.594475004437498	7.3253989011093745
O	-2.2128443518437497	12.502012504437499	12.657256211109374
O	5.15452905915625	7.9614199644375	6.411561141109375
O	5.58666109915625	9.306709434437499	2.848574741109375
O	5.37754152915625	13.007685204437498	3.849076201109375
O	10.27844444915625	10.256744564437499	3.6697883111093748
