21

O	24.673412179038642	-16.77552135996301	-11.368483417937728
O	24.52527486800621	-17.579228511266987	-10.372455669862621
O	25.56843742662733	-17.401994974145843	-9.520891197072931
O	25.531954185635282	-16.21223566329809	-8.784929262636336
O	25.046179722933356	-15.219524110051669	-9.547143788350569
O	24.845174971901944	-15.515922812035615	-10.897011649093898
O	23.164466212588263	-17.331131322131604	-6.767751516218277
O	23.00076536983437	-21.46068549352779	-10.4317234505098
O	22.842248701325058	-20.731313617752548	-9.287376933770101
O	23.37474525460104	-20.719803678243704	-11.548785136698548
O	23.249371177765795	-19.435396443351298	-9.172672878557826
O	24.120346742182402	-19.57638188305289	-11.251871931642963
O	23.161342994329214	-15.487205060918004	-8.15917284197502
O	23.98441065693199	-14.635146205199616	-8.936902554495806
O	25.20745397969953	-16.104049113891445	-7.410624948251977
O	25.819858063198577	-14.773220964328395	-13.657524979007608
O	25.00950466591771	-15.960514725264202	-13.542025166131303
O	24.420879679937283	-14.492598924984865	-11.716877321697577
O	23.855812904432725	-16.174321854018444	-7.261114189806768
O	23.89617878873627	-18.800012031453385	-10.14912223185023
O	24.571776506843335	-14.653136919343103	-13.088899861198918
