28

O	8.83897907195663	52.064023987782534	2.9736803285120876
O	9.550830092595806	53.28925101726511	0.831484747098588
O	6.562747808243181	52.340304445291586	2.83784918779545
O	8.616268912041498	50.86135206894176	2.1119734580496736
O	10.07460690210604	54.440883156048784	1.5042887255509936
O	10.391545187783588	52.148402947301356	1.310634133976564
O	8.195974093352172	53.015900007463074	1.2986747253305317
O	8.022070368040858	51.69961384010506	1.0159189772497506
O	7.8971318470443554	53.07419610158224	2.64482473030439
O	6.583498437853052	51.14862937503072	2.6610619893511616
O	5.676077644593419	53.147685296009655	2.1228965085231843
O	6.121528757026127	53.540952792166685	0.7834731685807848
O	6.626490607090487	54.78358781949113	0.3339849703898756
O	6.706648805072824	55.95957369385934	1.1746086843830776
O	7.022760153321213	55.20752273109806	2.3761288548676074
O	5.758156019596133	54.510573152957335	2.666448843240451
O	7.265671617664699	57.09110824507437	0.6703848648080952
O	8.47336511246666	57.030578669259526	0.09972704359464224
O	8.768909712188693	58.212017859273686	-0.44455071171101723
O	7.614693114187004	58.92027480872059	-0.38439426155473777
O	6.684816951639085	58.265798840454664	0.41909238150819217
O	5.666262135809088	59.03504401825695	0.8821979754365397
O	4.58171966073603	58.75977458816026	1.6434308183326767
O	3.9707868077478694	60.00996515864143	1.843953707294915
O	4.623844552498941	61.039235544083354	1.2319979453124803
O	5.63994942583827	60.379085375787554	0.6487360416450727
O	6.5529692219695574	60.99208039506591	-0.10038076943476115
O	7.584484409642721	60.26644220677372	-0.4850905316150973
