77

O	-1.510661045630612	1.7898938363469385	1.2321187881632651
O	2.189132898369388	2.6693087763469387	-0.8792643118367347
O	0.6071615683693881	-1.5622000536530614	2.3837880681632653
O	1.137693588369388	-2.9201708136530615	2.235271088163265
O	2.5781630883693882	-3.2041486136530613	2.307001748163265
O	2.822484578369388	-4.597093483653062	1.7755739081632653
O	1.7677353983693882	-5.586803693653062	2.2585231081632653
O	1.245862698369388	-5.016496603653062	3.572114798163265
O	0.40931060836938804	-3.8332088036530614	3.169939538163265
O	-3.546810241630612	-1.5699011936530614	2.678573998163265
O	-4.759218541630612	-1.4508576636530615	3.2854953681632653
O	-5.188774331630611	-0.1813369366530614	3.500827108163265
O	-4.598795871630612	0.8972667533469386	2.938612768163265
O	-4.981056511630612	-4.2365987736530615	3.981349188163265
O	-0.827416374630612	0.6408896803469386	1.5118789581632652
O	0.474375198369388	0.5114316653469386	1.268404932163265
O	1.249923558369388	-0.6073849996530614	1.5900535881632654
O	1.0116971983693879	1.3927594463469388	0.3826275575632652
O	2.236411408369388	1.6755308363469386	-0.004345161836734779
O	1.0189921483693882	3.2526235063469384	-0.7523908118367348
O	0.24133353836938798	2.4343160763469385	-0.04964005883673478
O	-0.973580998030612	2.7385934463469384	0.4678985300632652
O	-2.8814065716306123	1.9533380163469385	1.5717578781632653
O	-3.461854171630612	0.8385284783469387	2.2031608781632652
O	-2.911060581630612	-0.4456189946530613	2.226616208163265
O	-5.768109341630613	-2.7189369136530614	3.915515658163265
O	-6.985387591630612	-2.7281927336530614	3.015801138163265
O	-6.331323171630611	-2.3754091336530614	5.281917658163265
O	-2.776008541630612	4.544596466346938	11.916701698163264
O	-1.020111408130612	1.2761079773469386	11.067000998163264
O	-1.866151335630612	-0.19974295065306136	7.673199558163265
O	0.07918035836938797	-3.4490308336530613	7.833453088163266
O	3.306892388369388	-5.299179313653061	7.386718378163265
O	4.7708216183693875	-6.270051993653062	4.030116898163265
O	8.019878548369388	-8.03118893365306	3.009459808163265
O	9.793973578369387	-5.993292893653061	5.649484588163266
O	5.900040138369388	-1.4323047936530613	8.897807778163264
O	3.5757442983693877	0.7471033453469387	6.838936648163266
O	1.6163442083693882	3.6195886463469384	8.416321558163265
O	-1.008160318130612	5.954240546346939	7.017118948163265
O	0.248990318369388	9.52357178634694	7.657748238163266
O	-1.939475384630612	11.877598616346939	2.770099578163265
O	0.937271418369388	9.40646173634694	2.423281588163265
O	1.973953768369388	5.857420006346938	3.297639168163265
O	5.130159838369387	5.589882356346939	5.454056728163265
O	7.286143958369388	2.4587905163469386	5.2886799181632655
O	12.954297578369388	-1.7382411736530616	-3.414819441836735
O	3.087757198369388	1.4814711663469384	-9.929947001836736
O	2.9730293483693884	2.8732052863469386	-6.3881556018367345
O	7.337213528369388	7.982685156346938	1.8235369281632652
O	4.827584118369389	6.668489296346938	-0.7550201018367348
O	1.6287119183693881	7.9687816563469385	-2.356466381836735
O	-1.3111123256306119	6.684124936346938	-0.2187554398367348
O	-3.815444341630612	4.304854126346939	-1.7409784218367348
O	-7.1390268816306115	3.5549056163469386	-0.0683373138367348
O	-7.605689341630612	-0.25283302765306137	-0.0673865128367348
O	-5.959906001630612	-3.4622525836530613	-1.2678540818367348
O	-7.6646739116306115	-5.7204288036530615	-3.8846738418367353
O	-8.188611991630612	-8.57885311365306	-1.4020743618367348
O	-10.308991051630612	-6.504373313653061	0.9701228791632652
O	-1.078444276730612	-11.25515128365306	-5.033710751836734
O	-4.282289171630612	-9.37403083365306	-4.119061581836735
O	-2.763641221630612	-7.925940473653061	-0.9103956618367348
O	-0.04197699163061208	-6.161898843653061	-2.9948397718367348
O	-2.4656901816306123	-4.6355087536530615	-5.511501591836734
O	-3.754445061630612	-1.2724418736530612	-4.279206681836735
O	-6.832737131630612	0.6553106363469386	-5.409038651836735
O	-7.977349511630612	4.265399856346939	-5.001028451836735
O	-11.360150321630613	6.0972737363469385	-5.179880451836735
O	-6.819575551630612	3.2282142163469385	-10.388660601836735
O	-5.121166361630612	-0.04331538865306134	-9.417089441836735
O	-1.369134482630612	-0.08381766865306134	-8.683140751836735
O	1.4735350283693882	-2.5356891736530613	-8.067496611836736
O	2.950700658369388	-2.2981595036530615	-4.601189561836734
O	5.488300738369388	-3.987341383653061	-2.303986961836735
O	8.581532468369387	-4.271432263653061	-4.468757061836735
O	10.527906078369387	-5.843576513653061	-1.5580318818367347
