47

O	47.49289537544421	-5.1994204870407135	9.132154359197003
O	48.19023321520237	-4.675832642530303	10.356548949108728
O	49.674826540650386	-4.83576503229003	10.324475662175036
O	47.90729133525942	-3.1866442629714107	10.567870499075664
O	46.61629589045594	-2.9918454281393814	9.912401812020256
O	45.53638989222495	-2.4492911139502107	10.618672379246073
O	45.62253185245048	-2.5740264260014225	11.889341047330806
O	44.18266111159634	-2.618520292620779	10.143609252818813
O	42.985857309196184	-2.369027407200555	11.193129600657395
O	43.46855417071854	-2.2866525017107873	12.55419125624848
O	43.38376266737961	-0.9933706983276362	11.13147461036883
O	43.065665884326044	-2.449747669325225	9.265241920804751
O	42.35698111382792	-3.6642258098578866	9.228911942802574
O	42.164584783089325	-4.552557721510953	10.35540808152875
O	42.968194886668016	-5.707932832941368	10.622522369507
O	42.0891201567251	-6.855153178788591	10.353475174120737
O	40.9116361952391	-7.107708636285025	11.061336252806141
O	39.82359265728582	-7.691447935221721	10.477097624306932
O	39.85032037109142	-7.974715670188265	9.116535176891219
O	40.857881728364454	-7.356527614923954	8.538175545061737
O	42.098540857722924	-7.587635456875365	9.213041610248933
O	40.96730739734131	-4.262439409140259	11.063621873518992
O	40.54128174549141	-3.838958160309283	12.366736732597804
O	41.308123273817614	-4.375271654186639	13.226065305642564
O	39.14349959220672	-3.7589419134554203	12.7743113210065
O	38.659552790491304	-4.959135128944575	12.964862723119918
O	38.49562819069496	-3.006643606539901	13.758572825941421
O	37.14854002552883	-3.08137313855894	13.949210385635858
O	36.46311333611296	-2.2671178445018385	14.930818712746003
O	37.16008905688499	-2.6190828059166797	16.199646748012995
O	34.80398702437609	-2.0172147827782125	14.767966686681177
O	34.57514230630175	-0.5665231661023613	14.708938392194163
O	34.09874246087882	-2.5947458560484504	13.60833059103789
O	33.9811375559374	-2.8879657102097744	16.033764967836063
O	36.728913271846196	-4.367423420677863	14.074418678245099
O	37.38118936384244	-5.061212963627053	13.13543278824488
O	36.88063214937161	-6.212356866386751	12.470744578278017
O	37.27580725292908	-7.06040784212585	13.324599090723297
O	35.47203155971062	-5.998265495464063	12.22661917978974
O	34.93164828641179	-6.598970448724566	11.090621525773532
O	35.309050891706526	-8.007172634190603	11.061469569591782
O	35.47821361108012	-5.616716401793713	10.057376766391611
O	35.75930945528909	-5.809264893978795	8.745318515614935
O	37.02104829516616	-6.441989905641895	8.307264834194745
O	38.046488302642096	-5.7695499724121	8.70065182532137
O	38.08111688960414	-5.406931818565521	9.972159342556495
O	36.739300638226965	-5.105425287118843	10.419637456648935
