123

O	-5.721160761657895	0.5740589177776318	4.630653230868421
O	-6.8022818016578945	-0.4676765713223683	4.556283390868421
O	-8.056838001657894	-0.09268110522236828	5.274678510868421
O	-7.191791241657895	-0.7674220802223684	3.1068593808684204
O	-5.984943231657895	-0.4296164744223683	2.3560862608684205
O	-5.382137591657895	-1.3753270392223682	1.5184484208684206
O	-5.666036591657895	-2.5896319822223686	1.8055774208684205
O	-4.009290951657895	-1.2203393662223683	1.0963394008684206
O	-3.253652141657895	-2.5211541022223685	0.5193038618684205
O	-3.9932374916578945	-3.7364884722223684	0.7805443538684205
O	-4.150063211657895	-2.3968104122223686	-0.5922478611315795
O	-2.9021956316578947	-0.6251907312223683	0.4123585818684205
O	-1.7733621716578947	-0.7286519832223683	1.2451502208684206
O	-1.4720879016578947	-1.8516092622223683	2.1073243608684202
O	-1.7786069916578946	-1.9045101322223683	3.5056370708684206
O	-0.4776175254578947	-1.8219243522223683	4.185254090868421
O	0.5319828163421053	-2.7759922822223686	4.037668250868421
O	1.8565534783421052	-2.4456778222223683	4.085938360868421
O	2.2220854983421052	-1.1100016632223684	4.206107800868421
O	1.1908233683421052	-0.3281089602223683	3.9674062208684204
O	0.03960137434210531	-0.6956291102223683	4.734026710868421
O	-0.6632930456578947	-2.8211959722223683	1.4554340008684206
O	-0.7171426276578947	-4.195337872222368	1.0458283108684205
O	-1.3598532126578946	-4.845102662222368	1.9283545208684205
O	0.4160687673421053	-4.914256332222369	0.4754751088684205
O	1.2925888483421053	-5.187212952222368	1.4072397408684205
O	0.49248106134210534	-6.035462472222369	-0.3561009601315795
O	1.6866230383421053	-6.528610472222368	-0.7890024451315795
O	1.7721656583421053	-7.6570661322223685	-1.6921340091315793
O	1.0347504283421054	-8.724967212222367	-0.9604338421315795
O	3.1857862083421056	-7.884186392222368	-2.5819462191315794
O	2.818194538342105	-7.907681322222368	-4.004860399131579
O	4.282568598342105	-6.906226012222368	-2.4541581391315797
O	4.014644588342105	-9.287707982222367	-1.9649740591315794
O	2.5534996583421057	-6.721539232222368	0.23909894886842048
O	2.4404432483421052	-5.644527572222368	1.0238069608684206
O	3.4851602283421057	-5.090004622222368	1.8102997808684207
O	3.300836178342105	-5.813615392222369	2.8334485708684203
O	4.705979768342105	-5.179849392222368	1.0414594108684205
O	5.6601193183421055	-4.186609412222368	1.2569663808684206
O	5.8958296183421055	-4.044049322222368	2.6888997708684204
O	4.985975248342105	-3.0749709222223687	0.45637844686842055
O	5.078083908342105	-1.7299063522223683	0.5974597928684205
O	4.294942408342105	-1.0017136782223683	1.6175782608684206
O	3.029194348342105	-1.1624092282223684	1.4428934408684206
O	2.5949746783421057	-2.3989003722223683	1.2641048508684207
O	3.5810027383421055	-3.1481481922223686	0.5171175198684205
O	13.370452528342105	2.2393018077776317	0.5688375588684205
O	13.508303028342105	-0.8636580192223683	-1.6430668691315793
O	11.333483628342105	-3.2329720922223686	-3.7249220691315794
O	9.361952398342105	-5.662344302222368	-1.5471050491315794
O	9.997466028342105	-3.3224928422223683	1.5293579908684207
O	8.493634998342104	0.17625259477763172	1.1528454308684206
O	9.156964068342106	3.6704130977776313	0.1516215438684205
O	9.182865308342105	6.1989215677776315	2.9529590408684205
O	6.724185828342105	7.305055877777631	7.269216610868421
O	5.762329488342105	5.253332537777632	4.428534140868421
O	3.964259868342105	6.764546547777631	1.4775786008684206
O	0.7601023583421054	4.891257087777632	0.6530628548684205
O	-1.8235900916578947	6.122033767777632	-1.9859469691315794
O	-3.895473341657895	2.9372610177776317	-1.1370524191315794
O	-5.209149191657895	4.247683357777632	2.2012192208684205
O	-6.231706501657895	7.535805457777632	3.9785698708684207
O	-5.067760241657895	7.294967587777632	7.582854040868421
O	-1.9608421016578947	8.931484577777633	9.00735693086842
O	-0.6890231696578947	6.505591307777632	11.68837121086842
O	-9.058381931657895	0.19454042277763167	13.72745011086842
O	-7.476246951657895	-0.2127594452223683	10.31108821086842
O	-7.386993111657895	-3.5152061022223684	8.43309381086842
O	-5.456329681657895	-3.6994747122223686	5.252844020868421
O	-5.251553231657895	-6.418434072222368	2.4951658708684206
O	-2.2122771816578948	-7.453665612222369	4.34152535086842
O	-1.6744196116578947	-6.340348042222368	8.01943651086842
O	-3.915570001657895	-4.432044942222369	10.46465521086842
O	-3.555967761657895	-2.1567755622223683	13.45325831086842
O	-0.7992979776578947	-7.6532519522223685	13.51295371086842
O	1.4489149183421053	-8.514466982222368	10.61172511086842
O	1.6191384583421053	-4.727734142222369	10.00798011086842
O	5.233818548342105	-3.5516815922223683	10.80523521086842
O	7.975245548342105	-5.276407312222369	8.69979811086842
O	11.897217328342105	-1.9687933322223683	6.611929900868421
O	9.784302228342105	2.9311883577776316	8.51706684086842
O	4.412882818342105	4.920103447777631	10.35634231086842
O	2.2794720883421054	5.402566067777632	7.32442299086842
O	0.8936419583421054	8.283775247777632	5.290919920868421
O	-2.4691682416578944	7.447352307777631	3.6857814908684206
O	-6.108953801657895	8.726842267777633	-0.6098434221315795
O	-9.452890191657895	10.383961367777632	0.1673168948684205
O	-11.532675171657894	10.830371967777632	3.3347439508684205
O	-12.043230271657896	5.4701640077776315	3.0205253508684202
O	-10.412572071657895	6.795576177777631	6.196124750868421
O	9.619766228342105	5.166024077777632	-6.68334975913158
O	-12.453516771657895	10.092574867777632	-5.097957649131579
O	-12.174448671657895	7.294764267777632	-2.57993434913158
O	-9.198431581657895	5.131822237777632	-3.5487784391315795
O	-7.216132561657895	6.6182580677776315	-6.428023339131579
O	-6.600076521657895	1.5457860577776317	-8.10449405913158
O	-3.0957658716578944	3.0893870477776315	-7.909616449131579
O	-1.6256084116578946	1.9924342477776318	-4.704927409131579
O	1.9745143883421055	2.7926806777776316	-3.6805054491315796
O	1.6134683983421054	0.8268462677776318	-0.5843823711315795
O	1.0471567183421053	-2.6460039422223685	-2.6376470891315797
O	4.079801358342105	-4.509317242222369	-4.118588669131579
O	2.471344708342105	-6.286994092222368	-6.854366689131579
O	0.5703983003421054	-5.5177478022223685	-10.02393781913158
O	-2.6386773416578944	-7.325658012222369	-8.85713925913158
O	4.770914368342105	-16.039037632222367	-6.366385429131579
O	5.314681558342105	-9.904083932222367	-8.64144248913158
O	2.0236284383421053	-10.178146612222367	-10.53473718913158
O	-0.7374771146578947	-11.913359132222368	-8.60153718913158
O	-4.475534421657895	-12.349127232222367	-8.24672893913158
O	-7.062127081657895	-10.245677772222368	-6.426407759131579
O	-10.707627371657894	-10.699359432222368	-5.451871689131579
O	-11.001482171657894	-6.923306882222368	-4.845759799131579
O	-4.127089121657895	-2.8626790222223684	-7.898376599131579
O	-1.3831501506578947	-0.9517704042223682	-9.77205173913158
O	1.2829679483421053	-1.2355953332223684	-7.054513469131579
O	5.049679708342105	-0.7372435012223684	-6.876638609131579
O	5.493797118342105	-3.0185659522223687	-9.88076585913158
O	3.7563776883421047	-0.34475938332236833	-12.01053538913158
O	4.9160271283421055	2.6772834077776317	-10.06758168913158
O	8.624773928342105	1.7531876677776317	-10.19397988913158
O	8.411285588342105	2.2495456477776314	-13.95286978913158
