82

O	-3.7366334172631577	-0.03199263382456158	-0.5342574546315789
O	3.5699523327368423	2.0202449311754385	-1.9323697686315788
O	-1.4942328972631578	-2.2470894788245612	0.6809314213684211
O	-2.5437422272631576	-2.708377728824561	1.3608020313684213
O	3.476050842736842	-0.19886533882456156	-1.4577584886315789
O	-0.11056957426315794	-1.9889261888245617	0.833797391368421
O	2.4111081227368425	-3.4262637388245616	0.34422018136842103
O	2.458077752736842	-2.3779183388245615	1.192445591368421
O	2.2407143027368424	-1.2462586888245617	0.2769282963684211
O	0.7985984327368421	-3.7696084288245615	0.20600722636842106
O	2.8666856727368417	0.9630983111754384	-1.277187254631579
O	-1.1444387602631578	-0.30421849082456165	-0.512647951631579
O	-3.2807809472631577	-1.1647009888245616	0.026952819368421088
O	-1.9678064672631579	-1.2224726188245616	-0.033412838631578956
O	-3.6610156772631575	-2.1056497988245613	0.8543816213684211
O	7.138781562736843	0.4958124181754384	-2.306201348631579
O	5.535065672736843	0.8109791931754384	-1.622083154631579
O	4.895828132736843	1.8773333811754385	-2.279128558631579
O	4.779190792736842	-0.1207929908245616	-0.848700116631579
O	3.0040138427368417	-1.3437731488245617	-0.810395679931579
O	3.388463242736842	-2.6484955888245616	-0.313989730631579
O	0.8464426327368422	-0.9405854288245616	-0.01427215063157894
O	0.13802664673684206	-1.2893290388245615	1.8084521013684212
O	-1.6917498232631578	0.47022708017543846	-1.3742949526315789
O	-2.933050697263158	0.9006233201754384	-1.160013647631579
O	-2.6412863772631576	-11.417270118824563	-9.49527308863158
O	-1.187188009263158	-12.684716418824562	-6.1852047586315795
O	1.993027342736842	-10.711918418824562	-5.6476659486315794
O	3.8236231027368426	-7.474592438824561	-6.226667098631579
O	3.814280882736842	-5.494377798824561	-3.0158722486315788
O	5.972533852736842	-2.4309435688245613	-3.767910908631579
O	6.895626472736843	0.3856241941754384	-5.86304103863158
O	6.7994755027368425	4.009793411175439	-5.08614140863158
O	7.547560172736842	7.0458167611754385	-7.20527744863158
O	6.075913182736842	6.047993481175439	-10.643167478631579
O	3.4401744127368428	3.6865175311754386	-9.206382588631579
O	3.2514332527368426	0.07030592217543843	-8.46755978863158
O	0.8781134227368421	-1.7511353188245615	-6.172108808631579
O	-0.15735345726315786	-5.4314055588245616	-6.42599114863158
O	-2.041426647263158	-7.800647768824562	-4.144261158631579
O	-4.826642317263158	-9.331405928824562	-6.186936438631579
O	-7.709043337263157	-6.065805148824562	-2.778166408631579
O	-4.766706757263158	-3.7815511288245616	-3.4779080886315787
O	-4.296436787263158	-2.5424656688245615	-7.03749590863158
O	-2.227097107263158	0.4398369091754384	-8.104195228631578
O	-0.9634136202631579	0.9728686361754384	-11.658041168631579
O	-11.622771287263157	8.678709011175437	7.113129671368421
O	-7.1235649872631575	6.908183081175439	5.092761221368421
O	-6.956655137263158	3.8000690711754386	2.9304416013684214
O	-10.389179927263157	3.0992431211754385	1.349898931368421
O	-5.866112457263157	0.6803551411754384	-12.357704968631579
O	-6.8936989272631575	1.9138916811754383	-8.89407165863158
O	-8.535137887263158	-0.6751517818245616	-6.640155408631579
O	-8.289383327263158	-0.1513363518245616	-2.902626988631579
O	-8.846969827263157	-2.1758576788245616	0.255716828368421
O	-5.9540677172631575	-4.548542838824561	1.140860131368421
O	-4.374300887263158	-3.765070888824561	4.507209091368421
O	-2.797608197263158	-7.004018978824561	5.5966793613684205
O	0.12992687973684214	-5.7715034588245615	7.64925981136842
O	1.750180572736842	-3.775533328824561	4.7002723713684205
O	3.629684452736842	-0.5614042058245616	5.340843241368421
O	4.373046482736842	0.9377682591754384	8.589208091368421
O	8.093740912736843	1.0784208421754384	7.570833101368422
O	8.253936492736843	-2.7518827588245616	7.108878821368421
O	5.969558472736843	-3.5932280688245615	10.03216503136842
O	7.879299342736843	-1.4589543188245615	12.53857153136842
O	9.978135412736842	-6.588021438824561	11.73662223136842
O	6.955742982736842	9.113650521175439	5.117892521368421
O	6.445928602736842	5.777853601175439	6.956887891368421
O	6.829476112736843	3.9508518111754385	3.6636787013684216
O	3.533886392736842	5.5747470511754385	2.627979521368421
O	1.5773036427368423	4.681131001175439	5.815223931368421
O	-0.19791706326315794	1.3103920611754385	6.1536019713684205
O	-1.1057315512631578	-1.0221568288245617	9.020671011368421
O	-4.649281967263158	-2.381761358824561	9.06044821136842
O	-3.879876837263158	4.621868031175438	7.55389778136842
O	-2.268198917263158	7.000070631175439	5.087135591368421
O	-2.004052207263158	4.747524641175438	2.164833241368421
O	-0.5659678492631579	6.4563743211754385	-0.9320262836315789
O	-1.468898303263158	9.841976071175438	-2.517978498631579
O	0.878484382736842	9.703937091175439	-5.542348808631579
O	7.835876942736842	10.606885681175438	10.10657933136842
