17

O	-31.85435974331413	-8.988521130995704	12.14872322477752
O	-35.81912609413595	-10.007612501538821	10.007505922155486
O	-32.323671614737954	-8.501728430457101	13.328368186156883
O	-31.78462754236969	-7.438720012545888	14.039074604896982
O	-33.65237940048498	-8.481719105697216	13.758591235043568
O	-35.38261339552867	-9.21459116249762	11.060007296444198
O	-30.49512095975063	-7.139953473997865	13.742371652381243
O	-30.565705186962933	-8.613229236035611	11.965534102734146
O	-29.94401942436757	-7.646565936967843	12.634556042253259
O	-32.81561503513055	-6.651252339908439	14.321944893329976
O	-34.00423806355246	-7.19542783700903	14.031168090072397
O	-32.814940897882416	-9.195085317287175	11.093469880559567
O	-34.096149482067815	-9.555978927063913	11.483537985329292
O	-37.01259321395581	-10.724431870310571	10.027677509700567
O	-38.02606093312108	-10.170522254366574	10.752324117029325
O	-37.676092079809195	-9.427541687283178	11.870008622357922
O	-36.41185536689279	-8.912087805054927	11.955564661396668
