17

O	-14.129181733535233	11.901254222756	31.694689183489533
O	-15.19551224428329	11.319301216554415	31.088755317591637
O	-15.02254319046324	9.838929149058849	31.069252859266914
O	-14.891348278863031	9.535420694051362	29.7039490928832
O	-16.28763070530426	9.386506760010331	31.723099770699474
O	-16.70194409358151	8.327673426808833	30.776328729897592
O	-17.211970085267772	10.443773621250052	32.012331289353604
O	-16.534972856929247	11.578856593302007	31.535756576072206
O	-16.847680709689165	12.512127567724606	32.628905845803615
O	-17.41028710348241	13.599182168579851	32.17257878132655
O	-18.25587789574699	14.060686567098017	33.095854731868194
O	-18.503538366342354	15.4331344198269	33.29934769853896
O	-19.454002085641704	15.643761155195705	34.25505660425358
O	-19.461317999900327	14.815792397112858	35.33141499651613
O	-19.05108185099565	13.520854673286532	35.19668648663446
O	-18.10507127711089	13.323020909922041	34.23127367004847
O	-17.205209548832684	12.378313955385774	33.891661538908316
