31

O	11.124443885875483	-19.81619009329276	-21.915907266681856
O	10.947315782325298	-21.10566562541025	-21.475509588710207
O	11.694309788995819	-22.229082280398362	-21.258082062758326
O	11.457120887466106	-23.51959872837809	-21.534450017729245
O	12.627399244910011	-24.380785638691737	-21.610646256905873
O	12.552690584612751	-22.30101966715936	-20.25095251610867
O	13.754303204695757	-23.139250680378808	-20.286947200960007
O	13.85669909122122	-24.385820134433438	-20.92741787736419
O	14.432533124936418	-25.649220357964353	-20.551875335766248
O	15.775098263278394	-25.81615705882168	-20.351623458657453
O	13.53437664586243	-26.582896320602906	-20.194684176756173
O	12.248574274849949	-26.356657016484206	-20.169631020026177
O	11.61791506196387	-27.443600248076176	-19.76016794419687
O	12.565243243961234	-28.3433117445667	-19.539944959852935
O	13.818541760441377	-27.80590325929284	-19.872802682713587
O	15.141447903098154	-28.111539468570868	-19.802187426577234
O	16.08280182691762	-27.195660249938754	-20.191508963927017
O	10.227797530167166	-27.45164111895943	-19.59711543725977
O	9.56902278103004	-26.22049221542461	-19.807569467001112
O	10.032088586940617	-24.982105124738624	-19.60600311098616
O	9.152900082310579	-23.927917583842927	-19.830390275314496
O	8.08030868682188	-24.065746630647826	-20.618922226116922
O	7.464699855604026	-25.254660521983162	-20.237098283516136
O	8.319528449100666	-26.27547842597793	-20.099250724927916
O	7.229186675108301	-23.003507132273693	-20.901906959618337
O	7.587061452165394	-21.680975359456546	-20.54504155925979
O	6.781150130791141	-20.730196428379063	-21.379344920107606
O	5.359700117112343	-20.897540735552592	-21.262368959746464
O	4.686022427538299	-19.88494617444784	-22.028259071487557
O	5.058249657552349	-22.208019089740702	-21.77624825314752
O	5.816897498706806	-23.201922881338557	-20.975910788389058
