32

O	-1.597766265909091	9.41167653040909	0.5289334221863635
O	-0.9653388959090912	9.017988310409091	-0.6302851958136365
O	0.38648647409090886	8.72976502040909	-0.6221252058136365
O	1.1471075510909088	9.05554773040909	0.4812496391863635
O	0.47448926409090886	9.17987111040909	1.6828035031863635
O	-0.8688294959090912	9.53108006040909	1.6831339031863637
O	2.8529459340909087	9.423308320409092	0.3917010731863635
O	3.330702644090909	9.099576960409092	-0.9846845768136364
O	3.5946217040909088	8.633996950409092	1.4188478231863635
O	3.091080974090909	11.10756264040909	0.6621193101863635
O	-1.6320395459090913	4.2562550714090905	0.2609830590863635
O	-5.097080135909091	3.0318378484090904	0.9299912291863635
O	-6.87381576590909	-0.01938249959090932	2.2080994131863636
O	-6.799567695909091	0.43613663040909056	5.995870073186364
O	-4.664206325909091	-1.4161608295909094	8.592079773186365
O	-1.940585695909091	1.1771933604090905	8.375103973186365
O	-1.710176935909091	1.8866003804090905	4.631780733186363
O	-3.3322228959090907	-1.2361559995909097	3.0627501531863635
O	-1.940109115909091	-3.807708749590909	0.5519037191863635
O	0.6457805840909088	-5.232398019590909	2.9917396331863633
O	2.2630574750909087	-1.730642299590909	3.2254188331863634
O	2.3097966620909087	-0.8891147595909095	-0.49058742181363646
O	5.622196854090909	-2.534033359590909	-1.2311872668136363
O	7.5418503840909095	0.10445715040909054	0.8329231501863635
O	6.651159804090909	2.8698806624090905	-1.6365070068136367
O	5.987935944090909	0.5984155304090906	-4.666478396813637
O	8.559581974090909	-2.22115968959091	-4.535520266813637
O	4.345824704090909	-4.957590079590909	-5.2657850768136365
O	-0.24084932590909114	1.6697482704090907	-6.758708906813637
O	1.8355942390909088	2.2297788804090906	-8.865225966813636
O	1.1354187400909088	-1.4995133795909092	-9.547542376813636
O	-12.667543925909092	7.283555880409091	1.3388989431863636
