22

O	82.72945942558385	5.439517269701694	32.33217197799134
O	83.84970066319691	5.534960170955205	33.16172357094767
O	83.70078292063465	5.447265706697944	34.51280379230488
O	84.58337630300775	4.524875499633927	35.24493985799582
O	84.20174705380464	3.354928364734352	35.329435510888906
O	85.52594751017202	5.171276398031208	35.96515794662286
O	82.44403556120645	5.456364216865695	35.03766036671743
O	81.41536185809852	5.820220195267508	34.17156829464363
O	81.46281916138464	5.617799375131812	32.81726758467888
O	80.36283653279025	4.720257260897755	32.442285142416914
O	79.5948875509884	4.9657551581172275	31.360695397144667
O	79.93790449571603	6.539025904086735	30.858644171300483
O	78.83644401378427	7.206515928853918	31.522674662843137
O	81.15867167503566	7.276792743542204	31.16614291252622
O	79.6279870462668	6.548618092039799	29.15846369108629
O	79.06707115420866	7.674163702193411	28.57328340398801
O	78.73330754023577	7.489096598591299	27.25961380477048
O	80.00372538460209	6.410061081831243	26.796480534360164
O	80.0679851755951	5.571986436280434	28.331197078008458
O	80.87665323508871	4.445716895979293	28.74086143879264
O	82.05599784914335	4.947213336381651	29.245782018242895
O	81.02407360943393	3.581909405426437	29.79171220971736
