72

O	-0.14462554870185185	0.24809953624074088	-0.5879106492777775
O	-0.5593264727018519	1.544662000240741	-1.0267988382777775
O	-1.905051775701852	1.7110808202407408	-1.3086375972777775
O	-2.508739235701852	0.7135251032407408	-1.8287856522777775
O	-3.5098487457018517	1.347079420240741	-2.0164494022777775
O	-2.0610947357018516	-0.43475926075925914	-1.4333553832777775
O	-0.8578769747018518	-0.8383302097592591	-0.9693922452777775
O	-0.8218282257018519	-2.194010109759259	-0.7386763382777775
O	-1.9009320657018518	-2.7628879597592593	-1.2697353092777774
O	-3.1541914657018517	-2.336017469759259	-1.7455238022777775
O	-3.225561295701852	-1.164474659759259	-1.3286638772777775
O	0.14717073829814814	-2.573194239759259	0.1979196057222225
O	1.302742014298148	-3.3743135697592592	0.25242153872222245
O	2.617603954298148	-2.5998373597592592	0.4192294097222225
O	3.8262112442981477	-3.483987749759259	0.4217962987222225
O	3.797347404298148	-4.579286689759259	1.4483036477222226
O	2.520641884298148	-5.3719691097592595	1.1837412277222226
O	1.3821457542981481	-4.407634089759259	1.3393038177222225
O	1.3761657242981482	-7.38836990975926	-7.609505782277778
O	0.09547594329814818	-6.22607429975926	-4.255033372277778
O	3.0681139642981483	-6.542522129759259	-1.9236940822777775
O	6.799391234298148	-6.332243899759259	-1.5215040922777774
O	9.101121754298148	-4.646364139759259	0.9809823477222226
O	10.353062774298149	-1.744192269759259	-3.218094722277778
O	7.177099074298148	-3.321405079759259	-4.521666092277778
O	3.629086274298148	-2.131369439759259	-4.965932432277778
O	1.5660545442981482	-3.1783263997592592	-7.962867902277778
O	-2.0473928957018517	-2.679525869759259	-8.969508452277777
O	-2.1775253557018517	-0.7086653997592591	-12.205323932277777
O	-7.070623095701852	1.5765320302407408	-10.667349532277777
O	-4.174745355701852	2.865169460240741	-8.554130592277776
O	-1.3736627727018518	1.363971630240741	-6.451464862277778
O	2.109720994298148	1.9060770202407409	-7.867091672277778
O	5.287430744298148	1.6864408502407409	-5.787605482277778
O	8.60514455429815	1.3544376202407409	-7.599831832277777
O	12.09514147429815	0.16513004124074088	-6.784683752277778
O	13.51050287429815	-3.262415029759259	-7.504488642277778
O	3.394088814298148	10.98203397024074	1.8672382977222226
O	-6.339833975701852	7.10309691024074	8.436741417722223
O	-3.380848535701852	7.54195897024074	6.088478617722222
O	-3.401861915701852	6.21283261024074	2.518441287722222
O	-3.896915715701852	8.874249660240741	-0.14406808527777754
O	-1.0713291387018518	10.13145615024074	-2.3055279822777774
O	-2.2675195457018518	10.45774657024074	-5.902038482277778
O	1.170034774298148	6.5059582902407405	-7.1786216222777774
O	-1.3518699367018518	5.94838877024074	-4.356160192277778
O	-5.045137385701852	5.12735719024074	-4.073750102277778
O	-5.944507355701852	1.436276780240741	-4.534281942277778
O	-7.632396835701852	-0.1743471367592591	-1.5124103522777774
O	-9.218569685701851	-3.398267549759259	-2.8911271222777777
O	-9.637466805701852	-4.95459245975926	0.5433810037222224
O	-5.897252955701852	-5.03785250975926	0.9104569077222224
O	-4.059898925701852	-5.12611643975926	4.194332027722222
O	-5.149136815701852	-6.5636287597592595	7.553917387722222
O	-2.943382485701852	-9.58251908975926	6.745922067722223
O	-5.229383695701852	-10.37246892975926	3.8086427877222224
O	7.581355734298149	-0.3009068267592591	10.236018167722223
O	2.775140524298148	-3.8407511997592594	11.428427167722223
O	-0.5585405797018519	-5.3424030997592595	10.479716867722223
O	0.8600626942981482	-5.91053246975926	7.0120115377222225
O	1.212765064298148	-2.095670319759259	6.551204317722222
O	-2.336105875701852	-1.2306139197592592	7.556074367722222
O	-4.804775535701852	-1.160659199759259	4.669215727722222
O	-8.54762911570185	-1.754522499759259	4.909708897722222
O	-8.340130355701852	1.354515270240741	8.066407457722223
O	-5.372567815701852	3.404600110240741	6.8528851577222225
O	-1.6465752457018519	3.223734080240741	7.498825777722223
O	-0.46368038180185184	2.3140205402407408	4.013417697722223
O	3.2937522542981483	2.297362710240741	3.6912014477222224
O	6.041236114298148	4.730819080240741	4.737895197722223
O	9.156070514298149	3.028330940240741	3.3380369377222223
O	11.123247674298149	3.4148290202407408	6.578182237722222
