9

O	5.917141391171907	11.026783969800542	44.88820823657169
O	5.339970507377082	12.225476479639811	44.249683920095016
O	4.822130685317345	13.085458305752168	45.215886640725664
O	4.074694919943517	14.112833474550547	44.73982917480349
O	3.4571228698787335	14.933502452580983	45.7841747451453
O	3.4662679651310926	14.02721703661253	43.570578187539176
O	3.8842196581367108	13.085752338463616	42.735843645255144
O	3.2055007856922324	12.949171148696944	41.524623552756054
O	4.555182836418203	12.028539868983678	43.189470452411214
