19

O	-3.2645423524403547	-2.6511063583904004	21.521984565305758
O	-1.939740000864071	-2.2199349694978086	21.100962625105126
O	-1.4171819510545203	-2.528336209017836	19.91432249249644
O	-0.029107756688064867	-2.4329552436545967	19.771532382447493
O	-2.2349046641388925	-3.336086258314622	19.246349072680633
O	-3.4748488680757332	-3.8490803719653517	19.73920263817326
O	-4.201576162708572	-3.2299362082650434	20.78210537521383
O	-4.95760402030458	-4.282638099007207	21.559370411860236
O	-6.290963898428277	-4.554132862110126	21.494456395021636
O	-7.654322661965978	-3.7221192864681307	22.33196106592554
O	-7.068167837651652	-6.119874572678133	21.9374552258233
O	-7.616770023152499	-4.747308049286971	20.2701799003979
O	-3.8381745196592445	-5.2316517780110425	21.81851901991191
O	-2.7739498331089876	-4.628916872109153	22.352710813837607
O	-1.3813822919076224	-4.831432070954498	22.06448318817265
O	-0.9452522585401932	-5.499183283734332	20.991734016397203
O	0.2852955194318727	-5.292058421892113	20.42838770079096
O	-1.9851907212922157	-6.192782242242162	20.530328761919634
O	-3.3792481436632587	-5.954447371595391	20.743680267233934
