20

O	99.9283540857041	20.154565259750584	31.133595386298232
O	100.17698094467528	21.022508419377694	32.64932125281246
O	100.38679164505355	20.16346554475073	33.68788208167093
O	101.41198499935477	20.36369750928097	34.63524118230686
O	100.93717954097475	22.14721837913447	32.651973824911614
O	101.76998088212427	22.366193250605903	33.75097681420332
O	102.24586482752851	21.393005454297764	34.59176476852127
O	102.52810210687839	21.875657267089988	35.94022061608895
O	102.08834757524883	21.150320186628228	36.997800009124006
O	102.1714815245629	23.296387767600557	35.93390545286736
O	102.54394016649144	24.22925005381606	34.90562584373265
O	101.79560995305975	25.400854178747764	34.983080365979845
O	101.52280144008832	25.779871096035325	36.241035952719294
O	102.18134590553483	25.071642805558746	37.29312783234723
O	102.58114237150063	23.780785088538657	37.1448735464893
O	103.74725818969164	22.89947985203699	37.31221247655497
O	103.9037254997666	22.200071764358228	36.19597847887173
O	105.00210757382183	21.375056477663435	36.50771170868572
O	104.6070935453278	21.148896409784204	37.97003777645978
O	104.72674566589929	22.595720306282445	38.35395665790695
