97

O	2.125165644451948	-4.902424742415585	1.029437633922078
O	0.8576444944519483	-3.6844808824155844	0.8792096939220782
O	1.0922618044519483	-2.616583122415584	1.6947664839220782
O	0.9529660444519483	-1.2853390624155843	1.250931533922078
O	0.36426647445194815	-3.3896516024155843	-0.3506420290779219
O	0.04969806445194824	-2.0567770824155844	-0.6223180640779219
O	0.5867837144519483	-0.9689907324155843	0.017013040922078115
O	-0.2968715115480518	0.19285853158441568	0.031280359922078116
O	-0.4680879805480518	0.8676491165844157	1.1946009039220782
O	-1.5172185715480517	-0.23056980241558434	-0.6594835470779219
O	-1.5458269165480518	-0.9524965724155844	-1.902190166077922
O	-2.799754145548052	-1.5084303124155842	-2.141476016077922
O	-3.8159138655480516	-0.7351661424155843	-1.7291502790779218
O	-3.495351475548052	0.5902253745844157	-1.301666328077922
O	-2.2774313155480517	0.8989602464844156	-0.7825483686479219
O	-1.1676967793480517	1.8559675915844156	-0.9135198900779219
O	-0.0341257655480518	1.1709690465844156	-0.9871797830779219
O	0.9327838444519481	2.1930916975844155	-1.0551658320779218
O	0.21361095445194822	3.141568647584416	-0.09144190007792186
O	-0.9973618605480518	3.306947657584416	-0.9639121570779219
O	11.290063154451948	6.368131287584415	0.35932046392207817
O	8.210641094451947	7.6402496075844155	2.221694453922078
O	6.896434444451948	9.359957367584416	-0.916716448077922
O	7.775022334451949	6.173248307584415	-2.7863431860779215
O	5.677454994451948	4.237923967584416	-0.3539090590779219
O	2.668327674451948	6.555045517584415	-0.8463369690779219
O	2.970682604451948	7.030679287584415	-4.690381796077922
O	1.463981594451948	3.8591450875844155	-6.2737122160779215
O	-0.8605496515480517	2.643169997584416	-9.039297836077923
O	-3.752210775548052	4.360347577584416	-7.271761106077921
O	-2.187664117548052	7.770461307584415	-7.9437086960779215
O	-2.3419786455480516	7.204310337584415	-11.694030146077923
O	-5.598769535548052	5.242552667584415	-11.943377346077922
O	-7.758765615548052	5.350805847584415	-8.815689736077923
O	-7.647704665548051	9.063226917584416	-7.982976176077922
O	-0.03210520554805174	-3.7178797224155846	11.991509153922078
O	1.875398034451948	-6.805425662415585	11.019161053922078
O	-2.421856575548052	-6.002563822415585	7.2388860339220775
O	0.8005081244519481	-5.334353492415585	5.295881503922078
O	1.5876694944519483	-9.065589602415583	5.1553059439220785
O	-1.8161480445480518	-9.942158102415585	3.646880433922078
O	-1.6936168655480517	-7.0603420124155845	1.1772556639220781
O	1.8363158244519484	-8.230440012415583	0.10781122692207812
O	0.41520583445194825	-11.593502202415584	-0.633467430077922
O	-1.6207053985480517	-10.221295902415584	-3.5364138860779217
O	0.14007735445194824	-6.869195952415585	-4.263976816077922
O	3.535085374451948	-8.170497832415585	-5.409525486077921
O	-0.3408579975480518	-7.516547982415585	-9.317418456077922
O	2.9113916944519485	-5.531921642415584	-9.462340016077922
O	2.8865927344519484	-4.387065442415585	-14.863556246077923
O	-9.314831535548052	8.344556077584416	-1.2073487690779219
O	-6.602056275548052	7.733871827584415	3.6479965939220786
O	-5.704890285548052	5.140976427584415	1.032371673922078
O	-3.452004645548052	7.343947517584415	-1.152078082077922
O	-1.2817706073480517	8.332175937584415	1.8469895139220782
O	-1.0513973725480517	4.6689929775844154	2.968297063922078
O	-2.2768955955480514	5.293913867584416	6.437091093922079
O	-3.0440017055480517	2.3803196175844157	8.763953673922078
O	-0.8188490435480518	-0.28634522241558436	7.123482473922079
O	2.006642254451948	-0.28329712241558436	9.614483853922078
O	4.3980703344519485	0.5929346545844156	6.776863743922078
O	4.728482634451948	4.285459227584416	7.729236563922078
O	6.436708374451948	13.385817997584416	1.740581033922078
O	2.646070204451948	13.715958297584416	1.831807743922078
O	2.214804214451948	12.135428997584416	-3.034649606077922
O	-0.5075002195480518	14.730339097584416	-3.6297483060779223
O	3.2949254044519485	1.4717878965844156	-12.883798546077923
O	5.945304144451948	-1.1119625124155843	-12.052789846077923
O	8.219928644451949	1.3491927865844158	-10.246336406077923
O	5.172831544451948	2.8137285075844156	-8.529157196077922
O	4.308027334451948	-0.6656833924155844	-7.288402116077922
O	7.895651404451948	-1.6733400524155844	-6.475359696077922
O	8.525663734451948	1.3311109315844156	-4.239441076077922
O	5.261155204451948	0.49712928458441563	-2.376293866077922
O	5.835684494451948	-3.264475572415584	-1.9637744760779219
O	9.393381554451949	-3.0688693924155843	-0.5232349230779219
O	7.917614744451948	-0.6533098024155845	2.0420042139220778
O	4.966163254451948	-2.9590152024155842	2.6600817439220785
O	7.180630754451949	-5.9924712624155845	3.4328051739220786
O	9.465440654451948	-4.140225932415585	5.8431480639220785
O	7.151555354451949	-4.465326092415585	8.883718523922077
O	7.396157604451949	-8.250079772415583	8.779308433922077
O	-9.201130145548053	-14.520411702415585	-3.428717406077922
O	-7.414717355548052	-11.271353202415584	-4.183310886077922
O	-10.587525175548052	-9.227097402415584	-3.675818986077922
O	-7.857572105548051	-10.179687502415584	0.9723870039220781
O	-8.088422215548052	-6.646514692415585	-0.2915133730779219
O	-11.404099745548052	-6.067300632415584	1.431378173922078
O	-6.906754345548052	-6.157572492415585	5.153595273922078
O	-6.594114055548052	-3.504678862415584	2.468827283922078
O	-9.918813145548052	-1.6916072024155842	3.049724323922078
O	-11.733780645548052	-2.346024932415584	6.3194755639220785
O	-6.509295345548051	-0.12490225241558439	7.518521133922078
O	-9.300806575548052	2.259727987584416	8.608498983922077
O	-6.166776645548052	0.23839491758441567	12.391611253922077
O	-5.951225075548051	3.952585567584416	11.628280053922078
O	-3.539583255548052	4.142726107584416	16.316486453922078
