11

O	-19.86278550537468	-34.936280702679184	19.37617810422582
O	-20.02429981156894	-33.58815908875357	19.27101219601228
O	-20.423483090158932	-32.83531080239973	20.130222563087486
O	-19.283207802836387	-32.92698968194639	18.181338998403476
O	-19.28245116986204	-31.543807316569428	18.04199562976683
O	-19.206220880396828	-30.94737133270343	16.7306507160868
O	-18.21175304991843	-31.646689479541017	16.105948680351844
O	-18.690667386173907	-32.97445555713284	15.93869892422658
O	-17.67888947803351	-33.70066060202654	15.544322351620321
O	-19.328763400057163	-33.61168412493511	17.021589522224936
O	-19.659394639386818	-35.0128631276255	16.97835425293595
