84

O	-1.0444034732050003	2.735048446794999	1.9037428343833334
O	-0.6234563183050004	2.6413377167949994	3.2581066343833336
O	0.7938986787949996	3.0132504367949995	3.1436254943833335
O	0.8913370187949997	4.189080246794999	2.2190317143833336
O	1.503839588795	1.8354545467949992	2.5997749843833335
O	1.3497594587949995	1.9968302567949991	1.1337193743833334
O	-0.08507422620500033	2.320140726794999	0.9911374843833333
O	-0.6604287122050003	1.0085054137949991	1.2977055743833334
O	0.043496983794999666	0.10966253479499921	2.0898182343833334
O	-1.7999021012050003	0.41808924379499923	1.0412857043833332
O	-1.6860592912050003	-0.6256077232050008	0.2315942463833333
O	-2.686656531205	-0.8894846432050008	-0.6547579906166667
O	-0.5765276357050003	-1.3347239532050008	0.44779416738333333
O	0.2847235807949997	-1.0594879132050008	1.4424972243833332
O	1.6446511787949998	-1.3836818832050006	1.0675259343833332
O	1.9096850387949997	-1.3393376232050007	-0.3133932466166667
O	2.9965244687949997	-0.4469716232050007	-0.4666154886166667
O	3.9652743087949998	-0.9567869232050008	0.2570330503833333
O	5.2680810687949995	-1.3576552432050006	-0.2418870980166667
O	5.978123928794999	-0.44366243320500076	0.41994137838333334
O	5.285258718794999	-1.2165247032050008	-1.530004025616667
O	5.590406408794999	-2.5179926832050006	0.3383000043833333
O	3.7713281387949995	-1.0940748832050007	1.5658410043833335
O	2.537554358795	-1.0369287932050009	2.0324785543833332
O	-4.587922051205001	-3.4633215532050006	-15.615786455616668
O	-2.9578010212050003	-1.1613760132050008	-12.980726655616667
O	-3.048544531205	-2.613369443205001	-9.449224565616667
O	-4.801230901205001	0.3969425797949992	-7.962593625616667
O	-6.0726426112050005	0.3634695387949992	-4.3993289356166665
O	-8.067681351205	3.008170586794999	-2.501060255616667
O	-6.281649741205	3.357095626794999	0.7593035153833333
O	-9.146435001204999	4.328459566794999	2.997226074383333
O	-11.660926381205	1.9154676967949993	1.517826084383333
O	-13.173763481205	-0.33342778320500077	4.182043694383333
O	-10.240056951205	9.341089786795	-1.1213084516166667
O	-6.713651831205	8.334041116795	-2.1135558856166665
O	-6.0006088312050005	5.855816066795	-4.906346515616667
O	-2.528763671205	4.579297146794999	-5.872894395616667
O	-0.6404333462050003	1.6076979867949992	-7.262245495616667
O	-0.3074955892050003	-0.9657190032050007	-4.524705125616666
O	2.689315448795	-2.7984659032050008	-5.9207774256166665
O	4.379824778794999	-0.3445452832050009	-8.333404995616668
O	6.267466858794999	2.8131056167949993	-7.086173075616666
O	6.777509578795	5.966984206795	-8.986267195616668
O	3.6913113087949996	3.5739917367949996	-12.346547055616668
O	3.927712788795	11.142754506794999	-4.263211095616667
O	4.483502688794999	9.631457396795	-0.8493978636166667
O	7.305256468794999	7.8149887767949995	0.8966707543833333
O	6.328831218794999	5.571284666794999	3.8467527743833334
O	8.419469838795	4.305822656794999	6.769323074383333
O	8.184820688795	0.7660670300949992	5.490502424383333
O	10.144477318795	1.6473399717949992	2.1796954943833335
O	12.661129418795	3.911779956794999	0.4015807193833333
O	10.706610318795	4.474861716794999	-2.9535470956166665
O	7.767570668795	6.884137286794999	-3.3947493456166664
O	4.240544058794999	5.681601066794999	-4.325147435616667
O	2.0787603787949998	8.016142576795	-6.270127115616667
O	-1.6195618012050002	8.477301126794998	-5.6123935356166665
O	0.12527307679499966	-2.409181013205001	11.251794044383333
O	-3.390603721205	-1.2417798032050007	12.083803944383332
O	-5.369021231205001	0.9312375457949992	9.664975684383332
O	-8.548661631205	-3.1901117732050004	9.228709734383333
O	-4.856358571205001	-4.054466623205	9.366311264383333
O	-1.8903496812050005	-4.1345035632050005	7.1212413943833335
O	-0.5415907469050003	-7.657671943205001	7.359381864383334
O	3.1669532487949996	-7.613493743205	6.620067234383334
O	0.06337361679499964	-14.864944393205	-5.547769595616667
O	-5.876339241205001	-4.9317379232050005	-2.0143229756166665
O	-4.669801451205001	-6.483772913205001	-5.339394715616667
O	-3.3552934212050003	-9.922359893205	-4.630048705616667
O	0.1381070127949997	-9.311230493205	-5.916906765616667
O	3.391428848795	-10.141834593205001	-4.137885395616667
O	6.860902198794999	-8.711258813205001	-4.8221354556166665
O	6.955708598794999	-10.045291493205001	0.2852889743833333
O	3.1432597087949996	-10.246825993205	0.6077690193833333
O	1.3319100287949999	-7.491799893205	2.4190352543833336
O	-2.3305916312050003	-7.068981733205001	1.8904359843833336
O	-4.7769523812050005	-4.876145703205	3.7736365243833334
O	-7.271918111205	-6.932299373205001	5.401994904383334
O	7.948707768794999	2.3369650167949994	13.718141544383332
O	4.9636741687949995	4.314013656794999	15.097280444383333
O	2.0499748687949997	2.000242396794999	15.928795344383333
O	1.5790519487949997	5.600483576795	11.434338344383333
O	-1.0457880102050003	4.059806466794999	9.166057094383332
