74

O	3.0721720393794874	-4.036590159897436	-0.2579130760256408
O	3.359172539379487	-4.182385279897436	1.0950886379743592
O	4.087809689379487	-2.973171089897436	1.213554395974359
O	5.230371859379487	-2.790113709897436	0.41263133487435916
O	4.8490593693794874	-2.470305449897436	-0.7906100220256407
O	3.7186391093794873	-3.142369829897436	-1.2229190320256407
O	3.3675481993794874	-5.215254939897436	2.4708434979743594
O	3.867003599379487	-6.857819229897435	2.226340287974359
O	4.002309289379487	-7.589772359897436	1.0984898399743592
O	4.218161289379487	-8.915261549897435	1.1305491739743592
O	5.146201949379487	-9.277641719897437	2.090886517974359
O	4.847684439379487	-8.759204769897435	3.3162503879743594
O	4.261472029379487	-7.544629889897436	3.388662867974359
O	2.470057768379487	-5.442663749897436	3.545928407974359
O	4.057059339379487	-4.598811199897436	3.719960187974359
O	6.564797099379487	-3.356741009897436	0.7204838359743592
O	3.196254769379487	-2.160800879897436	-2.0914151320256407
O	3.696092159379487	-0.7685447428974359	-2.111795442025641
O	4.9130963693794865	-0.5372262908974359	-1.4242705620256408
O	4.9073589393794865	0.4082158901025641	-0.4134322120256408
O	3.759468939379487	0.9087045801025639	-0.8627107720256408
O	3.222408929379487	0.405529000102564	-1.9414817720256408
O	6.354266199379487	-4.498434309897435	1.5715672479743592
O	6.719667149379487	-4.404305629897436	2.9641192579743594
O	6.891220809379487	-5.601879759897436	3.8290080679743594
O	7.444958639379487	-6.8392727998974365	3.3061190479743594
O	7.225336319379487	-6.917791149897436	1.8742049079743592
O	6.644729369379487	-5.816181099897436	1.0802075489743592
O	8.734992119379488	-7.028699079897436	3.758298537974359
O	5.872261419379487	0.397265500102564	0.7215723099743592
O	7.176864499379487	-0.19912568989743595	0.5762996129743592
O	8.237477279379487	-0.664143003897436	1.3953778579743592
O	7.9421675093794875	-0.700585928897436	2.701764967974359
O	6.668066389379487	-1.0724861583974359	2.810241547974359
O	5.804907499379487	-0.22792559089743591	2.019359947974359
O	3.944930569379487	-6.822202849897437	-8.910841062025641
O	4.868745799379488	-3.198760639897436	-8.475535112025641
O	6.4843945793794875	-1.141352207897436	-5.820722462025641
O	9.353602819379487	0.841406150102564	-7.413097462025641
O	10.242764309379488	4.105700430102564	-5.706561122025641
O	13.782477889379486	5.273945060102564	-6.682333872025641
O	-5.618238990620513	6.032472640102563	-4.083715232025641
O	-2.1563893206205127	4.1041174601025645	-4.446204712025641
O	-1.8895000406205131	4.381706630102563	-8.239648982025642
O	1.119866595379487	5.771479100102564	-10.01031479202564
O	6.352514959379487	2.636535520102564	-10.58152789202564
O	3.442986149379487	2.257917040102564	-8.215874452025641
O	0.881306212379487	-0.08702961389743602	-7.4483394720256415
O	2.0446384533794872	-2.869934449897436	-5.306807252025641
O	0.04128880937948698	-3.190976229897436	-2.079109642025641
O	-0.07814567062051281	-6.567137709897436	-0.8288697220256407
O	0.027872279379486997	-6.328117889897436	2.923465597974359
O	1.934057639379487	-2.8716486698974357	3.3954976479743593
O	0.9558685323794871	-0.23168183389743602	5.886149127974359
O	-2.144293700620513	-0.08126709789743591	7.701118507974359
O	-0.5875037706205131	0.8830249701025641	11.046024607974358
O	1.761408648579487	-2.216243999897436	11.034609907974358
O	-1.125138160620513	-4.257896079897436	9.775532167974358
O	-3.5701830006205126	-3.214071649897436	12.474048607974359
O	-0.781724300620513	-3.900815679897436	14.946740307974359
O	1.130594795379487	4.910667200102564	8.46280789797436
O	0.5319423293794872	6.5675116201025645	5.025525887974359
O	-2.145895870620513	4.009316210102565	4.087174367974359
O	-1.463769170620513	0.653046000102564	2.5532298779743594
O	-3.4930823406205125	-2.512685399897436	2.675035447974359
O	-4.183895380620513	-4.388714339897436	-0.5705587050256409
O	-5.909691800620513	-7.488543219897435	-1.6805524120256408
O	-8.609262310620512	-8.477538169897436	0.8716402229743592
O	-7.945205930620513	-5.556676429897436	3.253923327974359
O	-8.918286910620512	-2.818912979897436	0.7972719699743591
O	-5.529146980620513	2.970813050102564	-0.17829483202564084
O	-4.187878840620513	6.392100920102564	0.5815020499743592
O	-0.5340812706205127	6.817545800102565	-0.3456265630256408
O	1.970052392379487	9.612901340102564	-0.46676177802564084
