28

O	62.581366884705524	16.989463991103577	49.64393636421181
O	63.268394733459274	17.848867510748807	49.04909532771154
O	64.22573035123051	18.325134457064344	50.03551993021169
O	64.78942434985565	17.61651997236451	51.108557654426335
O	62.791959497690456	18.566830682964344	47.93356635516568
O	62.80003781058983	19.965388234761946	48.32000486401427
O	62.47945894433085	20.80211225521093	47.296627675214935
O	61.459031832979925	20.343172550717494	46.45994317120897
O	61.460747072548415	18.257427443510004	47.542896619299036
O	60.690668139092864	19.261234890473254	46.94248486383698
O	60.74311966453198	16.73469568122023	47.427259035887154
O	59.52645255570741	15.914982026902152	48.317292518794154
O	59.82135367692756	15.997468495995832	49.639312425552546
O	59.34499695216798	14.919430066420082	50.431454351214505
O	58.84987285919899	14.876118756217409	47.75149590884864
O	58.20833162561696	13.951096804860791	48.5164885210256
O	57.26111534830523	13.030089619049578	48.22578668287347
O	57.04740928395428	12.38691626781846	49.33439450194997
O	57.69526050176701	12.945550433579912	50.39497938963496
O	58.372240821293474	14.051248712949103	49.89333895480671
O	57.27634780090783	12.820285525793201	51.70495202121175
O	57.04052957013234	12.483487637743458	52.910226562629624
O	57.65806989981008	13.050802197244293	54.09363729781064
O	58.88024132886514	13.429325942933158	53.8315106428595
O	59.48867766945906	14.722431646114092	54.159728535240276
O	59.5155626957529	14.605685269148736	55.589314105179426
O	58.49965842644174	13.787001746925377	56.239137630310765
O	57.423911262890925	13.321299081019047	55.40916531036797
