28

O	11.0187284654133	53.43199175099802	94.66415092347812
O	12.42254019658848	52.92228204247171	94.69027906123182
O	12.93202071674222	53.14044141826528	96.10686562714581
O	12.395858493394748	51.445149920752506	94.45639298030737
O	13.376426014315625	53.567035028040145	93.77018551626466
O	12.57712512381153	54.08419531979089	92.5920739160666
O	11.676631084543171	54.90667184492734	92.96087846061559
O	13.44025123422325	54.369356928960165	91.47525716751599
O	14.606815305445934	55.20142278834177	91.6655226076907
O	15.22462551676103	55.5041835387266	90.36136713003428
O	15.378829368843274	56.84593022251673	90.19830925258384
O	14.38328025282615	54.77906169301857	89.37480864230035
O	13.113897557978698	54.43699983043746	90.0849152944524
O	12.420507670577313	53.25006027256156	89.54927487800515
O	12.239641884908213	52.17985144345266	90.16462377908726
O	11.654553260580915	53.454458927480374	88.38607352869495
O	10.849131621062764	52.50053608708231	87.68472620356728
O	11.567527058048185	52.22200382202824	86.41339191056996
O	10.999648197530094	52.09746654272627	85.18172220770312
O	11.774912070174496	51.66018509017036	84.10962127533102
O	12.673941655704578	51.44837204564835	86.60420677439437
O	13.391101558913473	51.107854074497986	85.50785724444988
O	13.155796246524472	51.4943769430285	84.22674669115084
O	13.972769577446677	50.921921449425966	83.1755904309949
O	15.062318963600077	51.39825978758388	82.59744566132262
O	14.862461192543176	51.21950907667657	81.29251247796691
O	14.366886347262916	49.95209229466434	81.2932634600759
O	13.544922940860427	49.92088651626455	82.34652780871754
