71

O	-0.3167758173789472	8.525009795105264	-2.751590827
O	-1.2060310173789475	7.380509135105264	-2.388991147
O	-2.3616409873789475	7.552168005105264	-2.9150349269999998
O	-0.5821303773789472	6.126926835105264	-2.214310097
O	-1.105180877378947	5.133217845105264	-1.3396327569999997
O	-0.44014248737894723	3.919211207105264	-1.7153041269999996
O	-0.9241238373789473	2.8810373471052637	-2.315012037
O	0.9928049226210527	4.303955775105264	-1.8449254369999997
O	0.8690775696210526	5.813322055105264	-2.188387567
O	1.0381313635210527	6.604659865105264	-0.9089633019999996
O	1.7179410956210526	7.580490205105264	-1.1459750609999997
O	1.1583616720210528	5.451875465105264	-0.1145792829999997
O	0.2604293446210527	4.366196445105264	0.25373316400000034
O	0.8658777876210527	3.014904920105264	0.18600875500000028
O	0.38630625662105267	1.8726886851052638	-0.3491519799999997
O	2.302303902621053	3.321491046105264	-0.015223396999999694
O	2.410924622621053	4.724955015105264	-0.3685676499999997
O	3.5560263326210526	5.570373125105264	-0.3377592362999997
O	3.6446049326210526	6.689732265105263	0.26136915500000035
O	4.5822920026210525	5.3564171251052635	-1.2761685769999997
O	5.932775852621052	5.742583595105264	-0.8478476109999997
O	6.304137642621053	4.7824674151052635	0.2065001910000003
O	7.529913392621053	4.205871327105264	0.11794196600000031
O	7.976982902621053	3.138429721305264	0.8634018330000004
O	5.484830812621053	4.138733737105264	1.0933267330000003
O	6.161362062621053	3.599298853105264	2.2006195930000003
O	7.225624792621053	2.787927540105264	1.9558612530000004
O	7.622603022621052	1.863816405105264	2.995880173
O	6.766761602621052	0.5293312351052637	3.6686953730000003
O	8.111682172621052	-0.26902512489473596	4.387710673
O	9.041732202621052	0.6770506451052638	4.340482293
O	8.879993062621054	1.6794901951052639	3.496033003
O	9.951002462621053	2.722930561105264	3.313511783
O	-10.932611207378947	0.994651515105264	1.6816964130000003
O	-8.374592617378948	1.3937272151052638	-1.0421065619999996
O	-9.746832707378948	2.146253055105264	-4.511020597
O	-8.274228147378947	5.516433855105264	-5.673251497
O	-7.109017797378947	4.129682788105264	-9.049922197
O	-4.017062327378947	6.318882895105264	-9.432626757
O	-2.2404876373789473	3.577771782105264	-11.320392357
O	1.2001766700210528	2.834922723105264	-10.091692247
O	2.093287732621053	-0.6815093748947363	-8.988662417
O	5.481069922621053	-1.6703622948947365	-7.640147037
O	5.624630412621053	-4.280701474894736	-4.919934367
O	8.234191612621053	-6.131949564894736	-2.916895247
O	7.287422072621053	-6.380694264894737	0.7578085430000003
O	6.671129682621053	-6.145114894894737	10.468687643
O	4.2919966426210525	-3.184733194894736	10.414594943
O	2.7383013626210526	-2.5687665148947363	6.983466923
O	-0.7068310773789472	-0.9759693348947365	7.191948283
O	-2.410636577378947	0.7222085651052637	4.283705213
O	-6.108260167378948	1.2458571051052638	4.379334373
O	-6.6016507273789475	4.726918935105264	3.0570219030000003
O	-9.446739507378947	6.132864495105264	0.9851295930000004
O	-11.733039807378947	6.572114185105264	4.0058683230000005
O	-2.165818207378947	4.219340455105264	7.945676463
O	0.9415459986210527	2.6802053371052637	9.512696913000001
O	4.016913042621052	2.531136161105264	7.324028133
O	7.722092232621053	2.131898915105264	8.145030853
O	8.647799352621053	-1.2256759848947358	9.699230173
O	11.697968492621053	-3.4136553548947366	0.5196768370000003
O	10.716518742621053	-2.3735132948947357	-2.960384977
O	7.8407606826210525	-0.03097297489473627	-2.524388487
O	5.640045752621052	2.0705637251052638	-4.735108367
O	1.9139078696210527	1.5161541851052638	-4.1172629469999995
O	-1.0831567773789472	1.4739676651052638	-6.454582207
O	-4.9681781073789475	-0.2924045648947362	-2.780609207
O	-5.409252357378947	-2.4247005348947366	0.34816514200000037
O	-2.667157677378947	-3.543847304894736	2.709637573
O	-2.8694325173789474	-7.765235564894736	-0.0695234789999997
O	4.105227672621053	-9.845749064894736	-1.1848932869999997
