67

O	0.6868103999499997	-1.8363393319749999	1.315537708175
O	1.7413950537499998	-2.370308871975	0.7048209391749998
O	1.9503987897499997	-1.6484530119749998	-0.5321063638250002
O	0.6146363217499997	-1.3095291919749996	-0.6850994688250003
O	-0.009098211250000321	-1.1956280619749997	-1.981329731825
O	2.6147681797499995	-3.275236761975	1.468816848175
O	3.2637607297499995	-1.8681988219749999	-1.2111366918250002
O	4.01753360975	-1.6746091319749998	-2.3807567518250004
O	5.51213147975	0.2959964070250003	-0.3528958998250002
O	3.60646245975	0.8656284060250002	-1.2487438618250002
O	4.318102799749999	0.10536021902500026	0.4165307341749998
O	-0.11765350525000029	-1.4292804019749996	0.4130946031749998
O	4.33287585975	-2.446108181975	-0.5230591538250002
O	5.681024209749999	-2.088113981975	-0.4062962798250002
O	6.03797344975	-0.9557991619749997	-1.096629791825
O	5.4161132597499995	-1.2400410119749996	-2.3661283118250003
O	5.003153719749999	1.2110681600250002	-1.1441339118250002
O	3.16459879975	0.5202788914250003	-0.04995637492500023
O	2.8085808197499995	0.8992687470250003	-2.4372341518250003
O	1.5622356087499998	1.0871797350250003	-2.207116811825
O	1.4761995397499996	1.6709893380250003	-1.0270770158250002
O	1.9362145197499998	0.7664431070250002	-0.03210808985500023
O	4.46319248975	-0.7122303319749996	1.5906296981749999
O	5.54557532975	-0.7907233019749997	2.4835308281749997
O	5.14625765975	-1.4857703019749997	3.7254284481749997
O	6.99575692975	-1.0713568219749996	2.2893004181749994
O	5.8735069397499995	0.7284247930250003	2.6744240081749995
O	6.0984039897499995	13.130930178025	-0.27063799382500026
O	4.00849151975	10.124983368025001	0.8182946621749997
O	2.2595240397499996	9.654376888025	-2.581901691825
O	4.75705135975	7.5694874880250005	-4.551472611825
O	3.8659974597499995	4.223888178025001	-3.3580858818250006
O	0.1922686687499997	4.811748868025	-4.4092196418250005
O	1.2454299047499997	5.981318048025	-7.856449301825
O	1.1804584267499998	2.498226228025	-9.427664091825001
O	-0.39538911025000023	-0.8447659119749997	-8.568434701825
O	0.9766077007499997	-2.7702726319749997	-5.725257731825001
O	3.5808235197499996	-5.149957401975	-6.9813991118250005
O	2.9631059297499998	-8.064553401975	-4.641030451825
O	5.52926889975	-10.110068821974998	-6.473668461825
O	8.394910349749999	-7.758288691974999	-5.934229021825001
O	7.2734421097499995	-7.123238521975	-2.3602283718250003
O	7.033051459749999	-10.843624321975	-1.680501711825
O	3.4540539197499998	-10.590518021974999	-0.44648267782500023
O	1.9581446497499997	-13.746437821974999	-1.8493947918250002
O	-1.9015311602500002	-9.563113121974999	-1.0497932718250003
O	-4.20125144025	-10.391263821974999	-4.019754891825
O	-4.06053289025	2.827549008025	-7.047083541825001
O	-3.66024757025	6.532530498025	-7.8688735718250005
O	-11.112721350250002	1.5304454280250004	-2.5435953618250005
O	-7.40358004025	2.413678098025	-2.6422210118250002
O	-7.354810990250001	3.6459345880250003	0.9473187111749998
O	-9.58983815025	0.9150104480250003	2.2810755381749996
O	-7.35251704025	-1.7419409219749997	0.6968969221749998
O	-4.35542565025	-0.3133516769749997	2.421526598175
O	-6.19705718025	-0.3037895309749998	5.806972528175
O	-1.7394604102500004	-3.608720851975	6.648338238175
O	-1.3925520002500003	-3.259209201975	10.420650298175
O	-2.65379925025	-0.07103829797499978	12.187139898175
O	0.8597666697499997	0.9065989820250002	13.245585798175
O	2.5155372097499997	0.35306576302500026	9.886592628175
O	4.32663175975	3.151061478025	8.064582138175
O	2.2296302497499996	2.653132858025	4.996970928174999
O	-0.8970514202500002	3.091286938025	6.956729778174999
O	0.3710389057499997	6.367162248025	8.409268958175
O	1.3254247717499998	7.444616738025	4.855756508174999
O	-2.1312978202500004	6.427120658025	3.6436797681749997
