61

O	-2.3069704301333336	-0.13092819494000008	-0.8755422111333334
O	-0.31126745013333357	3.29443089706	-2.2206257611333333
O	-0.4629008801333335	3.99379190506	0.8646582868666666
O	1.4803898638666664	2.54553754106	0.7418953638666665
O	3.0812641298666663	4.48488588506	0.6291303008666665
O	0.9794836548666666	1.01292701506	-0.9141670511333334
O	-1.2736050601333333	2.97200564966	0.31203464266666653
O	2.7295319398666664	3.18498879806	0.14926880286666652
O	5.633493639866667	6.06724650506	0.9585769578666665
O	4.137740689866667	4.19692688506	1.5681878988666664
O	0.7542020874666665	3.59850627606	1.2035442398666665
O	-0.39882690013333344	5.20536548506	-0.06964065813333348
O	-0.8322044601333335	1.65913425506	0.21377800766666655
O	0.13400004586666658	5.34262816506	-1.2083513011333333
O	0.7256053298666665	4.19783774506	-2.0027455711333335
O	-1.4204307201333335	3.9773224360599997	-2.670792561133333
O	0.5507899948666666	1.6935410550599999	0.14535421686666652
O	-1.6046944801333334	5.32619875506	-2.6932098811333334
O	4.1742546598666666	5.31985422506	2.5462574388666668
O	-2.1439937701333336	5.811615375060001	-3.8975153211333335
O	4.407250489866667	6.48504127506	1.6582483888666664
O	5.779413209866666	7.04730172506	-0.07906947313333346
O	5.118788549866666	8.361141565059999	0.21263236106666653
O	6.653356069866667	6.30711314506	1.9457672488666664
O	7.4877941898666664	5.12048546506	2.3016873688666664
O	3.4053760298666664	6.75774673506	0.6018015598666665
O	3.2903280198666662	5.55458653506	-0.2508194021333334
O	-3.1563607801333338	5.04611014506	-4.386106191133333
O	-3.0680083801333335	3.69251112806	-4.221630131133334
O	-2.4699613001333334	3.22627621706	-3.0323558911333333
O	-1.8170606501333335	0.9647633850599999	-0.6500112921333334
O	7.071504669866666	-1.1750340049399997	-5.416535201133334
O	8.614784199866667	-2.91439532494	-2.4854135611333334
O	5.391620969866667	-4.84582348494	-1.7591555111333332
O	5.2324880298666665	-6.99775529494	1.3574058788666665
O	0.05313859986666658	-4.15415585494	3.0819146988666666
O	3.3884788898666662	-2.48991663494	3.047620428866667
O	5.339825669866666	-0.6633837549399999	0.14665080086666654
O	8.349077229866667	1.47952584506	-0.5581196371333335
O	6.687829769866666	3.38477852606	-3.4907174511333334
O	3.3075635298666666	4.14006065506	-4.997225201133333
O	1.6715374508666665	1.68085470506	-7.3045422311333335
O	-0.39735743013333347	2.89913890226	-10.284822521133334
O	-4.2180669001333335	3.45025471606	-10.141052621133333
O	-3.651768870133334	-1.6483424749399997	-8.689218841133334
O	-4.965764250133334	-0.8869230849400003	-3.6174271811333334
O	-5.852291470133333	2.29274866406	-2.0798424311333332
O	-3.8883991001333333	4.69354877506	0.18109834686666654
O	-3.5618675901333336	4.5192519750599995	4.031268528866667
O	-5.7825648301333334	6.75996469506	6.076520158866667
O	-4.060236840133333	9.987010405060001	7.157013158866667
O	-1.9111983101333334	9.07150592506	10.147291178866666
O	-1.2842546101333334	5.50294641506	8.985691458866667
O	1.8291811498666664	4.11893044506	7.255541338866666
O	0.33617656286666653	0.9759021150599998	5.918954828866666
O	-3.1133705901333335	-0.32810084494000025	4.795398518866667
O	-4.898159860133333	-3.32416256494	6.428721468866667
O	-7.243645710133333	-5.82575235494	4.777063438866667
O	-1.4433397901333334	-12.169563734939999	-1.7068585211333334
O	-0.6561531101333334	-10.57875823494	-5.003069201133333
O	-0.34476746013333337	-6.954355114939999	-5.854154121133333
