82

O	-0.4691191243137256	-3.0637145652470585	1.4642333659235294
O	-2.3718122993137256	-2.3609747952470586	2.7729613959235295
O	-2.3633428493137254	1.5525273257529415	3.5370146559235294
O	-3.4768453943137256	-0.44290548524705853	3.5201172259235296
O	-4.692630964313725	-0.9702246152470585	2.7563042859235294
O	-2.2112732473137253	2.9702033447529415	2.9657247459235294
O	-2.5173153313137258	-0.9535725852470586	-0.3001110060764704
O	-4.780733974313725	1.5508714877529415	0.8157496459235295
O	-5.177160914313726	3.7440256147529416	0.23048144692352956
O	-3.903059614313726	3.7534174547529418	-0.32593128224647044
O	0.9525032556862747	-3.334087695247058	-0.47088996207647044
O	0.14627187568627442	-2.397140515247058	-0.9321712900764704
O	-0.4441996243137256	-0.2847310652470584	-0.3853516791764704
O	-1.2932995443137254	0.3232628857529415	3.4200926459235297
O	2.5309875356862745	-3.9694907952470584	-0.8057856760764704
O	-0.00779289431372554	-1.4318883652470582	0.07306931092352958
O	-0.021117794313725513	-1.8373159052470585	1.3904231659235298
O	0.4986483956862744	-3.8050238552470588	0.7611295359235296
O	-1.3453797733137254	-3.311823265247058	2.5284116759235293
O	0.10925501568627438	-5.231267355247059	0.7794273359235296
O	-2.1887618113137255	-1.1044547252470585	3.5124580659235294
O	-3.4745265043137255	0.8646203427529415	3.7029181959235293
O	-1.5026680683137255	-0.48372304524705856	-1.3958473340764703
O	-2.6313550313137255	0.23159603075294155	0.35591800392352957
O	-3.4784336043137256	1.4746603957529416	0.37263499592352956
O	-5.503162094313725	2.6927504247529415	1.0043129859235296
O	-3.1164286343137255	2.6919450647529417	-0.16655033807647043
O	-6.097520974313725	4.785757254752942	0.10656836492352956
O	-5.817300294313726	5.642625384752941	-0.9673695030764704
O	-4.473089204313726	5.990561484752941	-1.0703315890764704
O	-3.5870506443137256	5.111398064752941	-0.5058903790764704
O	9.507119495686275	0.16653645075294154	3.3852216359235294
O	9.732683995686275	-2.1241764552470586	6.46352679592353
O	11.811067295686275	-6.064462355247059	2.6800792359235293
O	13.204807395686275	-8.762772075247058	5.010412935923529
O	1.1024146756862743	0.4320394257529415	12.060184365923531
O	-0.17020241431372551	-1.3789488152470586	15.180342965923531
O	-3.169855244313726	1.0782387607529416	15.10939886592353
O	-0.7380439043137255	4.0838065447529415	15.41204606592353
O	-2.3372815013137256	-8.919093175247058	8.22733227592353
O	4.837264405686275	-10.409858555247057	2.9529846059235294
O	3.007919555686275	-9.336026855247058	-0.08900797407647043
O	5.330312845686275	-10.678252955247057	-2.8283020940764705
O	6.1243391556862745	-7.144683195247059	-4.105325704076471
O	2.767577265686275	-7.43497772524706	-5.96686281407647
O	5.494941195686275	0.19304669075294156	-9.11540320407647
O	8.017873685686276	-0.7506962052470584	-4.20925605407647
O	4.578214265686275	0.9195238743529415	-4.1145040740764705
O	6.380521825686275	4.343012634752942	-3.8483684140764707
O	8.242716895686275	2.9559608447529415	-0.7961037440764704
O	5.181479565686275	1.6374837717529416	0.8394330759235297
O	3.3523976856862747	5.043180624752941	0.4066588739235296
O	6.307969845686275	6.950749884752941	1.6745692359235296
O	5.911430245686275	4.922625954752942	4.91834906592353
O	2.0974965056862747	5.304563874752941	4.98668970592353
O	2.3863538556862744	9.154365554752943	4.428307785923529
O	2.783397345686275	7.790660494752941	9.53140479592353
O	-0.07744720431372554	10.183602414752942	8.56657656592353
O	-5.266194124313725	10.065723884752941	9.10395744592353
O	-7.265389174313725	7.610748074752941	6.952379985923529
O	-6.968915404313726	8.439771524752942	3.1317200659235294
O	-4.374221584313726	5.664921084752941	2.7034768759235295
O	-1.9789153493137255	7.507287084752941	5.09420093592353
O	-2.7982336673137254	10.972753244752942	3.72890608592353
O	-6.7924734543137255	7.505848204752941	-4.672981704076471
O	-3.7176241443137252	5.145832434752942	-4.60540629407647
O	-4.492353514313725	3.2905747447529414	-7.93234576407647
O	-8.007412314313726	2.5100985247529417	-6.663961534076471
O	-6.614369464313725	1.6644191167529416	-3.2699452040764707
O	-4.190085124313725	-0.8128965552470585	-4.88250716407647
O	-6.9924157543137255	-2.3457070152470583	-7.24611035407647
O	-9.189641614313725	-3.0149789852470583	-4.115388194076471
O	-6.107176804313725	-4.5514909652470585	-2.2916890340764704
O	-5.300271384313725	-6.796588305247059	-5.20185483407647
O	-9.728329584313725	-8.377482575247058	-1.7665563940764706
O	-6.351046064313725	-9.450817655247057	-0.3126811641764704
O	-3.5892743943137253	-10.339932755247059	-2.8621524040764705
O	-0.09629953431372562	-10.827519655247057	-9.16187639407647
O	-3.600409464313725	-5.947374905247059	-11.21394093407647
O	-1.4964624393137256	-2.6469271952470583	-14.85536163407647
O	-3.2416714243137257	-0.9075865052470585	-11.97293603407647
O	-3.5082829543137253	3.485875714752942	-14.44733113407647
