32

O	50.100929200837044	17.089313551958085	-8.426350909678742
O	49.88278099513999	15.871831918401021	-8.29659828648937
O	49.683447587457295	17.672145849219802	-9.597809335355985
O	48.86959855082294	17.185692335126255	-10.601555319966469
O	47.64909181628743	18.064186115828246	-10.48420282882909
O	46.56980702764591	17.39726382782632	-10.018268649710357
O	47.42618581021227	19.2237050256728	-11.159761013118725
O	45.31079936398746	17.82052473582595	-10.319921922459496
O	46.203596353228626	19.373746745723455	-11.770086839257182
O	45.1271227818895	19.000802785609103	-10.97524259106597
O	50.03446203466409	18.02742710136783	-7.394864985245653
O	50.507783692185185	17.629700519372385	-6.142926475006789
O	51.748616897163785	18.887169710331715	-5.968782765600117
O	53.13223145924393	18.78298247164646	-6.460445969266135
O	51.60518327825394	20.3939289942153	-6.543788727462438
O	51.54213339982181	18.88805603835205	-4.249558195680865
O	52.783545044931664	18.247734362528227	-3.9502221408846374
O	52.52128756182964	16.957432836976835	-4.760161863431201
O	52.82827459871471	16.5512774694909	-5.921288360083816
O	52.557590753994745	18.05626108177347	-2.460059424194432
O	53.68221400388629	17.782834216487984	-1.6331753952132062
O	54.94931433308172	17.140054533313904	-1.9385730917293507
O	53.48606689767209	17.99893300294202	-0.20004406477420478
O	53.412989032254096	16.15950609622405	-4.061282980972202
O	53.15003585669842	14.782245096089262	-3.9179965759407827
O	52.29967190108274	14.299279317111218	-4.970205361581331
O	52.93543664394828	13.965747869536985	-5.958044897804392
O	52.102102888691476	15.03731573614981	-2.75653279403304
O	53.13477583786451	14.321042762988915	-1.8925303244394067
O	52.890327167641125	14.754772034789454	-0.5260724509535288
O	52.30614036908243	13.036988215942312	-2.101124462780144
O	51.05400202242403	14.793823253571723	-5.16757302688905
