80

O	-3.164457224178846	1.615654027459231	0.5530545974576925
O	-2.7236356501788457	2.855902597459231	1.4915201054576923
O	-3.484087194178846	0.933422547459231	2.0700088954576925
O	-3.155116474178846	-1.8312402925407691	2.3546235054576927
O	-1.7007236101788459	-1.312973172540769	2.967575405457693
O	-3.926816504178846	-2.000432342540769	3.7175607154576924
O	-2.130967906178846	-0.8960115725407689	4.384170015457692
O	-0.5490594641788458	0.08868710145923106	-0.6590061645423074
O	0.24160270582115428	-2.399841332540769	-0.8277157945423076
O	-1.2150911811788458	2.484630917459231	1.1142491894576925
O	-2.166685916178846	1.499432347459231	2.2983550454576926
O	-1.979132657278846	-2.737464422540769	2.8048723154576924
O	-0.9713570831788458	-2.290969062540769	0.7594467644576925
O	-2.9825371241788456	-1.9610223725407692	4.850654655457692
O	-1.1647590461788457	0.938982729459231	1.7158904054576927
O	0.7378698758211542	-3.533600012540769	-1.3718945345423075
O	-3.3347283441788456	0.4606106544592311	6.184786085457692
O	-0.5730306341788458	-3.378418152540769	-0.2067692795423075
O	-1.417538031178846	-1.666667072540769	-0.4409710915423075
O	-1.434321064178846	0.3756205656592311	0.4173706490576925
O	-1.358227435178846	-3.199808012540769	1.6657051054576923
O	-2.4791371691788457	-1.660129962540769	7.361151955457692
O	-4.851813804178846	-1.7564165625407688	6.655810075457692
O	-0.8683891541788458	0.8918140014592311	-2.2369581745423073
O	-0.34791333417884585	-1.275516492540769	-1.1998102445423076
O	-3.8019059741788457	-1.8616359425407691	6.473685785457692
O	-1.1384991431788458	2.636437237459231	-0.18077769654230746
O	-2.4282918861788456	2.137229137459231	3.4547799654576927
O	-11.817891784178846	-6.393930392540769	0.08855976845769253
O	-10.928284274178845	-2.732090432540769	-0.26150452454230744
O	-7.685686324178846	-1.662183622540769	1.2091484934576924
O	-6.9013400641788465	1.434068837459231	3.3630972554576926
O	-10.283807204178846	2.795241137459231	3.7441204054576924
O	-10.300643854178846	4.683359467459232	0.4539234036576925
O	-7.1570133241788465	6.721536017459232	1.1631507374576926
O	-5.486320614178846	5.207828477459231	-1.9726593345423074
O	-8.461610344178846	5.026456647459232	-4.085263654542308
O	-9.833358124178845	1.888847207459231	-5.498431594542308
O	-7.406695034178846	-0.6435002065407689	-4.335721534542308
O	-8.258110494178846	-4.162335712540768	-3.2651748245423073
O	-6.620443104178847	-7.156128062540769	-1.7878348445423073
O	-1.818431314478846	-9.43194843254077	-4.490358654542308
O	-3.009598454178846	-5.926747922540769	-4.5719574045423075
O	-5.2220348941788455	-4.644675322540769	-7.303719734542308
O	-6.180239334178847	-1.121839572540769	-8.251002914542306
O	11.957935195821154	-0.7368601025407691	-2.506443184542307
O	9.211350695821155	0.43193979355923107	-4.9173547145423075
O	5.976988835821155	-1.523768682540769	-5.022312364542308
O	-6.613392794178846	-3.326595172540769	-13.372717414542308
O	-3.1543734141788455	-2.668991902540769	-12.060768014542306
O	-1.876576296578846	-5.758248162540768	-10.199433814542306
O	1.070914125821154	-5.572106392540769	-7.851966854542307
O	2.7533433358211545	-7.347550282540769	-4.9744300545423075
O	0.9757325758211541	-7.328030512540769	-1.6227760645423075
O	2.7181933758211545	-5.617557342540769	1.3039585364576927
O	1.305500745821154	-7.313380232540768	4.3779302454576925
O	1.499115145821154	-4.757444352540769	7.091641875457692
O	0.3297916358211541	-1.692303032540769	5.767340625457692
O	1.724803205821154	1.900703857459231	5.888293625457692
O	4.649641475821154	3.069531177459231	7.693836025457692
O	2.6969082958211543	5.749359137459232	9.594796785457692
O	0.4309187358211539	3.196325287459231	11.221226185457693
O	3.367854635821154	0.7704640024592311	11.578213385457692
O	5.390836175821153	3.297017117459231	13.535522685457693
O	2.4208275158211543	4.306736107459232	15.668889485457694
O	13.243951495821154	4.643957597459232	1.3074354704576925
O	4.936348945821154	7.827524627459232	5.910624095457692
O	1.313023455821154	7.133581887459232	4.916933215457692
O	2.7701428758211537	6.470214407459231	1.4312066454576926
O	5.491779485821153	3.986097857459231	2.3926196454576925
O	4.451514965821154	0.3288844074792311	2.813150875457693
O	5.716343655821154	-2.284231352540769	5.099677405457692
O	6.138855255821154	-6.0463645225407685	4.885206855457692
O	9.667930995821155	-0.9025675325407689	3.3531066554576925
O	8.649523095821154	0.04366095245923107	-0.18022393554230753
O	7.568604365821155	3.447968977459231	-1.4277175545423075
O	4.1411323758211545	3.486915587459231	-2.994373324542307
O	4.363833595821154	4.315680297459231	-6.609939394542308
O	0.9809471358211543	5.512790527459232	-7.481455664542308
O	1.1012636358211543	9.07468785745923	-8.808069014542307
