111

O	-2.1520522297885716	-3.068852104987714	-1.9977064567285718
O	-3.0153994637885715	-2.275065444987714	-1.3820571397285717
O	1.1360524162114285	0.5949038690122859	-0.6911947357285717
O	-0.6979704097885716	-3.8583524049877145	-5.310816676728572
O	0.2439456362114285	2.183848559012286	0.8161798032714284
O	-2.9789595337885713	-1.3411886549877141	-0.3737659307285717
O	3.9674534662114285	3.999737715012286	-1.2893241507285718
O	-2.1898036677885715	-0.29924850498771405	-0.10701519672857174
O	5.286978786211428	5.227346605012286	-2.640569036728572
O	-2.6949199137885715	0.7733155160122859	-1.1246498437285717
O	-3.1302684837885715	-1.8867365149877142	-3.411161056728572
O	-3.4789625937885713	1.664281548012286	-0.39340572912857175
O	-1.8591443007885715	-4.303719224987714	-1.6003752767285717
O	-3.1521738537885717	2.8967332050122856	-0.7864324257285717
O	-2.5243096237885716	-5.339138544987714	-3.354424696728572
O	-1.6833223457885715	3.087486835012286	-0.7452529537285717
O	-3.2445674337885713	-4.107551404987714	-5.179014106728572
O	-0.7908035797885715	2.071884274012286	-1.0815207497285717
O	-1.3809637887885715	1.0101745900122858	-1.6776090167285718
O	-4.801023333788572	1.137316139012286	-0.027335986728571737
O	0.24427746621142843	1.3498111396122858	-0.2997383867285717
O	1.6111921062114283	2.6050480150122857	0.8865012332714283
O	2.1818863862114286	2.734629705012286	-0.4106735510285717
O	3.5371722262114282	3.083889225012286	-0.27189352172857173
O	3.8943372162114285	2.7164419850122856	1.0248585432714283
O	3.4676573662114283	1.8467444010122858	2.015731803271428
O	2.092584196211428	1.6490187430122858	1.7885362232714281
O	4.079694496211428	1.087315231012286	3.119942483271428
O	3.231714726211428	4.754789085012286	-2.1265610567285718
O	5.157469416211428	4.6460447250122865	-1.4204703317285716
O	-2.1715798727885716	-3.5794056149877145	-5.923203486728572
O	4.058714186211429	5.680898935012286	-2.7822193267285718
O	-3.9095036537885717	-2.233743054987714	-2.2671588767285717
O	3.391470546211428	6.738050835012286	-3.5870417267285717
O	-1.1222029507885716	-2.5005907749877143	-5.258786096728572
O	-2.3358900437885715	-2.994238694987714	-3.3006510867285717
O	-2.879595943788572	-4.1429135649877145	-3.786020616728572
O	-2.2345554237885716	-5.478913714987714	-2.0637441467285718
O	5.302955876211429	0.39656811101228595	3.0793174032714283
O	3.247832206211428	0.064171865012286	3.5804347832714285
O	4.339598536211429	1.5712322600122859	4.3732721432714285
O	-13.479211803788571	-1.1603504649877139	-8.778792556728572
O	-10.239874113788572	0.7620965340122859	-9.380793446728571
O	-6.939872183788572	-1.125385334987714	-9.17119700672857
O	-3.781853163788572	-0.7308372549877142	-11.346070036728571
O	-4.459945283788572	4.788850015012286	-12.04671403672857
O	-0.7254477237885716	4.093921075012286	-11.574320436728572
O	-1.1457121375885715	4.073798115012286	-7.702019076728572
O	-3.624754383788572	6.912641025012286	-7.6103413067285715
O	-7.218510803788572	6.596361105012286	-6.2899557267285715
O	-7.089709563788571	3.0796467850122857	-5.107352546728571
O	-9.925550113788573	0.5786307150122859	-5.110346246728572
O	-10.645025413788572	-2.994450104987714	-4.288454156728571
O	-9.313211923788572	-5.071947014987714	1.1642117232714284
O	-7.693702333788572	-2.228708074987714	-0.6663482507285717
O	-8.772667283788572	1.322569586152286	-0.1669001397285717
O	-7.103715413788572	4.458391345012286	-1.1726721247285719
O	-9.10016402378857	7.656792195012286	-1.1164485787285718
O	-2.8717121837885715	12.074426855012286	2.5390990032714282
O	-3.5799665037885715	12.314734655012286	6.209128043271428
O	0.14471978621142845	12.063970255012286	7.058729343271428
O	0.4479850562114285	8.928118805012286	4.8878805832714285
O	-2.3036331437885718	7.456634835012286	7.050127963271428
O	2.839598826211428	6.853260215012286	9.046874223271429
O	1.1024473862114286	3.6255695850122858	8.08732530327143
O	4.580060566211428	0.23218008501228593	9.999962363271429
O	4.328444316211428	-3.3876482249877142	11.10167996327143
O	6.311659886211428	-6.023651744987714	9.178012543271429
O	6.676669026211428	-7.888289214987713	3.984791753271428
O	5.197815566211428	-4.534820064987714	4.129467313271428
O	1.5980958862114283	-4.001120544987714	3.203073193271428
O	-0.37292397078857153	-3.837960274987714	6.4800458032714285
O	-2.8360079637885716	-1.048941854987714	7.449314123271428
O	-6.235456333788572	-2.303115094987714	8.60493117327143
O	-7.955393903788572	1.008943583012286	9.272319173271429
O	-8.545874493788572	4.5925173150122856	8.25407622327143
O	-10.092414593788572	10.404577095012286	8.74263573327143
O	-9.821122823788572	6.421360725012286	3.355586823271428
O	-6.6519083437885715	4.395116025012285	3.953352883271428
O	-7.628008293788572	0.6985418850122859	4.200618303271428
O	-5.0813652437885715	-2.047208664987714	3.933824003271428
O	-4.783956243788571	-5.775858114987714	3.2917021732714282
O	-5.385119133788572	-6.875430854987714	-0.36524010972857174
O	-2.5537220337885715	-8.576657694987714	-2.2538280967285718
O	-4.156782713788572	-10.967737944987714	-4.773772156728572
O	-1.7528648387885717	-11.067975644987714	-7.809520086728572
O	-0.7425105727885716	-7.4516062649877135	-8.51199996672857
O	2.8634476362114283	-6.035105764987714	-8.929261496728572
O	6.169329096211428	-7.9284560849877135	-9.109766146728571
O	7.056786146211428	-6.453134364987714	-12.51389583672857
O	12.044089196211429	-7.317458804987714	-0.05686547172857176
O	11.179008796211429	-5.055907624987714	4.528641483271429
O	13.954678296211428	-2.630907074987714	3.672894143271428
O	12.967400296211428	-2.7702876249877137	8.81288537327143
O	12.588904396211428	0.6428769640122859	7.179964233271428
O	12.175298096211428	5.7316920050122855	7.111580563271428
O	11.167840596211429	4.726214815012286	0.7024930232714283
O	9.407613696211428	-3.973138134987714	-9.129058616728571
O	6.265640896211428	-2.025383494987714	-10.07948256672857
O	6.108450426211428	-1.0219741849877142	-6.347329396728572
O	6.412435376211429	-4.565636984987714	-4.864225836728572
O	3.1142509862114283	-6.532665174987714	-4.565665556728572
O	2.6527078062114287	-10.317106444987713	-4.754587916728572
O	5.295658026211428	-7.197961754987714	0.1366212752714283
O	6.859414336211428	-3.9340177949877138	-0.5531551887285717
O	4.072438606211429	-1.304055544987714	-1.1115415527285717
O	4.8996932062114285	1.661099217012286	1.0747064732714282
O	2.2250863462114285	5.339485025012286	0.6319594732714283
O	5.057514886211428	8.147975325012286	0.5132453552714282
O	7.471797256211428	6.816173155012286	3.1109531432714284
O	9.372690296211427	9.703730395012286	4.603207403271428
