43

O	17.299505651785363	17.078665502521893	3.130053075436166
O	22.175063299019314	20.99460694095621	15.941281395235562
O	15.960987136904944	15.813880679457679	6.165810452476711
O	16.16695141864837	14.788953778645801	5.209179150767065
O	17.1519909006807	16.26525460843527	7.074245901728283
O	19.912268765069467	16.606003032186067	3.525111548589114
O	20.880148985481785	16.5487344196291	4.557026262601296
O	21.209177416165684	16.63725951419305	9.22247621282311
O	21.681400647658624	17.160115855537533	10.372789650849782
O	18.5138723238472	15.107899180371101	6.424447375989816
O	19.865114209324872	17.920589658183754	5.37933313226984
O	22.67121811081955	15.065194379813853	8.70642670229956
O	18.05868066069814	19.155481545190494	8.397106059204088
O	19.504183970430812	19.357819429910194	7.009260027220963
O	19.262163818688332	19.233141800475877	9.514526624191642
O	20.460958196569102	19.342618289246424	8.303722628382639
O	21.62428229959532	19.906540601500787	13.740652398121822
O	22.928254531502308	18.9306470338979	15.023310980221112
O	21.445835063595638	18.682565083824365	12.898785326950161
O	22.62211784486693	17.715455633296394	14.229218161949484
O	22.791728077618508	16.519217113789544	12.275424870744857
O	20.998824980876332	14.656000547746828	6.548842078770375
O	17.967179081822025	17.115389417285577	9.174899187717552
O	21.395079571908077	15.688814064818121	6.971637710196315
O	18.873479028254486	17.072194144135405	8.256660548651865
O	18.573348563622723	17.020275779519306	3.671715103941166
O	20.966652107175335	17.29431051582748	5.651363181646213
O	18.36270795540603	16.044920550128793	7.365677344814676
O	21.789175624457794	15.906506899219941	8.33235206528377
O	22.81506203133984	16.39282685855407	10.767247324953896
O	18.562993163336827	17.44189088114392	4.931459577999859
O	23.054787739288823	15.134331244564303	10.097462149110019
O	18.175224461797427	18.685631825835628	7.151736077930034
O	23.69752361454482	13.935441836377413	10.611336300222872
O	17.510433681813133	14.576181008552435	5.263414488753034
O	21.66928175174478	16.963464418124282	6.61546959819335
O	21.911891288947178	19.915199489448725	15.080968087542022
O	22.458939499048043	17.761355122315774	12.82279320331823
O	19.631530204981143	18.162080293649645	8.546622375230296
O	17.90672575154725	18.061226872528668	5.911488973275029
O	23.27823700642857	12.82998840798839	9.738048363898224
O	24.98766507661949	13.49963137586177	10.177323024449407
O	23.550578991954215	13.116175335755546	11.639478249985617
