86

O	-0.33477199589122797	2.560142075015788	-3.4682582052666664
O	-0.20401525789122799	1.0564980150157885	-5.388914305266666
O	4.152616525108772	-1.3039546849842116	-0.5314109352666663
O	4.201897705108772	-2.3392097249842116	0.7452386647333338
O	3.123157135108772	-3.3534870549842113	1.6684879747333339
O	3.5909729351087716	-3.8749044149842113	2.964270544733334
O	2.831865555108772	-4.858671114984212	3.726863084733334
O	1.5918210751087722	-4.147934404984212	4.168826874733334
O	1.178185425108772	-3.2384744449842113	3.0688270347333333
O	2.210306585108772	-2.422554734984212	2.4146089347333337
O	0.09843434010877206	-2.388169134984212	3.3762086047333337
O	-0.571461098891228	-2.0126573649842117	2.171608494733334
O	-1.7294430848912279	-1.2314090849842116	2.3874807547333337
O	-2.2334940848912277	-0.4674776959842116	1.3217947047333336
O	-1.5804637188912278	-0.6376512249842117	0.034264014733333736
O	-0.14861964089122792	-0.9572428449842116	0.020189564733333665
O	0.24316410010877199	-1.8572129949842118	1.0347562747333336
O	-2.151147714891228	0.2683322894157884	-0.9666067902666663
O	-1.323188823891228	0.4862628070157884	-2.1607432152666664
O	-0.35223666089122796	-0.6067092889842116	-2.353110485266666
O	0.23237850610877198	-1.2929538049842115	-1.2776056272666663
O	1.5656677451087722	-1.6173641049842116	-1.5240952782666664
O	0.6353003951087721	-0.08301673498421164	-3.1102448252666663
O	-2.077782984891228	0.6686251570157884	-3.4158410952666665
O	-2.001176354891228	2.0811462150157887	-3.8011785352666663
O	-2.633970934891228	2.6433890750157882	-4.968940545266666
O	-2.635874314891228	1.9694982550157885	-6.273523125266666
O	-2.709365254891228	0.6253307120157884	-5.684819285266666
O	-1.588382285891228	0.18105495901578839	-4.739384755266666
O	-0.710167919191228	-13.043832504984211	-1.0695790100666662
O	1.614667625108772	-10.515276104984212	-2.7304153152666664
O	2.6207635451087716	-7.520493624984211	-0.6913930212666664
O	6.053247635108772	-5.9870860649842115	-0.5322110962666663
O	8.044065395108772	-8.484091514984211	-2.587517345266666
O	7.221368345108772	-6.842074114984212	-5.920439045266666
O	8.525505025108773	-3.4025675849842116	-5.044709645266666
O	5.089849755108772	-1.9626729749842118	-5.6738420452666665
O	4.140953935108771	-4.029107874984211	-8.611452195266665
O	1.244208805108772	-6.4147752049842115	-8.664774075266667
O	-0.22210946789122799	-5.545066774984211	-5.277283535266666
O	-1.9364700248912279	-8.24655899498421	-3.0826179252666663
O	-3.506785664891228	-8.38985738498421	0.2964300747333337
O	-7.1611217248912284	-9.414194014984211	-0.11377818326666622
O	-8.718974904891228	-6.744694484984211	4.614791724733334
O	-7.922931794891229	-4.614579954984212	1.6108268447333338
O	-5.034454614891228	-4.092715284984211	-0.7392011982666662
O	-5.524038384891228	-4.850585414984211	-4.422084735266666
O	-3.445174634891228	-4.056053014984212	-7.407775225266667
O	-3.9274274548912276	-5.8202921549842115	-10.658055295266667
O	-3.0206447948912283	10.821631395015789	4.688682374733334
O	-3.288807634891228	9.493649945015788	1.0924497147333336
O	-4.110108244891228	5.7925063950157885	0.5335815447333336
O	-7.893728954891229	5.720068135015788	-0.022186275266666167
O	-9.515972984891228	4.021255745015789	-3.018801295266666
O	-12.365874514891228	1.6611957950157883	-2.1115652052666665
O	-8.291145964891228	-4.207093984984211	-10.134065935266666
O	-7.722076354891228	-1.2088137949842117	-8.022192205266666
O	-8.888791664891228	-1.8129375349842116	-4.453426145266667
O	-7.750395574891228	0.3155960556157884	-1.5572369932666663
O	-7.6147034148912285	0.3883351795157884	2.200134164733334
O	-5.015391524891228	-1.8700869249842118	3.790866324733334
O	-2.236112834891228	-0.3057529249842116	5.793918784733334
O	-1.245657017891228	-2.928288954984212	8.318049254733335
O	2.404788005108772	-2.343038174984212	9.010805534733333
O	3.9289486651087717	-1.8709376749842115	5.650882524733333
O	6.281722955108772	1.0061169030157884	4.681043684733334
O	7.774972185108772	3.7576241750157884	6.703140734733334
O	11.352527985108773	2.7810540150157887	5.867738044733334
O	10.951484585108773	-0.6847024349842117	7.3963839247333345
O	8.868406725108773	0.7904461160157884	10.226615434733333
O	11.594890485108772	3.243090055015788	11.234273334733334
O	-0.828569048891228	14.88501229501579	2.1054283547333337
O	9.629398285108772	3.307961655015788	1.108551604733334
O	6.549550755108772	4.977201595015789	-0.4923129382666662
O	4.831442505108772	6.006450145015789	2.700393644733334
O	2.6548633251087717	3.384396355015788	4.426608144733334
O	1.9950658051087722	2.9490898650157886	8.088545164733333
O	-0.956600552891228	1.7631401750157885	10.180873234733333
O	1.137623655108772	7.418182325015788	7.901803454733334
O	-0.272686072891228	7.7143296450157886	4.405010714733334
O	1.5386522151087718	8.542881955015789	1.1990770147333336
O	1.132267105108772	5.920451205015788	-1.5336337812666663
O	-0.732222130791228	7.507076365015789	-4.427538925266666
O	0.26569309010877207	5.328754425015789	-7.264323525266667
O	1.9493544651087722	7.123143745015788	-10.047637015266666
O	0.46286301510877204	10.587585795015789	-9.514856225266666
