28

O	13.601817633425465	16.4196955624195	5.701524613743674
O	16.22911524232086	12.083908783440616	2.4607098854540443
O	14.812594887206185	16.00250944731821	5.159771263339218
O	14.869251166206713	12.157692650412194	2.7377210958220264
O	14.115645958415842	13.04285942466583	3.436421162065518
O	15.066607588577936	13.723865269107442	4.299199476797363
O	16.451256745274772	13.818434773666949	3.9265510204829885
O	17.051069221089783	12.75758174183197	3.1660144400358363
O	17.368668997386493	14.598766382502678	4.466377981227228
O	18.59145809161562	14.083954606690842	3.855137868707107
O	18.437422575863703	13.027841855135417	3.163424775618293
O	17.1232007284861	15.735935976796169	5.322661465024519
O	15.915646504617264	15.991874077064722	5.961054725047713
O	15.813656264714332	16.549471903747463	7.215068614260504
O	16.9617186501451	17.02122458767079	7.853345373885219
O	18.10553069350022	17.122424557567495	7.057395793432724
O	18.077251667791167	16.034127385013733	6.2271592707962675
O	12.733173073471214	13.035081836790063	3.735105259526237
O	12.261293511797769	14.137757751349373	4.4623308154957435
O	11.101618269309178	13.98711325493771	5.068357087570055
O	10.050108678842648	13.406032717713751	4.499320841224571
O	10.357684345027106	12.627874765001915	3.389166763590137
O	11.653930532938675	12.600948663009811	2.9991995117155135
O	9.284681224062808	12.56547757434296	2.376129217872633
O	9.63165130540774	12.17898752669093	1.2540684534104614
O	8.088401388030587	12.101652008973524	2.8886398287099695
O	7.578924867715987	12.706607687724013	4.119913812202511
O	7.205848783194499	11.20325632410174	2.2017513142586354
