29

O	21.677560142366776	15.684041722731344	6.198989074766999
O	19.57495087692463	16.67433060353837	6.992656019057771
O	7.709717373175465	11.957405372122327	3.479068218742766
O	8.702252437289633	11.393903664259653	2.6440183426233888
O	9.933117069506693	12.139922586186483	2.908417408304418
O	9.719242450309762	13.212343080407694	3.8791338042258854
O	10.910783029653835	13.747014131336678	4.5899459263746465
O	12.237341668414103	13.491334884137512	4.011542077646587
O	12.439443541152768	12.444042947942904	3.0155990114458353
O	11.252297519954853	11.566982115418746	2.9701158365544815
O	13.699847695252497	11.844175152083636	2.870736234704731
O	14.877578117886637	12.61767232951927	2.7770320997142073
O	16.05937937314296	11.954307468287174	2.3511718911965196
O	17.3188349999532	12.475911644358005	2.684100184575019
O	17.409670387414494	13.802879718548366	3.2761275272482697
O	16.232727342612982	14.212538886694869	4.028511203949561
O	14.972423787842294	13.765720646929038	3.5902805846865444
O	18.734719514237582	14.325681438013094	3.5860309808161146
O	18.90904005256137	15.38887842937816	4.566564582298158
O	17.586969689557414	15.897380818710841	5.004394770135765
O	16.351619353542073	15.547150967666663	4.454725469085535
O	15.186943455434767	15.961843719053572	5.178671192789379
O	17.73556959658764	17.215508637072766	5.126785686940292
O	19.961929918852164	16.4172999874276	4.390064461047803
O	19.962437528661045	17.472290605141637	5.431167781328112
O	21.12369850880065	18.345775910105647	5.455102467340403
O	22.529967441717073	18.017289317233722	5.227338348936184
O	22.475199002339686	17.003159102348327	4.170154840469366
O	21.36676549470313	16.036717585894877	4.441875462006018
