88

O	6.3618109735160715	3.9361090300178576	4.8096361455857135
O	0.5979839555160715	-2.147168879982143	-2.3774524544142865
O	0.05811697592607157	-1.2467835199821427	-1.6094243044142862
O	-1.1915564664839284	-1.6474672499821426	-1.0212737274142862
O	-1.4340748964839283	-2.9307278599821425	-1.600126424414286
O	-0.4887320204839285	-3.0508493599821422	-2.4193359644142864
O	-2.0780011164839283	-1.1381874799821428	0.07807690458571381
O	-3.1701637564839285	-1.5538429399821425	0.5497334095857138
O	-3.6665614264839284	-2.6274688699821427	-0.4971437794142862
O	-2.6560387764839284	-3.358848639982143	-1.1782968724142862
O	-3.7644220364839285	-1.0853753599821427	1.8009782655857138
O	-1.3665887964839283	-1.2860287599821427	1.4069441855857139
O	-1.1022425764839283	-2.5109030499821428	0.7592904055857139
O	0.20850482151607158	-2.4488054599821423	0.3034380175857138
O	1.1854974335160717	-2.9780544799821422	-0.5212210134142862
O	2.2346432135160716	-2.3222826099821425	-0.28922779341428617
O	2.0706893535160718	-1.4429666999821429	0.6193525755857139
O	0.8043625975160715	-1.2597071699821425	0.8075499955857139
O	2.7959236735160715	-0.37763410998214275	0.765105675585714
O	2.8923802735160717	-0.15833080798214272	-0.5994417474142861
O	1.6211683535160717	0.1992586920178573	-0.6509591044142862
O	0.9065029355160715	0.04308344701785738	0.5496474345857139
O	3.9364651835160718	0.21986856201785732	1.1086041455857139
O	3.9736246235160717	1.3075074130178574	1.9541822055857139
O	3.2827919735160718	1.8627069700178573	2.9609386955857135
O	3.981605973516072	2.6867682400178574	3.8220512255857138
O	5.315402343516071	2.9572149700178576	3.7623756455857134
O	5.9612187535160714	2.0012322700178573	3.0726098555857138
O	5.358680513516071	1.2655908740178572	2.1618637855857137
O	7.228338713516071	2.9942194700178577	6.121292925585713
O	5.578457433516071	5.1633294900178575	5.831758245585713
O	7.624079443516071	4.436860340017858	4.095508475585714
O	7.716287503516071	-8.641756369982144	8.324397475585714
O	6.013725483516072	-5.738180149982142	10.069575825585714
O	2.6830047735160716	-3.8837708499821426	9.837373025585714
O	2.2313223535160716	-1.0940814799821428	7.262557975585714
O	0.2524373815160716	2.090661680017857	7.709781345585714
O	-0.40259157448392846	1.8971879600178574	11.499064125585713
O	-3.585040536483928	-0.05245973598214271	11.033867525585714
O	-5.2576858764839285	2.419770370017857	8.689158625585714
O	-5.424841146483929	-0.23057058998214264	6.048692955585714
O	-6.213391276483929	-3.137789119982143	8.294450085585714
O	-3.9886170864839285	-6.1473951799821425	8.609367495585714
O	-1.3831112164839283	-5.283145519982143	6.018888415585714
O	2.2746273835160715	-6.223489149982142	6.336029445585714
O	5.4656785835160715	-5.806792909982143	4.4831777555857135
O	6.813960733516071	-9.243013199982144	3.5177938355857137
O	9.542446543516071	-7.216846899982142	-1.025442617414286
O	5.789153113516071	-7.532007819982142	-1.223840286414286
O	2.722925243516072	-6.401301369982143	0.6690584355857139
O	0.48111429551607154	-8.799609809982144	2.3615783455857136
O	-2.9464616664839283	-8.416440069982144	3.7770898255857137
O	-0.39047383648392847	0.08696799901785734	-14.435118074414286
O	-1.8561423164839284	2.4128416100178574	-11.806451974414287
O	-3.797766246483928	-0.0596672569821427	-9.662483834414287
O	-1.8948375364839283	-2.0610658299821427	-7.040895414414287
O	-1.2035806764839283	-5.461640789982143	-8.734338344414287
O	-3.382247496483928	-13.903004099982143	2.4658262255857135
O	-3.5830115164839285	-11.413048099982143	-0.3231540646142862
O	-0.1391077394839284	-10.666969199982143	-1.726526114414286
O	0.5082685755160716	-7.638460049982142	-3.8173238444142865
O	3.3073557235160718	-5.516324339982143	-5.1182719244142865
O	4.963094083516071	-3.2645822499821424	-2.6552881244142865
O	4.675168913516071	0.39056922501785735	-3.2119913744142865
O	7.9035417535160715	1.8109363300178574	-1.772604784414286
O	6.942239953516071	5.306879620017858	-0.3940074711142862
O	3.513274743516072	4.751694520017858	1.2587631755857138
O	0.4804157985160716	6.986934370017858	0.7329183655857139
O	0.09106533361607157	10.075198470017856	-1.4493467544142862
O	-1.1692895264839283	12.226279000017856	1.4095009655857138
O	2.0370336135160714	11.774539700017856	3.3318508255857138
O	4.066070963516071	12.032049800017857	0.10729005658571383
O	2.6017589835160715	15.429493400017856	-0.7710284654142863
O	3.0051931835160715	16.71223590001786	2.7648822655857135
O	-6.793474956483929	3.982071160017857	-12.979348374414286
O	-4.520508556483929	8.426383030017858	1.874830375585714
O	-5.648473706483929	5.612349900017858	-0.4384653993142862
O	-3.2414009864839284	6.260334320017858	-3.2887258944142865
O	0.21518547051607156	4.694784410017857	-2.9261679844142865
O	3.4528909935160716	6.019277260017858	-4.299520044414286
O	6.6270729535160715	4.408863440017857	-5.649889264414286
O	1.1513110335160717	6.491992610017857	-8.153402994414286
O	-1.2146917164839284	3.5905683300178577	-7.8764757944142865
O	-4.715962956483929	3.612875360017857	-6.4895047944142865
O	-5.235708666483929	1.1545743680178573	-3.7099000944142864
O	-7.686003246483929	-1.5448978599821428	-4.745356964414286
O	-9.049414256483928	-2.906279139982143	-1.5905518344142862
O	-12.803789146483927	-2.3737249999821426	-1.1723418704142863
