34

O	20.60507793005767	15.28852975399583	0.8562805971916969
O	22.19716008614071	16.96541857808846	2.870904906303947
O	20.04424844067411	15.685556569678537	2.485552973536925
O	20.522561944210715	17.820046097244912	5.3991677659894
O	20.849618684402827	16.786789867153352	7.208986965821112
O	20.573140729371126	16.780095912033225	3.1863065678979376
O	20.677542692289475	18.464346286904526	7.984540275941016
O	22.349122702933077	23.535035106415293	12.426916322063715
O	18.65235515778515	15.528959973838582	2.3178931031088776
O	19.41875395928414	20.55467312370375	10.44806805678563
O	20.482943234650204	23.349940688176343	12.13583995996384
O	18.092189150527158	16.730662873144876	2.918631878991677
O	19.235740069593735	20.05884162994532	9.175216304223595
O	18.618278728851497	17.133895634671955	4.192257578570738
O	20.883170433947132	22.37269854075734	9.297398831542598
O	19.95446726785676	17.03387728530635	4.3961957738876
O	20.21952690658071	17.77495443602397	6.804099705660577
O	19.857249439119514	18.83909520487359	9.120658465405848
O	20.473905726705944	18.937368047534786	10.365262154628368
O	20.430529496839966	20.05598870571791	11.137530347660814
O	20.869619187470967	20.275645710541845	12.507125678218124
O	20.27172497289122	20.989336105922977	13.559604958002993
O	22.235510781314005	20.65347150204853	12.930815008099069
O	20.767349476972893	18.926838980815834	13.145528517844522
O	19.503483009963936	20.650500717814957	6.518527971710279
O	19.67255418707239	20.467103032567522	7.856118825522739
O	20.994402674204697	19.983341756800456	7.232973705019173
O	20.636468027867785	21.565018777018096	6.185395575805591
O	21.575897330446402	21.969623604041182	7.259416978560503
O	21.947692560443098	20.738477144992217	7.708140871644337
O	20.85789700592988	23.052248981363107	7.9894407330224
O	21.953121866088356	22.481860534684053	10.174170197060208
O	22.48735587751909	21.42063750110831	9.191987568917925
O	21.673809093886053	23.060504150611415	11.414897706026647
