116

O	-2.2147311176342463	3.5890876198986303	-4.1149714749630135
O	10.938069842365753	-0.7950526901013697	-0.7958795160630137
O	-0.7821156336342462	0.6258930948986303	-5.446972374963013
O	-2.117971257634246	0.4235843748986302	-5.019654204963014
O	0.3803722843657538	0.5197013408986302	-4.405421364963014
O	-1.7978603876342463	3.18617484989863	-1.4939235569630136
O	-0.8759475156342462	2.5865551198986303	-0.6020420469630137
O	2.8977377823657537	-0.17781111010136974	-0.6119544979630137
O	4.186378592365754	-0.4341062501013697	-0.3064840349630137
O	-0.6212163346342462	0.11843649889863028	-2.8394592049630134
O	0.44146553936575383	3.07859664989863	-1.8712106549630136
O	1.7680226523657538	-0.9789054201013698	1.1077113150369864
O	3.286889832365754	2.0530860798986303	-4.0499722849630135
O	2.530990492365754	3.17960832989863	-2.5613148849630134
O	4.391954612365754	1.5260809178986303	-2.952644194963014
O	3.6830616623657537	2.4511789398986306	-1.7049247499630136
O	8.472732152365753	-0.34530301010136966	-1.0191536769630136
O	9.092009132365753	-1.7934607701013696	0.32890418503698626
O	7.050793972365754	-0.8054082101013698	-0.9477767435630137
O	7.693919682365753	-2.2862539301013696	0.26979406503698633
O	5.465318662365754	-2.01474358010137	0.7562938850369862
O	-0.4239525276342462	-0.11251925010136987	-0.3289965869630137
O	2.6639352323657537	-0.03440488410136977	-3.877868764963014
O	0.5861480023657538	0.47186851689863024	-0.12733978696301373
O	2.050339382365754	0.5677435248986302	-2.914891584963014
O	-1.6337696576342462	3.3138497498986306	-2.887693684963014
O	0.44456666536575384	2.5084939898986303	-0.7073442569630137
O	0.6580451173657538	0.2655267668986302	-3.198106884963014
O	1.8460342623657537	-0.15954569010136965	0.1339036550369863
O	4.2061860223657535	-1.1874946901013697	0.9024538950369863
O	-0.3914627486342462	2.8719726798986303	-3.049684014963014
O	2.9612602923657536	-1.7465036201013697	1.3794871750369861
O	2.0428243323657536	2.4568095698986303	-3.776849634963014
O	2.7435553523657537	-2.95188621010137	2.1631766750369863
O	-2.002679817634246	0.3314905128986302	-3.666367494963014
O	1.109829562365754	1.71405886989863	-0.02988808996301373
O	9.575558312365754	-1.1370717501013698	-0.8291095305630137
O	6.590254792365754	-1.4010401001013697	0.19848217503698629
O	3.043930492365754	1.3076088738986302	-2.3563692149630135
O	0.6529340933657538	2.70487450989863	-3.859643914963014
O	1.3319980423657538	-3.3190114401013693	1.981008105036986
O	2.3331169023657536	-2.9242051001013696	3.531948865036987
O	3.040310472365754	-4.23794261010137	2.074511435036986
O	-4.572087747634246	8.39408155989863	-11.451946744963013
O	-4.158197537634246	4.64530200989863	-10.875311144963014
O	-1.6414428876342462	2.24473790989863	-12.592440144963014
O	2.4484122823657537	6.149295159898631	-12.979429044963014
O	4.122314492365754	2.7207013998986302	-12.052407044963013
O	3.4822808723657537	3.46005078989863	-8.331091674963014
O	4.041120442365753	7.251148509898631	-8.227030244963014
O	1.3458977323657537	9.96636780989863	-7.401020194963014
O	-1.5924065476342462	7.74442423989863	-6.532045964963014
O	-5.248817807634246	8.32361460989863	-7.2266857849630135
O	-8.616874177634248	6.70506654989863	-6.922320664963014
O	-6.938577487634246	5.14554665989863	-2.841403404963014
O	-4.927600287634246	8.34383722989863	-2.1043331449630136
O	-1.1405326276342462	8.91303024989863	-2.4738160849630138
O	0.17467643516575382	12.45092932989863	-2.410054844963014
O	6.803867922365754	10.19353451989863	2.681153895036986
O	5.8694359523657536	11.103536029898631	6.162964835036987
O	7.682241742365754	8.06881159989863	7.563538705036986
O	5.761254122365754	5.808944569898631	5.130189765036986
O	2.602059892365754	7.185043429898631	6.565395245036987
O	3.8624275723657537	6.59219752989863	10.138982955036987
O	4.727663432365754	2.94983511989863	9.422066855036986
O	1.3660458623657539	2.2658824598986302	7.818098395036987
O	-0.3557021686342462	3.2471857298986304	10.986699355036986
O	0.29180940936575384	-2.3344873301013696	10.064913555036986
O	-2.954638487634246	-4.193265410101369	10.605096255036987
O	-3.467383067634246	-7.468390990101369	8.779712835036987
O	-3.7116824376342463	-9.225036170101369	3.6105205250369865
O	-1.8805491476342462	-6.03628178010137	3.8833661850369863
O	-3.364903657634246	-2.9138793801013696	2.351374815036986
O	-4.963849127634246	-1.0265718701013697	5.188804995036986
O	-4.427654047634246	2.6166881098986305	6.056224335036987
O	-7.628385157634246	4.60883048989863	6.522088865036986
O	-6.189807307634246	8.03522599989863	7.276090025036986
O	-3.523028977634246	10.61792109989863	6.560689315036987
O	0.13878099686575382	15.373525429898631	7.452959845036986
O	-1.9955427876342462	12.48846112989863	1.7520061750369862
O	-1.8811251676342462	8.81315222989863	2.6241197050369864
O	-5.4470959776342465	7.328192299898631	2.332360635036986
O	-5.948166687634246	3.5305167698986306	2.118810425036986
O	-8.694629067634247	0.9964073922986303	1.1824612550369864
O	-9.033352837634247	0.5235938768986302	-2.607983604963014
O	-8.339137797634248	-2.74944401010137	-4.218414274963013
O	-10.787602657634247	-3.0219300501013695	-7.096611694963014
O	-9.066797487634247	-5.20865648010137	-9.661298434963014
O	-5.560206917634246	-3.9428982701013693	-9.809243994963014
O	-2.2907005976342463	-6.0353015201013696	-9.519742204963013
O	-1.899083647634246	-9.80816357010137	-9.327965564963014
O	0.44004039736575384	-13.56102967010137	0.6483338350369863
O	0.9536138143657539	-11.20208097010137	5.268396305036987
O	4.636219912365754	-12.06436907010137	5.180460765036987
O	4.487498592365754	-14.06696247010137	8.396781735036987
O	3.0003096123657538	-10.949533670101369	10.046641055036986
O	5.853172082365754	-8.72470796010137	8.704288265036986
O	9.670901352365753	-5.349733130101369	9.007390705036986
O	9.554307982365753	-5.77830443010137	2.540028205036986
O	10.124980242365753	-6.148606920101369	-3.591595154963014
O	7.781097672365754	-9.03251809010137	-3.207217884963014
O	6.488182672365753	-9.67205817010137	-6.741396104963013
O	3.126174832365754	-10.21318667010137	-8.438120364963014
O	3.066382712365754	-6.638228580101369	-9.788155514963014
O	3.2194466723657538	-5.74061980010137	-6.041100374963014
O	0.2557696413657538	-7.805068870101369	-4.790738334963014
O	-3.255917107634246	-6.25525716010137	-5.258245954963013
O	-6.493058087634246	-8.007698170101369	-5.872795834963013
O	-3.265567227634246	-8.07274569010137	-0.29931649296301366
O	0.39429116036575385	-7.45712750010137	-0.40098615796301373
O	1.2551347423657537	-3.8226825501013693	-0.9643484516630138
O	2.648592312365754	-1.7092937701013697	2.8663871450369864
O	4.865322892365754	1.8134837178986303	1.240391935036986
O	8.584948142365754	1.6771152598986303	1.9955154250369864
O	8.479022102365754	-1.1818680101013699	4.640632415036986
O	11.656406042365752	-0.8782306601013699	6.690674995036987
