29

O	19.196720143441723	16.847835656797916	6.895413205023886
O	17.032237245286144	12.208597266496666	2.5411540636846457
O	16.837875308942678	17.596909745970024	4.99792144727144
O	14.938689853413685	16.247732483532605	4.169942982911972
O	15.528954351703891	13.902180480881466	3.151774657081593
O	22.046874482859288	18.25934901177037	5.725028006410076
O	15.85854166313302	12.64124365289868	4.5146327012571374
O	20.94556602941902	19.061644272116894	5.718620539638673
O	16.379771469128702	15.901618953526349	3.880279012709814
O	22.19027521302974	17.63754964855779	4.530348206551152
O	18.08622941890183	13.67407269449024	5.377266378082228
O	19.372330885803727	14.076990423033703	5.33509492466988
O	17.146581082645906	14.901103994738111	6.06738961490172
O	18.909769767372445	15.281509531630483	3.1460701066106593
O	18.15718772259267	12.9974868624353	2.47601777517495
O	18.447769024542833	15.590812677969636	6.40437062240871
O	16.530975604736927	13.629510697791112	5.341161353385611
O	19.68855859805707	15.185816629718676	5.864147703694715
O	19.78395465170361	18.479747017948526	5.12790429471682
O	21.016684033848165	17.219614189025073	3.8903879748025694
O	17.935318330587837	14.303645827959139	2.9150178736409895
O	18.607122861007678	16.49056557672882	3.8633247755658324
O	19.685862687637574	17.48880955908915	4.21606642455914
O	16.665779987652627	14.689217291766244	3.3774154817861026
O	17.318519244369657	16.726513108119736	4.190922480504257
O	15.910089108935404	12.624094699655469	3.1213182377283677
O	18.478121617028002	19.541211910225353	5.022352595416235
O	21.268183517810957	15.817634649827507	3.0137865721805466
O	20.97333399467889	15.334241880215487	6.0603884591636525
