114

O	2.1377015081388886	0.8722750119055553	-0.8469658093125001
O	2.420550128138889	2.3420310029055553	-1.3104898223125
O	1.3252616681388887	1.8023036229055553	-2.2241954043125
O	2.696630098138889	0.5629025249055554	-2.0390531843125004
O	2.5932964681388886	-0.6902152070944447	-1.0332990304125
O	1.8063461881388885	-0.12665533709444476	-1.8206768323125
O	3.2626627781388886	-1.6025025770944448	-0.27418531031250004
O	4.066117948138889	0.8353624599055554	-2.1415260143125003
O	5.342178738138889	0.9423059609055553	-2.4354232143125003
O	5.737743648138889	1.0670575179055553	-3.7932567043125003
O	7.191891088138889	0.7148136329055553	-3.7510104343125
O	7.466983188138889	0.8487278169055553	-2.3112052843125
O	6.348151778138889	1.8587058259055553	-2.0257165643125
O	8.80776798813889	0.9885452589055553	-2.0763310143125002
O	9.236329918138889	2.1487801009055554	-1.3948843433125
O	9.57865240813889	-0.022886277094444685	-1.4626027913125002
O	-4.346902321861111	0.17512023290555523	-4.9122128743125
O	-5.001964201861111	0.8925327299055553	-5.8842524443125
O	-3.7648689318611113	1.4198872099055553	-6.0241475643125
O	-2.3529324118611115	1.4512507069055554	-5.2099331543125
O	-2.886080201861111	1.9290993879055554	-4.0897316343125
O	-2.8258891618611113	0.3667400469055553	-4.3301315043125
O	-3.8285628518611112	2.0264948229055553	-3.1735539243125
O	-4.097444251861111	1.6947010189055554	-1.9298778903125
O	-3.9996967918611115	0.4315954359055554	-2.5392111543125
O	-5.373173361861111	0.1235601229055554	-2.5456836443125
O	-6.259864091861111	1.0983035439055553	-2.9141366943125
O	-5.161049271861111	1.7645112719055553	-3.5940057443125
O	-2.672258941861111	0.42633887890555533	-1.9523783393125
O	-0.34320522486111127	1.5967759919055553	-1.6764583903125
O	0.3398996531388888	2.2979598729055555	-0.5474814823125
O	0.6546279611388888	1.7725792679055554	0.7563370456874998
O	-0.11866807136111125	0.6306093119055554	0.7290916956875
O	-1.0562242638611112	0.49866332390555534	-0.3055693033125001
O	-1.8984543918611114	1.4039165789055552	-1.4922510883125
O	-0.5204028828611112	-0.5261454070944447	-1.1394564313125
O	1.6663330981388886	2.0136043529055554	0.01826277568750001
O	2.630190238138889	1.0818970369055554	0.3892696856875
O	1.7138661481388886	0.04930596290555522	0.8734832456874999
O	2.650575908138889	-2.594448287094445	0.6248762956874998
O	4.163425158138889	-2.693740747094445	-0.4742752373125001
O	4.190204498138889	-1.5845692170944445	0.8087796156875
O	-5.535310811861111	9.762344912905556	-10.0103138343125
O	-5.301088231861111	6.025770372905556	-9.9996184543125
O	1.1498553681388886	7.406568522905555	-12.3875009343125
O	2.685125378138889	3.856726712905555	-12.033024034312499
O	2.3282499781388886	4.145276072905555	-8.2576626643125
O	3.1199402381388888	7.846512992905556	-7.7565016443125
O	0.7196578321388888	10.535641092905555	-6.3756955943125
O	-2.168027461861111	8.380634902905555	-5.5344416443124995
O	-5.825151161861111	9.171699722905554	-5.8117957743125
O	-9.271895671861111	7.736123132905556	-5.4362762143125
O	-7.310155151861111	5.673273062905555	-1.7184142453125002
O	-4.960968011861111	8.496693292905555	-0.8273636183125
O	-1.4128563218611114	9.069815262905555	-1.4495877613125001
O	0.15777081313888877	12.410676572905556	-1.0440109608125
O	7.0316320281388895	9.214638222905556	3.0113895056874997
O	6.529770498138889	9.718086862905556	6.6539421856875
O	8.301074248138889	6.419743672905556	7.4323825056874995
O	6.042757038138889	4.639604272905555	5.1656330756875
O	3.0901501081388885	5.989026312905556	7.0241238656875
O	4.629047978138889	4.8274805529055556	10.2658728656875
O	5.218781508138889	1.2926746350055554	9.041514665687501
O	1.6849152481388887	0.9723309369055553	7.6783830856875
O	0.34962159213888877	1.5548344969055554	11.1047085656875
O	0.6588623941388888	-3.836961527094444	9.2331681656875
O	-2.566217521861111	-5.638105517094444	9.938499765687501
O	-3.4667877018611115	-8.659866907094445	7.826576985687501
O	-2.3577170418611115	-6.7543709370944445	2.9956740456874997
O	-4.056764131861111	-3.434046097094445	2.0857992356875
O	-5.180169111861111	-1.7093028370944447	5.2890458856875
O	-4.334103721861111	1.8130440509055554	6.5683147856875
O	-7.3678145818611105	3.9144780029055557	7.5348577956875005
O	-2.8654226718611113	9.690916792905556	8.0381740156875
O	1.2084154881388887	14.044222272905555	9.0711961656875
O	0.8881808581388887	14.875966772905555	3.9747142156875
O	-1.6719603418611113	12.113708572905555	3.3040402156875
O	-1.7312495718611114	8.408328462905555	3.7642217456875
O	-5.333091881861111	7.066737192905555	3.5396853356875
O	-6.092539861861111	3.3626683529055557	2.8122726856874998
O	-9.075054271861111	1.0829987909055554	1.7716358556874998
O	-9.90920414186111	1.1641804936055553	-1.9860738683125
O	-9.480934401861111	-1.9688541870944445	-4.0910531343125
O	-12.135590861861111	-1.7861072470944446	-6.7147612443125
O	-10.73861956186111	-3.728057137094445	-9.6636620743125
O	-7.182680261861111	-2.606930067094445	-10.0132075943125
O	-3.9746185818611113	-4.855926677094445	-10.2493900543125
O	-3.7262542918611112	-8.617244547094444	-10.5969247043125
O	0.42094752613888875	-12.009658827094444	3.3600412456875
O	4.0077850481388895	-13.043998827094445	2.8028951856875
O	4.003565438138889	-15.446270127094445	5.751338005687501
O	2.8529159581388885	-12.479283827094445	7.8948452356875
O	5.647423468138889	-10.251092427094445	6.6234407056875
O	9.648664568138889	-7.115209017094445	7.034084525687501
O	10.65876243813889	-7.558766977094445	3.4061753556874996
O	8.819384998138888	-6.452732467094444	0.3920459956875
O	8.932146638138889	-5.959244997094444	-5.312383884312499
O	6.528744168138889	-8.762743617094445	-5.2463567043125
O	4.895321278138889	-9.042237527094445	-8.7305429043125
O	1.3672042881388886	-9.265917227094445	-10.194787674312499
O	1.3520769581388887	-5.568255147094445	-11.0370007343125
O	1.8038736781388887	-5.165054747094445	-7.280047244312501
O	-1.1411409848611114	-7.306499097094445	-6.057090044312501
O	-4.6225814618611105	-5.631671037094445	-5.987156834312501
O	-7.999954321861111	-7.157574857094444	-6.5355029743125
O	-4.2151347018611105	-8.125536867094445	-1.3013261363125002
O	-0.5278418968611113	-7.570680217094445	-1.6273352543125
O	0.25927573313888874	-4.058015777094444	-1.8984633693125001
O	2.165401228138889	-3.2025550970944447	1.8387094556874999
O	4.298248188138889	0.5662877669055554	1.1192714456874997
O	8.158417458138889	0.1655792529055553	1.3311728256874997
O	8.09050157813889	-2.5388990570944445	3.1966444456875
O	11.57202523813889	-2.4767287970944443	4.8970809356875
O	12.262406238138889	-3.6308931270944447	8.3917012256875
