99

O	-0.10962015438235306	0.008728841838234969	-3.301788834808823
O	1.039291782617647	-0.15862413816176502	-4.170263884808824
O	1.789386572617647	0.9681337538382349	-4.5475206748088235
O	0.8831619626176469	1.938777568838235	-5.021262304808824
O	-0.5005562293823531	1.822826013838235	-4.751419884808824
O	-0.9777154823823531	0.8756350698382349	-3.8347592748088233
O	-1.889958727382353	1.4135420778382348	-2.950805414808823
O	-0.29255138538235304	-0.5796722781617651	-2.005033974808823
O	0.7210131026176468	-1.544223118161765	-1.9688392888088233
O	-0.847692543682353	-1.105137018161765	-1.0775838598088232
O	1.944831992617647	-1.662175068161765	-1.2215508028088233
O	1.7516471626176466	-1.468853248161765	0.1449807951911768
O	2.729537472617647	-0.6539610981617652	0.7804935751911768
O	2.6609218726176467	0.43859357783823494	-0.13642754580882333
O	3.0186502826176467	0.3570920798382349	-1.5450678308088233
O	2.8777000426176467	-0.8935901581617651	-1.9796563938088232
O	2.644345312617647	-0.6975856781617651	2.2031530251911766
O	1.2853193226176467	1.240787441838235	-0.4059519748088233
O	0.479869472617647	1.737853723838235	0.5792973651911768
O	-0.2888777253823531	0.7096998298382349	1.2945081451911769
O	-1.712857925382353	1.351251255838235	-1.6810003318088231
O	-2.9245780073823533	0.4213694488382349	-1.4060247538088233
O	-3.786580107382353	0.23928200283823486	-2.3154643448088232
O	-5.184142797382353	0.8832438768382349	-2.2744428448088234
O	-5.507940417382352	1.794650226838235	-1.3293839458088232
O	-4.614333227382353	1.928293202838235	-0.35387396180882325
O	-3.615024627382353	0.9238570738382349	-0.3964456588088233
O	-6.725968867382353	2.1618710618382346	-1.2761888768088232
O	1.5757107426176469	-1.4293866381617653	2.7644548051911766
O	2.984438662617647	-0.12016436816176501	3.364225885191177
O	3.6078451226176464	-1.521274608161765	2.886875195191177
O	-8.506233477382354	2.920257991838235	-11.695322044808824
O	-9.041629567382353	0.9586094058382348	-8.516169644808823
O	-5.688347587382353	-6.733159498161765	-9.602672864808824
O	-3.2222870473823533	-4.334538838161764	-7.918159174808823
O	-1.667698677382353	-3.070184508161765	-11.131966644808823
O	-1.718582035382353	0.5849790588382349	-12.182719744808823
O	-3.4462506773823534	2.076282285838235	-9.199670154808823
O	-5.7508637073823525	5.004418281838235	-9.181139524808824
O	-7.9390719173823525	7.020422391838235	-6.931470414808823
O	-5.4680865173823525	9.443621781838235	-2.0463098348088233
O	-4.435381117382353	6.425140111838235	-3.909418514808823
O	-1.736932416382353	6.634103601838236	-6.5751546548088236
O	0.21188123261764702	3.868585511838235	-8.202938774808823
O	2.116186592617647	4.598108301838234	-11.363927944808824
O	11.427265842617647	2.684662691838235	-7.498680334808823
O	12.531490542617647	0.1775877848382349	-4.843846164808824
O	8.938128682617647	-0.355718268161765	-3.7440215648088233
O	8.801914842617647	3.442648231838235	-3.236180294808823
O	11.990455742617646	3.320874851838235	-1.1911689708088233
O	10.780520442617647	0.5285027098382349	1.0669096551911768
O	7.518172602617647	2.331099921838235	1.7059095851911765
O	9.272398142617646	5.279439801838235	3.1375598351911766
O	7.074295602617648	1.507082045838235	6.840304865191177
O	5.209373412617647	3.2817542218382347	9.640394055191177
O	2.494958752617647	1.3123467788382348	11.420443155191176
O	-2.2419487373823532	-1.215922228161765	10.169109255191175
O	-0.03382355538235304	-0.9323054281617651	7.246055475191175
O	-1.332230770382353	1.6069269398382349	4.672226775191177
O	0.8335686426176468	4.799538171838234	4.916325325191178
O	2.972891932617647	6.719133321838235	2.288992715191177
O	2.160516122617647	10.352459601838234	1.6786939551911768
O	4.6610274026176475	11.130573371838235	-1.1017814148088232
O	6.4141794026176475	10.060557901838234	-4.2953405248088234
O	10.591329442617646	9.811953101838235	-8.704876304808824
O	4.099122622617648	7.901946631838236	-8.712741634808824
O	3.714427832617647	6.4295680818382355	-5.332660344808824
O	1.051238972617647	8.275022181838235	-3.3087221648088234
O	-0.599116660382353	6.707862411838235	-0.2614438228088233
O	-3.637541517382353	7.206856511838234	2.0246339251911767
O	-6.949613967382353	5.993790251838234	0.5245469851911768
O	-8.890802847382353	3.188139661838235	2.2031237951911766
O	-12.552194057382353	3.835599321838235	1.5182060051911765
O	-11.911892257382354	-1.732489048161765	-0.7519260708088233
O	-10.456314997382353	-5.202540148161765	0.0989479951911767
O	-11.305560957382353	-7.447388218161766	3.0655348851911763
O	-3.576839227382353	-7.756256208161766	10.733957555191177
O	1.000811752617647	-5.314426208161764	11.135884355191177
O	2.684036922617647	-8.664645758161766	10.692461255191176
O	5.8623539726176475	-5.118046908161766	12.906660055191177
O	7.1156214326176475	-6.607297638161764	9.619017555191176
O	10.593860542617646	-7.718325568161765	6.035367715191176
O	5.229836352617648	-9.997494128161765	2.6195971351911767
O	-4.562929407382353	-12.892481328161766	1.8839095451911767
O	-7.896569777382353	-11.166575728161765	2.356502855191177
O	-7.727288097382353	-9.669894828161766	-1.1376477278088233
O	-4.573423347382353	-7.869377608161766	0.023540945191176776
O	-5.976485357382352	-6.395511418161766	3.231910545191177
O	-7.812160307382353	-3.0545557581617655	2.7924037951911767
O	-10.709425237382353	-1.7412813181617652	4.877921185191177
O	-8.009986607382354	-2.9345750281617655	8.362012355191176
O	-4.604146057382353	-2.331418848161765	6.908852365191176
O	-2.354370977382353	-4.840565968161766	5.248292935191177
O	-1.3753567343823532	-3.778104308161765	1.7312747451911767
O	2.3115426726176467	-4.022658568161765	1.4068357951911765
O	3.341567362617647	-3.953514218161765	-2.4897776148088235
O	5.966573412617647	-6.400266988161766	-2.874555354808823
O	7.632994632617648	-6.345577098161765	0.5818585251911768
O	11.106842342617647	-7.823357618161765	0.5762307851911768
