86

O	-5.808160358301888	-7.769568664566037	1.0518965088113212
O	-5.238488638301887	-6.827212224566037	1.969542608811321
O	-5.197939218301887	-5.411474094566038	1.5292844988113212
O	-4.741879058301887	-4.971065244566037	0.2833378008113211
O	-5.002475968301887	-6.120301914566038	-0.44089820818867886
O	-6.249544808301887	-6.911914804566037	-0.01853597618867886
O	-6.841479738301888	-8.602364004566038	1.6028597788113208
O	-3.9469566983018867	-3.989652654566037	-0.24367375818867887
O	-4.043831258301887	-2.617765614566037	-0.17812613118867887
O	-3.1920211483018868	-1.5465883545660373	-0.47182292518867885
O	-2.220413169301887	-1.991178804566037	-0.6919011652886788
O	-1.988083511301887	-3.000025374566037	-1.272906440188679
O	-2.752682948301887	-3.914588834566037	-0.46278225218867886
O	-2.895394558301887	-0.20138246056603712	-0.4959020876886789
O	-1.890612482301887	0.6631299144339629	-0.9679213781886788
O	-0.3741476283018872	0.8318268604339629	-1.086056657188679
O	-0.08242738830188712	2.213263715433963	-1.379743130188679
O	-1.213929895301887	2.749433415433963	-1.4947580471886788
O	-2.175276058301887	1.9370586254339628	-0.9491031311886788
O	1.171313601698113	2.986354405433963	-1.6332387411886788
O	-0.14327829830188699	-3.055918784566037	-1.2381353771886787
O	-0.07283317830188718	-2.0356684845660373	0.18056996781132106
O	0.6317610616981131	-2.857102644566037	0.987193458811321
O	-0.5567132863018871	-3.485728564566037	1.2793053788113213
O	-1.6791299573018872	-3.213993214566037	1.6802832888113208
O	-1.7357790513018871	-1.9076649845660372	1.749011568811321
O	-0.7584399063018871	-1.298603324566037	0.9928497588113211
O	-2.345843894301887	-4.3677609445660375	1.6566032788113212
O	-2.095208570301887	-5.672231644566038	1.7872685688113208
O	-2.367620947301887	-6.470808624566038	0.8819651788113211
O	-0.558962671301887	-5.799399284566038	1.675711048811321
O	-0.4730456753018871	-6.7047432145660375	2.811556658811321
O	0.3388036316981129	-5.521022224566037	2.786040548811321
O	-4.418493638301887	-5.992414644566037	-11.503399981188679
O	-2.633289258301887	-8.112450154566037	-8.982264371188679
O	0.43445821169811283	-7.692386304566037	-6.804770161188679
O	-0.3016730383018871	-6.167184404566037	-3.377082481188679
O	1.3900750116981129	-7.118142874566037	-0.48966458418867886
O	3.2185433916981125	-10.321288824566038	-1.4440591751886789
O	6.380149851698112	-8.534181154566037	-2.507436381188679
O	7.102996831698113	-6.8067708845660375	0.781629918811321
O	6.855573361698112	-3.421343204566037	-0.8771064711886789
O	8.541118771698114	-4.394490324566037	-4.126594911188679
O	6.826410241698112	-4.221516704566038	-7.492058171188679
O	3.5510343016981123	-2.744736554566037	-6.412590271188679
O	0.19761473169811294	-3.593238054566037	-7.916207651188679
O	-3.4170904083018874	-2.8165410145660372	-7.421732711188679
O	-4.678157268301887	-1.176418034566037	-10.602013081188678
O	-8.678158208301888	1.6043127354339628	-7.787999791188679
O	-5.120497418301887	2.827447745433963	-7.428525801188679
O	-1.761102964301887	1.5212669654339628	-6.429609961188679
O	1.0159280016981127	1.348823215433963	-8.958146381188678
O	4.706813481698113	0.7475901024339628	-8.470610301188678
O	-1.6571331933018871	11.155085375433963	6.356190578811321
O	1.0551896216981127	10.486390875433962	3.765555988811321
O	0.15398514169811284	8.389003095433962	0.7381144288113212
O	5.1860329216981125	3.939575545433963	-13.105785781188677
O	4.398920471698113	5.691820215433962	-9.873327511188679
O	0.6200301616981128	5.906725505433963	-9.364343911188678
O	-0.875552900301887	6.703548525433963	-5.9773573611886786
O	-4.124146618301887	6.3922935354339625	-4.024884331188678
O	-5.176722988301887	2.867846785433963	-2.918052671188679
O	-5.402371508301887	2.187524845433963	0.7497952588113211
O	-7.922308668301888	-0.6228799825660372	0.994292128811321
O	-7.125725008301887	-2.413970454566037	4.039797948811321
O	-3.6293271383018872	-2.856766014566037	3.6002173988113206
O	-1.157058619301887	-2.3531820745660372	6.529593478811321
O	-1.563786958301887	-1.3758935245660373	10.121410718811322
O	0.16661936169811287	-4.470896584566037	11.456529018811322
O	-2.364332189301887	-6.797634304566038	9.835942318811322
O	-5.154626578301887	-4.387128434566037	10.697540318811322
O	-4.347689828301887	-4.410251744566038	14.402396518811322
O	-3.9045420183018873	-8.176514964566037	14.469416318811321
O	3.9518157316981126	-2.789814794566037	8.414001898811321
O	4.785290381698113	0.5924278684339629	6.728764688811321
O	1.5900372916981127	2.377896025433963	7.690168258811322
O	-1.453708068301887	1.7842326954339627	5.480964158811321
O	-5.107891408301887	1.8133843654339628	6.507226948811321
O	-8.327572208301888	2.719216095433963	4.754292208811321
O	-3.982118708301887	5.730148295433962	8.495440498811321
O	-1.286832533301887	6.999957535433962	6.146778188811321
O	2.4462301316981128	6.558739355433962	6.442493328811321
O	4.018209971698113	5.0213463654339625	3.371999608811321
O	6.324164811698113	7.522706915433963	1.633684778811321
O	8.507200781698113	5.332807665433963	-0.45541509118867884
O	12.147466371698114	5.545917765433963	0.546802388811321
