27

O	24.942254103132967	13.958401490594051	9.435510855139476
O	24.367363261668853	15.21217862806989	8.955541742223433
O	23.41228608497295	15.450896740384628	7.95512550333183
O	23.254442514306724	16.771391441933662	7.665469216536946
O	24.1360713586378	17.857760941726752	7.716068307515114
O	24.840915790498094	17.64756584306208	8.832926307949586
O	24.99390745435381	16.335889021785263	9.4222986914913
O	22.45119564914085	17.1172714480035	6.570764665366381
O	21.196162162673723	16.817368458161518	7.1657138030789245
O	20.795816630570496	15.647677262693737	7.040611818144353
O	20.6094158190484	18.01508985878121	6.549757309064223
O	20.059452096940543	17.495011002788228	5.310253292602173
O	20.780098338081178	16.615315157345197	4.490290622192281
O	20.034440824689746	15.433344047883761	4.301107259013192
O	18.836665436250307	15.963146291100278	3.9138099865590203
O	18.094287166780898	16.323380399726737	5.03214973351386
O	18.9136958394227	16.937061748026466	5.864110802777304
O	18.17522810771403	15.455348075175745	2.852718538920941
O	18.17189489220093	14.049706452409605	2.8124820808949518
O	18.96373061365774	12.958524188926269	2.7487989033954316
O	18.27793880735882	11.684666170545825	2.4652805939738576
O	17.028152735317477	11.486845238049678	2.498617885655269
O	16.404107773063917	12.554560528424089	2.7463290429147924
O	17.175436365738122	13.596793131795165	3.4062347431775297
O	26.288037278837955	13.746628261376868	9.435803017315452
O	24.64559450597166	12.956905259454771	8.603812753860687
O	24.79836397006497	13.459675627571773	10.697816814350485
