81

O	-0.2114334348811322	-2.0938964055943394	-5.347300095190566
O	0.3258045451188678	-1.5456649455943396	-3.1491140751905657
O	-2.767409454881132	-1.2478030255943395	6.383603844809434
O	0.2620239151188679	-1.0025469455943397	-4.434559525190566
O	0.8552784451188677	-2.8160632155943395	-2.9348239951905657
O	1.5237310551188679	-2.5509198055943396	-1.7819289551905662
O	-1.4690211348811322	2.1842200344056604	-1.750446705190566
O	0.5180657951188679	-1.8725988855943396	-1.0876316351905662
O	-2.003077581881132	2.6021600644056604	0.44650042580943394
O	-0.07405971488113217	-1.0516788355943396	-1.990829025190566
O	0.691900295118868	-2.5055590055943395	5.5756461448094345
O	-0.6481117998811321	0.18632904330566036	-1.6589763851905661
O	-0.9336863098811321	-0.5925101265943395	7.494900164809434
O	-1.0931865978811321	1.0705417174056604	-2.529262885190566
O	-1.2895741978811321	1.9043589644056604	-0.46727873519056606
O	-2.0814318478811322	1.9105194144056603	1.464370324809434
O	-1.439825665481132	0.7673481264056603	1.915534644809434
O	-0.924324331881132	-0.04992815059433964	0.8642678908094339
O	-0.9090955168811321	0.5479531214056603	-0.258949706190566
O	-0.966131541881132	0.28089794720566036	3.148157674809434
O	0.20977846511886789	-0.44232030759433966	3.0040089048094343
O	0.25757906511886786	-1.8424949355943396	3.252537064809434
O	-0.196432754881132	-1.9768093555943396	4.564413374809434
O	-0.9535410388811321	-0.9095834555943396	5.101234624809434
O	-1.502366163181132	0.11491882140566037	4.386086404809435
O	-1.492282813281132	-1.3107860955943396	6.371041574809434
O	-1.7033269908811322	0.15177297940566037	8.471332334809434
O	0.2461234751188679	-1.2684501355943396	8.043167124809434
O	-10.708772894881132	-4.8256434455943396	4.558319684809434
O	-7.427261854881133	-6.420231595594339	3.431862364809434
O	-4.235789814881132	-4.388492045594339	3.687451124809434
O	-0.8818353688811321	-5.8241792455943395	4.791569804809434
O	-1.818607404881132	-9.20010773559434	6.004247894809434
O	-1.3383961698811322	-10.624221215594341	2.5623108048094343
O	2.257535295118868	-9.47442044559434	2.116569104809434
O	1.130130855118868	-7.528749055594339	-0.8901756471905661
O	-1.388208550181132	-9.93765391559434	-2.287141135190566
O	-5.046582554881132	-9.15985627559434	-2.7149787951905657
O	-4.979953864881132	-5.501311745594339	-1.7329671851905661
O	-7.8532487648811315	-3.82753696559434	0.10965473290943398
O	-8.727973014881131	-0.5179536065943395	1.568294454809434
O	-11.828779834881132	0.8395412864056604	-0.11103883819056604
O	-10.362796884881131	6.235092264405661	0.712383769809434
O	-8.468078414881132	4.30825725440566	-1.913379475190566
O	-6.484736154881132	1.1305390404056603	-2.217109505190566
O	-7.756465954881133	-1.6430183455943397	-4.453894345190566
O	-5.937539174881133	-4.693175725594339	-5.728469885190566
O	-7.957145494881132	-7.52129046559434	-7.189890685190566
O	6.804784065118868	9.50048494440566	-5.324132185190566
O	5.3148052051188674	6.49451187440566	-7.126506905190566
O	1.8941307851188678	5.26551740440566	-6.0291392251905656
O	-9.578261394881132	-4.13345135559434	-10.007581775190566
O	-6.699677014881132	-1.7386076255943395	-9.905328585190565
O	-7.592646864881132	1.3778597844056604	-7.897482125190566
O	-4.881117644881132	3.6467576644056603	-6.491196815190566
O	-4.360350044881132	6.39748734440566	-3.997411815190566
O	-4.299218004881132	5.3051135544056605	-0.41735477219056605
O	-1.139372281881132	5.83634432440566	1.5530224848094338
O	-2.292377444881132	6.278458104405661	5.137155554809434
O	0.5345693251188681	4.95347420440566	7.211041224809434
O	1.574605005118868	1.7814736844056605	5.443147454809434
O	5.244447135118868	0.7876947744056604	4.808502364809434
O	8.451833975118868	2.53817842440566	5.544577414809434
O	9.93148296511887	-0.4102686215943397	7.457301144809434
O	7.106488295118869	-0.32945352659433963	10.035664154809433
O	7.157299995118869	3.4903518844056602	9.984208844809434
O	10.866032365118869	3.6652282444056605	10.852908724809435
O	10.527248065118869	1.0168300374056605	13.543842124809434
O	8.767462965118868	-2.9316047655943396	3.170491204809434
O	7.906032215118868	-1.8175349255943396	-0.408620247190566
O	7.896986645118869	1.9243236944056603	0.19049982480943398
O	4.6202562651188686	3.4109700144056605	1.4644547048094338
O	4.267917505118868	6.45384306440566	3.733445694809434
O	1.652282085118868	9.20981196440566	4.0878953948094345
O	7.111558345118869	8.38957070440566	0.8034497308094339
O	6.072129005118867	6.61216131440566	-2.3714751151905658
O	7.650667875118868	3.5630147744056604	-3.8925565951905656
O	5.221268905118867	0.8203100234056604	-4.567129165190566
O	4.819573225118868	0.19146141890566037	-8.275783545190565
O	3.494557285118868	-3.2767638855943395	-8.410884645190565
O	5.7691072151188685	-5.69913653559434	-10.202642775190565
