37

O	18.174542607200372	18.96801125574763	8.09725796239231
O	18.511941768992013	18.71445004086793	9.622686573400419
O	17.987557875092964	17.467166378238808	9.022787491708868
O	17.57627742236573	16.729094432409244	7.761090340957308
O	17.327581062769	16.918215435854997	6.282686844948369
O	18.293489318860978	18.07869312509266	6.862109010950402
O	17.57082764459099	15.85272544714809	5.204067459616407
O	17.843315709731222	14.75487185468316	6.044433179060213
O	18.115678341770774	14.111040722507834	4.681920290569011
O	17.436788329079754	13.216484335151975	3.8970499399300977
O	16.227479630699733	13.906070097609149	3.9023799150283516
O	16.612937315601435	15.274638808122285	4.342859886764735
O	19.464149516728305	14.69997117770866	4.865050810665727
O	19.731846209343836	15.897637540461998	5.288649832228935
O	20.137404401461133	16.142854014125938	6.9175399718476775
O	20.894755125503035	17.245373044017512	7.305155015532757
O	21.10463645255377	18.507933791145515	6.549333245016122
O	22.051039575477795	17.481057283724862	6.079379158054727
O	21.28707638581954	16.178716809413114	5.8346025761396225
O	22.226993704445775	15.424548586265216	6.671390730309694
O	22.285623316654082	17.001786397226784	7.885839685177152
O	22.012411248259575	17.671043414751164	9.07009322652938
O	21.770885915561085	18.856387429922496	8.248711847138708
O	22.91062417571446	19.724443749023674	8.276133660904422
O	23.260769381503376	19.62720682984539	9.780618522246503
O	22.294854290769855	19.699957253336883	10.907288774003307
O	21.277548440451223	18.705898104524895	10.348244315264424
O	21.130804498671832	19.68545783048088	9.039141063555322
O	20.851790223700455	16.784065834087233	9.27709489188054
O	21.215841385516285	20.49250504130629	11.393743238718114
O	21.214614819626888	21.28600571579907	12.560571930855403
O	21.953498341687975	22.400033711469284	12.215715414178014
O	23.08128196978657	22.600950273856014	13.045312893987568
O	22.582089026089633	22.3213518583703	14.390805445854909
O	22.538979560828565	20.9068262900982	14.392604211551335
O	21.49063513921285	20.376695858138113	13.566616519956309
O	21.302102036410858	22.85189806504031	14.512741761279045
