28

O	13.644579228680968	16.500162520038938	5.396020468048704
O	16.08602594724872	11.981821168829295	2.446851792530873
O	14.832503517071846	16.032781938749384	4.85228184282092
O	14.728039896756496	12.101986975510064	2.7070882707412527
O	14.01214841110068	12.99914461790123	3.424544259850501
O	14.98221327781006	13.620084092451915	4.334217068598406
O	16.34776422952036	13.74784860914353	3.885532827810918
O	16.913159862394153	12.750794449122676	3.03909559995206
O	17.305296503567135	14.538432034893734	4.279917318906231
O	18.51854162136192	13.989504409230015	3.716234359321491
O	18.306848517232872	12.967241415786233	2.9794149354386827
O	17.107655218660273	15.722895788810817	5.072014311651872
O	15.920496219152334	16.001333703063345	5.688790993970983
O	15.828058689563981	16.47303154507849	6.994578283784013
O	16.99585935744407	16.88119804413874	7.6431947813069
O	18.139991878269868	17.030261613961333	6.853626902395956
O	18.097804710111973	16.05267968248943	5.90810612495623
O	12.632521600250707	12.97894339951949	3.7549820450325866
O	12.179229295968678	14.09324840987791	4.478677699997195
O	10.973856630770175	13.98600152136708	5.003208617276019
O	9.940775632187723	13.362090963548079	4.4483103052939965
O	10.279821692732066	12.491018721722359	3.4087850311639936
O	11.57138175001787	12.596150053810867	2.9791374853320134
O	9.325749437630805	12.350408520157417	2.294382593842718
O	9.670266765390267	11.85288373209434	1.218615175738634
O	8.005971381157556	12.49878831685659	2.593874820942366
O	7.521310779633527	13.812506628239165	3.0272203601894496
O	7.185760224110451	11.373501068077603	2.9667650005891284
