33

O	17.49661131916984	16.432483837806153	4.8439490946016
O	18.947789184244133	14.71617862526331	3.901637922753604
O	19.812977633083083	16.877996285405125	4.3336689789748135
O	20.227816818030256	16.80991054329607	5.635529917934446
O	21.0936354419153	17.751697673883086	6.123530979082882
O	21.96188269978471	18.529243332837602	5.330533286737332
O	21.36643806664812	18.61531590324655	4.022004577460954
O	20.260291612089716	17.93554277805811	3.603180055752966
O	19.796982302431967	17.851752654817826	2.173274271081305
O	15.283432838624087	15.64518201428189	5.542407342583864
O	22.569871581467513	16.046091258737025	6.866725495930028
O	23.941815100365613	16.185803394915155	7.372125024162932
O	24.636951265375874	17.34029264420187	7.14305137695896
O	25.751087685811598	17.443320382225934	7.983556144155737
O	16.53479961643447	15.348371776975451	4.861750103070692
O	18.659162814631724	16.064513816863418	4.1424771094511375
O	15.507995073747484	10.869066383554177	3.7296623041650214
O	21.868922935617054	17.201475524504268	7.198568575489472
O	17.701682234964633	17.199426914892868	5.836419879942214
O	21.94701819251969	15.048244920936376	6.530770460108119
O	26.29639621977682	16.28898009711233	8.614200699551937
O	25.65284314262917	15.120414222173938	8.47526120591289
O	24.61949359291755	15.08164626870685	7.532151774672855
O	26.19561820952914	13.937074378850422	9.08570387311567
O	17.331224909454733	11.8679616266104	2.8590761438325845
O	16.143874861990334	12.081679534356095	3.2801879804180656
O	15.857328073845032	13.216948550337172	4.116390364278642
O	16.74097932369739	14.134923462815442	4.1032958162495135
O	17.987474676952118	13.992134573604874	3.4110356380500826
O	18.094906933875194	12.966860279673185	2.3621182820372377
O	27.436719102320993	14.166809119813703	9.486487681281044
O	26.330034551045436	13.109006799497575	8.05465031674226
O	25.939755736071838	13.233963613083088	10.197138415309965
