41

O	16.918713475137515	14.844421277384296	1.905787593703355
O	15.80062500446455	15.521008523872245	2.5027044238110525
O	20.62897637081587	15.020048802590006	7.458509875032509
O	17.21766570287527	14.482613698663599	3.1757846713093802
O	21.9514802304683	16.49052699312532	6.9276587344365
O	13.181961885831317	13.38000316609017	2.53561846727398
O	18.41315934642008	14.125867382407028	3.098215887656238
O	23.94460982238828	18.08231495458708	12.441254895260073
O	24.552497348082525	22.346423024913634	16.321242205866973
O	19.28716997110323	14.897141413097255	3.2606153407005327
O	23.25605896188323	20.503890032695544	14.343789451122927
O	18.82845592335832	16.090396996897354	3.974225807511357
O	14.369141691043115	12.324044338550246	1.1771178472081933
O	19.031524533902488	17.152971100370305	3.16148025725352
O	19.698510445965365	18.141368220110785	3.912523831139497
O	20.383992324099793	17.837637978568484	5.147214469075379
O	19.874202379172463	16.79143839501136	5.891684549143614
O	18.981131763008978	16.01697740116449	5.31935634849658
O	18.448896415745683	17.149141823476796	1.8253450798985114
O	20.639528621151797	16.168763526297052	7.004375890998177
O	22.964670569754222	16.293216358543308	7.8446926306927836
O	23.233633048755156	17.58080617952461	8.029243850893321
O	24.245808321121952	17.566189504457544	9.010592072282677
O	24.276776598838342	16.649434642373826	10.139480559237137
O	24.339245486566114	15.319938506301284	9.62194654614769
O	23.53554050380497	15.179685653448196	8.45922763523987
O	25.07146085237889	14.215998684045877	10.297715193197622
O	24.197491629408468	16.971224976432573	11.572005851591246
O	23.097913731690962	18.10519822619524	13.587756877388765
O	22.47150793267108	19.354335618097416	14.028833947174732
O	24.428290740519188	20.10546884589886	13.652586916185154
O	24.847978591352984	18.719421820282278	13.323641153946406
O	23.587634686039458	20.493277950177784	15.714088988464535
O	15.697352059374698	15.2443021890742	4.699363281555021
O	23.226568975539863	21.987221924343338	15.959354394492468
O	14.466264341326948	13.101343893361289	2.3934235326023137
O	16.06243237434734	14.319625455280912	3.7627074364928643
O	15.245453085099172	14.172099707436173	2.5753208035540416
O	25.49686039633623	14.101079554131323	11.532890337370256
O	24.459962920665287	12.904567595690242	10.289779336149575
O	26.12097761617782	13.4438861572205	9.739530031187272
