39

O	17.865451888374466	12.053896444143167	1.9853506900817486
O	16.672915509951036	11.635138033413607	1.5813192218957095
O	20.85397679477977	14.898433727913876	7.183611112032251
O	17.56375997574572	12.925277558069991	3.032360230283263
O	21.860120778017862	16.792676127159762	6.998639220272394
O	18.66923968572894	13.641596247914773	3.382239541633286
O	22.46624017149312	18.904977565013645	12.580306469421878
O	19.246785438682565	14.668564908597695	3.2177066691790897
O	22.52473048277883	21.36034815038496	14.307004083182608
O	18.815692597835568	15.784308837420607	3.936581781853913
O	19.03704228785788	16.966993029210915	3.2588812423443847
O	19.92016877488036	17.876704975779287	3.827864383753747
O	20.4076166797675	17.82463508581233	5.1926779788554835
O	20.11430769102336	16.637572642015364	5.709575477635413
O	19.027037857272987	16.002299538007225	5.243531045050207
O	18.817486542140678	16.939911996693937	1.8106546606828466
O	20.65509681335784	16.070054501282037	6.908705120743361
O	22.152589181231555	17.048126757838276	8.330629154519194
O	21.106208386532003	17.77433365868896	8.971650217825404
O	21.54421624448011	18.041172484158867	10.277361931161895
O	22.521054049994305	17.17150126682002	10.869394487603866
O	22.783101547675706	15.85245690464079	10.381757479018187
O	22.29125352068366	15.832011096183798	9.030602875657355
O	23.294703619193402	14.665833394059836	11.038293683573977
O	22.679480101379824	17.554645832246727	12.273372962261043
O	22.610594142609845	18.909398790516416	13.989408237833675
O	23.053224213049617	20.119094924977748	14.709507718976193
O	21.438867501341267	20.950471699853296	13.533224705952856
O	21.428177293356903	19.78861303168295	12.626748560067751
O	22.45340365058614	22.239683144303747	15.378884128369483
O	14.53411401636627	12.27165588670318	2.028390667267341
O	15.58757038129745	14.310240481960427	3.422950030617268
O	13.752520216269572	13.14043974579372	2.6385382640504407
O	16.343113105620933	13.424281344114618	2.851926226145931
O	14.343093922899087	13.903734944892474	3.649130766507918
O	15.832953145786613	12.529575065776406	2.0642386044493852
O	22.870170537347434	13.580592696128104	10.144663441098428
O	22.948175869812918	13.875242330198494	12.074219419024672
O	24.429456085806603	13.85605236746651	10.795256255521151
