37

O	17.430119866599384	18.52572903236968	8.4450492201935
O	17.75985926424809	18.08880854820098	9.921651541282198
O	17.53000328630066	16.838401626564007	9.17762374405035
O	17.145624234095713	16.277158943746024	7.82536627207538
O	17.189579086622413	16.577545948994384	6.35443274144465
O	17.832962523805485	17.815812002827297	7.1443763386608525
O	17.593474431113375	15.652320648920972	5.265444143753488
O	18.043676835844202	14.467353276591787	5.898435335296974
O	18.31548853599994	13.81885835558922	4.56363946129051
O	17.650353765799565	12.988218443023426	3.685061686890831
O	16.548481449969167	13.829932405135123	3.62598836518329
O	17.097487494661408	15.206832298103393	4.070242140673617
O	19.49238187852752	14.72275485674241	4.490728589471738
O	19.612693891076688	15.801101270677758	5.227856109165257
O	19.705540275104656	15.730470847192114	6.8690220863982825
O	20.163032485693968	16.928712036435503	7.496923422517557
O	19.969111374746824	18.08748788002203	6.484831446413622
O	21.335609393534156	17.67796829618773	6.224109378452397
O	21.062816332358633	16.212540081374968	5.87257365815683
O	21.76105502882344	15.374409894700023	6.797742768201678
O	20.940815303823182	17.07138059142988	8.530433316236694
O	21.73358778803808	18.274626585148958	8.188285472696613
O	20.5380575255418	19.01241937399272	8.429876916548475
O	20.308500679191326	18.071217226509873	9.443153692709304
O	20.824434792873472	17.551168211278465	10.703479085199252
O	20.981503518842064	18.865537311213355	11.456815957245752
O	21.52700468916484	19.690404418524167	10.399782291493779
O	21.121249516390318	20.045952720019958	9.024639236074762
O	22.380205864950018	17.179268276591372	8.47216572581086
O	19.64454728516753	19.274810147869783	11.848985548540758
O	19.845733624871922	20.2673136938241	12.83557052061845
O	20.888051743676918	21.128057924973582	12.218503612714438
O	20.674791882400434	22.26031309329233	13.095875882284329
O	20.782552157065115	21.828544267770333	14.463123653087532
O	21.45742236897853	20.55969197763695	14.442838137988034
O	20.68408396613113	19.532842128442773	13.741885636694544
O	19.481148666717846	21.545863040982862	14.914637394847635
