92

O	2.7685412229642856	-2.6455164652500005	-0.5988176085196429
O	4.394960162964286	-1.8616947252500005	5.227178046480358
O	-3.370970787035714	0.5791327887499997	-1.345509353519643
O	-2.8555726470357143	0.5616280377499997	1.0889427864803571
O	-1.9496741670357143	-0.8366979652500004	-4.558175253519643
O	0.07012443396428558	-1.1762595252500003	-2.434637483519643
O	0.018186620964285638	-0.8771283552500004	2.884258876480357
O	0.5854360229642857	-1.4647812252500003	0.32302415848035704
O	3.2053000829642855	-2.81617896525	5.194471846480358
O	2.056352272964286	-1.8380893952500004	4.882458456480357
O	5.733611632964285	-3.0924253252500002	10.187395266480358
O	5.800770822964286	-2.87773766525	6.629745706480357
O	3.6082146529642856	-2.1778450952500004	7.4484462564803575
O	5.785106172964285	-3.60262026525	7.925694526480358
O	3.8903654929642855	-2.6823614252500003	8.830047936480357
O	0.29956840696428566	-1.0184881852500003	-3.828574433519643
O	-0.6756895290357143	-1.2608569552500004	-4.802309553519644
O	-2.2861024370357144	-1.1499115352500002	-3.281896173519643
O	-4.259368317035714	0.7707132417499997	-2.087599553519643
O	-1.9489066670357145	0.30143095084999966	2.092850736480357
O	-1.5820585170357144	-1.6131837952500003	-1.157075024519643
O	2.635458912964286	-2.46459469525	0.7611908494803571
O	2.1058576129642854	-1.7849082352500005	3.482999606480357
O	-2.5860304770357145	0.19858176964999968	-0.23150954151964293
O	-1.3131982480357145	-1.0822505352500003	-2.350458813519643
O	1.4948278929642855	-1.8774598752500005	1.245580696480357
O	1.0909192529642857	-1.7215988752500002	2.5685692264803572
O	-1.4398555640357142	-0.5149607102500003	-0.32820315551964296
O	-0.8823967770357144	-0.4697268422500003	1.9046398564803573
O	-0.5595546168357144	-0.8359340752500004	0.6319148204803571
O	4.767981942964286	-1.8967392452500005	6.645720816480358
O	5.3211775629642855	-2.6481506352500004	8.895001166480357
O	-0.33631633503571434	-1.5394329752500002	-6.468880263519642
O	-3.5237410770357145	-2.26028960525	-3.043940263519643
O	2.228057302964286	-2.1981648652500003	-3.590198723519643
O	1.4881530429642857	-1.3686344152500003	-4.421392153519642
O	-4.580112167035715	-11.44344390525	6.942313936480357
O	-1.1093182950357143	-11.56636720525	5.470020246480358
O	0.5414237129642856	-10.47596320525	2.210730226480357
O	1.8467474329642855	-6.936128845250001	1.9825419264803572
O	5.144535582964286	-5.88787626525	0.33820061248035704
O	6.669355772964286	-9.232220455250001	-0.3896090145196429
O	4.936293012964286	-9.604025345250001	-3.6940230935196428
O	6.243536012964285	-6.333134735250001	-5.179090583519644
O	2.6987766129642856	-5.46083497525	-5.746524643519644
O	1.0880486929642856	-8.64768297525	-6.626493163519642
O	-1.6304319470357143	-10.20594760525	-4.6619605035196425
O	-2.1907204870357146	-7.57427898525	-2.021346623519643
O	-3.176658997035714	-8.492008665250001	1.558814426480357
O	-3.785959537035714	-6.71141487525	4.817250216480357
O	-7.366499117035715	-7.51325535525	5.860265196480357
O	-7.842110887035714	-2.6633186352500005	8.688084376480358
O	-8.056946667035714	-2.4753668552500003	4.958116496480358
O	-5.937797687035714	-3.5035950352500005	2.080338456480357
O	-7.192331237035714	-6.08175915525	-0.380131966519643
O	-5.928303427035714	-7.03568427525	-3.795714743519643
O	-3.6013170870357145	11.90889809475	-1.7961632735196429
O	-4.648109557035714	8.93299305475	-3.961484253519643
O	-5.341197647035714	5.60447916475	-2.260147273519643
O	-9.128698057035715	5.43851698475	-1.817148603519643
O	-11.337174527035714	-8.324997865250001	-4.684972603519643
O	-10.459587637035714	-4.68823458525	-4.690457873519643
O	-10.687064127035715	-3.22957258525	-1.177365313519643
O	-8.959456457035714	0.024255298749999654	-0.29758469751964295
O	-7.982259307035714	2.07038390475	2.7481347664803573
O	-4.902481037035715	0.7918334757499996	4.578496056480358
O	-1.7639936370357143	2.93062414475	4.692741736480357
O	0.007309511964285642	1.9690503047499996	7.826656986480357
O	3.6448001929642855	2.6110714647499997	7.103377006480358
O	4.252465712964286	0.9835732667499997	3.764937556480357
O	6.070767432964286	2.7674246147499995	0.889426226480357
O	7.8485335729642856	6.11777142475	0.8402028524803571
O	11.168741672964286	4.605347934749999	-0.22148288341964295
O	11.413192072964286	2.4792787947499995	2.913751086480357
O	10.002707272964285	5.36650658475	4.970129866480358
O	12.716450772964286	7.79039326475	3.8484582064803567
O	15.442861472964285	5.204308364749999	4.358441256480358
O	14.430506372964286	4.26473647475	7.880801766480358
O	-2.4308056370357143	13.897023794749998	-6.542101603519644
O	8.332962812964286	2.7183714247499995	-3.940179623519643
O	4.864057352964285	3.65485106475	-5.395404643519642
O	3.8479360229642854	6.267889954749999	-2.8810099835196428
O	2.3396881329642856	5.01894777475	0.4018660104803571
O	2.6943418629642855	6.59172338475	3.809326526480357
O	0.4395919979642856	6.86998261475	6.852641856480357
O	1.4973653729642857	10.382973594749998	1.563528396480357
O	-0.7724129910357144	8.94735197475	-1.0948462345196428
O	0.13425560196428565	7.90085228475	-4.592423533519643
O	-0.7179323840357144	4.3894545447499995	-5.413380033519642
O	-3.4005354970357144	4.1216717447499995	-8.035418673519644
O	-3.1572254370357142	0.7229563687499997	-9.459239203519642
O	-2.2298105770357144	0.7416152477499997	-13.193889633519643
