33

O	6.989979570114189	10.819744127617968	0.9957227613652182
O	7.56430577613545	10.348074545461937	2.212790237425374
O	9.013989269607764	10.619668028085123	2.420286018006887
O	9.712465249217026	11.594356500321545	1.724064855739543
O	8.831254540123997	12.46211316065994	1.0752922117778256
O	7.377842018167117	12.202092437598745	0.9998716307163753
O	5.533652731489422	10.79956578300926	1.14233160152602
O	11.00725179879841	12.065142560148413	1.7911893153456586
O	12.254900919064953	11.484643581206573	1.9088531345937252
O	13.522583879475796	12.007297631304036	2.1457809367307012
O	13.348507994989735	13.033411950992999	2.532862827522035
O	12.534217379028952	13.80154198184499	2.1747817946669463
O	11.323494773839148	13.098877555337626	2.311188840245645
O	14.846928851087396	11.71885262993334	2.4319942152291767
O	16.04909912918967	12.441753307458697	2.636107551166299
O	16.587284546536516	13.668717003379488	3.3957787574292757
O	18.007023224100536	13.524369916293216	3.5786619387279264
O	18.294055789379925	12.563082001945679	2.816483977907075
O	17.154907456904517	11.805097665464283	2.653178125744988
O	19.090106831851735	14.374806001964599	4.147878431335379
O	12.564416796073415	15.380902110239917	3.0976473218272265
O	13.357898497501793	14.632162967536253	4.374144097893827
O	14.346225941131667	13.795779500907255	4.5980213447248035
O	13.839292751755606	12.48468608539185	4.89212127085391
O	12.532281659205864	12.427024242617128	4.757789242368716
O	12.56507666599655	13.392179865981841	5.584415058034612
O	12.98399878947571	14.755243652802898	5.66712202343016
O	11.210034274454348	12.126335160717538	4.450731283089602
O	10.18075111959202	12.972558868668497	4.570195427541465
O	10.536354105545978	13.891572389679599	5.405642600793716
O	9.048036262446244	13.708893370320272	4.0166626346959635
O	8.137696492304453	13.706605340120605	5.313167832970241
O	7.8918323021492265	12.921094260833396	4.207621171152413
