75

O	2.1646971643125004	0.6692726110625	-4.086646869645834
O	3.7363569943125	1.3959922557625	-6.198423219645834
O	0.3758138053125003	2.1395758260625	-4.004900439645834
O	0.6940889843125003	0.9621659010625	-3.4053872496458335
O	0.6662738243125003	3.1695920730625	-2.9143898596458335
O	-0.3479116736874997	2.6973882030625003	-2.0476593296458336
O	2.0380674343125	2.7720856130625	-2.3903724796458334
O	2.9363109843125	3.8560782430625	-2.4458707696458335
O	1.5549689043125001	2.5700481330625	-0.9168448914458336
O	1.1685746043125005	3.8846209530625	-0.7691231366458335
O	0.27293337231250026	1.8256286000625	-1.2798739086458335
O	-1.1681896246874997	1.4777859550624999	3.577224370354166
O	2.6331067643125	-0.6091457969375	-4.691102509645834
O	3.5799074643125004	1.2527466787625	-7.676823159645833
O	-1.0081744666874997	2.6005432230625	2.9034446903541666
O	2.7224449843125003	0.1739198530624999	-2.6026705196458337
O	4.639759364312501	2.7356301630625	-6.613510499645834
O	-0.5157737883374997	2.5642573830625	1.6925447403541662
O	2.6961875943125	1.9352836880625	-5.011849809645834
O	4.101704634312501	-0.1952073069375	-6.2232313296458335
O	-0.5849492910874997	1.4432114460625	0.9821934703541664
O	-0.8572149766874997	0.27218054306249995	1.6613573703541666
O	-1.2383463476874996	0.31222950306249997	2.9699598503541664
O	-1.4591949686874996	-0.9127583269375001	3.6102562303541665
O	-0.8017984726874997	-0.7894963569375	0.8635459703541664
O	-0.42243895828749967	-0.27570793693749995	-0.34046859964583354
O	-0.3481966456874997	1.0775510500625	-0.2727633296458336
O	-9.0344996156875	7.9940784530625	-3.1264845796458336
O	-6.8004570456875	5.5861297430625	-4.977992769645834
O	-3.4253278756874996	4.9555029330625	-3.5016969696458338
O	-0.2545338586874997	4.9421166430625	-5.447181539645833
O	-1.3433411676874996	5.7121403530625	-8.860746819645833
O	-2.6106215556874997	2.2555127120625	-9.830050069645834
O	0.44515382631250033	0.2907607930625	-9.435823209645834
O	-0.9036377336874997	-1.9232409569375	-6.6597252796458335
O	-4.0136752656875	-2.3257393869375003	-8.453278609645833
O	-7.3491404156875	-1.2783574469374999	-7.097915999645833
O	-6.295678555687499	-0.0523976369375001	-3.7032591396458336
O	-7.9163402256875	2.8414198130625	-1.9292924296458336
O	-7.532329305687499	4.8195393430625	1.1844041003541665
O	-7.545752785687499	1.9014062610625	6.381065490354167
O	-6.422153405687499	0.5938473670625	3.0509640503541666
O	-8.8867769056875	-1.2813620169375002	0.9093898203541664
O	-8.2693579256875	-3.3951019669375	-2.141046139645834
O	-11.1536869256875	-4.2724328369375	-4.364359899645834
O	3.7238774743125	-7.705797706937499	7.434567440354167
O	0.7462609443125002	-5.5479752969375	6.519174150354166
O	-12.8417551256875	-6.0864723769374995	-0.41171753864583355
O	-9.6843393756875	-6.7962263069375	1.4548282103541665
O	-9.2892889756875	-4.2966388969375	4.323619510354167
O	-5.9469083556874995	-3.7222798269375	5.992190730354166
O	-4.101940885687499	-1.2553582069375	8.201495700354167
O	-3.0251788356875	1.9975567150625	6.520633590354167
O	0.6581556243125003	2.8022786630625003	6.337668570354166
O	0.8524595843125004	6.5767007830625	6.325660810354166
O	3.8830044643125006	7.4064067130625	4.2581535903541665
O	3.7820219243125	5.1719926030625	1.2954086903541664
O	6.709177594312501	3.0410268830625	0.18776010035416646
O	10.2431739743125	2.7086832030625	1.4444658503541663
O	11.8564012743125	3.6243152830625	-1.8535135116458337
O	10.086776474312499	7.0345385730625	-1.9955290696458337
O	10.6702661743125	7.402271543062501	1.7377341803541664
O	14.577126374312499	9.2700863730625	-1.6467882276458337
O	11.9408007743125	-1.1967554269374998	-1.3741707966458336
O	8.9901919643125	-0.31492573693750003	-3.4794003996458334
O	7.045140074312501	-3.2236616469375	-1.9212413796458336
O	7.8701354243125	-2.2556728969375	1.6556875303541663
O	5.544115684312501	0.2963348830624999	3.280604430354167
O	6.383731864312501	2.8741460430625	5.9207631403541665
O	6.093622064312501	-3.5416032569375	6.8065041903541665
O	6.4858019843125	-5.840792226937499	3.8398149303541667
O	3.4899299843125005	-5.7538861269375	1.4951211103541664
O	1.7854995443125001	-9.1472011969375	1.4690803903541663
O	-0.13789355168749967	-9.060796796937499	-1.7240091206458334
O	0.9217906043125003	-11.8241164969375	-4.0915368096458336
