109

O	-6.104568361425714	1.5656735600999996	-3.3378802340428573
O	-7.430961581425714	1.5330561200999995	-3.356858544042857
O	-0.9440480984257144	-0.28825947290000054	0.40064190895714274
O	-5.795624281425714	1.3472888662999996	-1.9949678340428572
O	0.45574411857428565	1.1540405940999996	1.1720347069571428
O	-4.478813751425714	1.6135740720999996	-1.7653690440428573
O	3.371199908574286	-1.5850680129000005	5.642114005957143
O	-3.711141311425714	2.4450313071	-1.3984185240428573
O	4.678180798574286	-1.2434140529000006	8.323312245957144
O	-3.551654131425714	2.6276540970999998	-0.024111522042857242
O	-3.2223361014257144	3.9287505170999992	0.30102436495714274
O	-1.9816100644257144	4.149096677099999	0.8869223969571427
O	-1.1266739894257143	3.1183500770999997	1.4434101659571428
O	-1.5728980374257144	1.9310338600999994	1.0516261279571428
O	-2.8863268514257143	1.8061295120999996	0.8021693669571428
O	-3.8842569614257147	4.982024517099999	-0.4727798710428573
O	-0.8711014954257144	0.6846968040999996	1.1326642199571428
O	1.2131295285742858	0.34251186409999956	2.004367835957143
O	0.6791261885742856	0.2956978000999996	3.325672535957143
O	1.5631085685742858	-0.48173809290000036	4.088630925957142
O	2.380619678574286	-1.4543335129000006	3.420217575957143
O	2.082201578574286	-1.9525337229000004	2.112899725957143
O	1.2065895585742858	-0.9802939529000005	1.5162384359571426
O	2.4076685585742856	-3.2056223929000005	1.4612158659571426
O	3.0764497285742856	-2.2413031829000003	4.439802495957142
O	3.946269778574286	-2.6277211429000005	6.4093131359571425
O	4.923183838574286	-2.3421996129	7.477931755957142
O	3.3344708085742862	-0.9889133829000005	8.048531395957143
O	2.7032449485742855	-1.0829881829000005	6.720211895957142
O	5.205500418574286	-1.4641571429000007	9.588401525957144
O	-9.039489081425714	1.5197276140999996	-1.7469016140428573
O	-7.0582249214257144	1.8802762210999995	0.02932762595714275
O	-9.302559301425715	1.6031134880999995	-0.4577952540428572
O	-6.8113693214257145	1.7550403680999995	-1.2376431240428574
O	-8.229763221425715	1.3826202540999994	0.4100672779571427
O	-7.779394521425714	1.7257094320999995	-2.099780704042857
O	1.4285556385742855	-3.2781310729	0.36913935695714273
O	2.191407588574286	-4.5201626229	1.6697177059571426
O	3.1225655085742856	-3.5072909329	0.2778333809571427
O	-11.506464541425714	9.0800455071	4.026019935957143
O	-11.179394481425716	5.3518191471	3.502371055957143
O	-7.651332531425714	1.9323179550999996	10.289428375957144
O	-5.116488301425714	2.7335481270999997	7.545838735957142
O	-4.293098761425714	6.2384491871	8.750887695957143
O	-4.855511551425714	9.3331680271	6.588093865957142
O	-5.969867641425714	7.6284291270999995	3.419352865957143
O	-8.482661821425715	9.1307832571	1.0475260719571426
O	-6.080813501425714	6.3084856470999995	-3.248227814042857
O	-4.121890341425714	8.9122772171	-1.5268293340428574
O	-2.3671151514257143	8.808229987099999	1.7205160459571427
O	-1.2269211606257144	12.0502096971	3.337275255957143
O	6.422624918574286	8.8655870171	5.572689735957143
O	8.934724258574285	9.9394973871	3.029745235957143
O	10.832300058574285	6.6559301771	3.217606105957143
O	7.530675078574286	4.7640212271	2.688236385957143
O	7.109015838574286	6.640203877099999	-0.41910248904285724
O	10.659085558574285	5.8060934971	-1.5217446940428574
O	10.152776158574286	2.0978519140999996	-0.9730178440428574
O	6.867104358574285	2.0481677070999993	-2.880964044042857
O	8.707780558574285	3.2896139070999997	-5.953090744042857
O	7.580731338574286	-2.2924875229	-5.7493260140428575
O	6.135207488574286	-3.5648656229	-9.003575924042856
O	3.9569640085742863	-6.6860661729	-8.920268644042856
O	-0.6602405344257143	-8.341078832900001	-6.467859804042858
O	0.8756680085742856	-5.482173292900001	-4.615615574042858
O	-0.9942390714257143	-2.0926263829000007	-4.4883124040428575
O	0.8218026485742855	-0.04611130290000043	-7.192678244042858
O	2.2432804385742857	3.4476829670999996	-6.683473094042857
O	1.0451348185742855	6.017256587099999	-9.189667414042857
O	4.046343148574286	11.149756117099999	-4.973356134042858
O	7.224242228574286	15.1563765971	-1.7374085240428574
O	3.0239572785742856	15.1765737971	1.3092928359571427
O	1.0341405585742856	12.5828443971	-0.6978789060428572
O	1.4744233785742857	9.018205627099999	-1.7124256040428574
O	-0.8756098174257143	8.1829446071	-4.611076534042858
O	-1.7270840644257144	4.5592422071	-5.370519684042858
O	-4.2411519514257146	2.6401890870999996	-7.567843804042858
O	-7.647026651425714	2.3190216870999993	-6.237639034042857
O	-8.891663881425714	-1.2032897629000006	-4.992432704042858
O	-12.713638141425715	-1.0830300529000005	-5.346393024042857
O	-14.064323741425715	-3.4125220929000006	-2.642067514042857
O	-12.077064541425715	-2.7734296529	0.4967399909571427
O	-10.246692571425715	-5.3031777229	2.660581665957143
O	-10.324891771425715	-9.0861945029	2.348909575957143
O	3.004917328574286	-11.0607772029	-3.809418924042857
O	4.837643328574286	-12.6569060029	-0.9311126540428574
O	7.199312188574285	-14.5996473029	-3.161226634042857
O	8.074500078574285	-11.255152302900001	-4.816453674042857
O	8.768537958574285	-9.5916058029	-1.4457353340428574
O	11.608079658574285	-7.0194853029	1.8965058559571426
O	9.541783658574285	-8.1518939729	4.805357135957142
O	6.073472728574286	-7.366295962900001	5.498370535957142
O	1.4375285685742856	-7.558922812900001	9.347303275957143
O	0.08392727857428572	-9.9817740029	6.857854125957142
O	-3.596183231425714	-10.387766602900001	7.697522275957143
O	-6.8558521114257145	-10.2716893029	5.854788715957143
O	-7.536913661425714	-6.731157742900001	7.058434115957143
O	-4.399437921425714	-5.7869006229	5.142971935957142
O	-5.237561211425715	-7.429010742900001	1.7856678959571426
O	-7.355907181425714	-5.2799204129	-0.5604282900428572
O	-9.845870791425716	-6.6128099629	-3.088566564042857
O	-3.5723154014257146	-7.1953112329	-3.7197550040428573
O	-1.5774703234257144	-7.2046450329	-0.6181666020428573
O	-1.4582589984257144	-3.6672984329	0.8670908519571427
O	2.6607956385742852	-2.057580892900001	0.07569739295714274
O	3.2231962385742863	1.0873256050999995	3.350578515957143
O	6.316220688574286	0.13700518709999954	5.664715685957143
O	7.957088828574286	-2.8051478529000002	3.872934185957143
O	11.285971058574285	-3.0504016429	5.5467552859571425
