41

O	20.960722177745446	20.213867034769322	8.450850486239844
O	21.12858421547866	20.135101490110138	7.03651553511659
O	20.15195701989122	19.739556969271	6.200923689771894
O	19.04639798622651	19.000822385290544	6.436609038492804
O	18.73410839058684	19.37520099984475	7.71527401089967
O	19.530053475088394	20.22081822525296	8.499272790540253
O	17.611537464051743	17.085799812931057	6.68483296123521
O	18.466532589757023	17.824406021121344	6.052684808105633
O	17.721823954708213	18.569453923427027	8.267029044931464
O	16.851447895107224	18.025785442966846	7.385754027500531
O	18.88839178842871	11.883901065344055	2.640786396666938
O	17.738255221276095	11.422960831048709	3.1030944437293524
O	16.73740686267413	12.246939801509338	3.311845741831302
O	16.88733998794047	13.464975512667717	2.7690181391667013
O	18.09978114128606	14.035566350751477	2.6626848835986427
O	19.15388891390065	13.24742226089794	2.9206787516640853
O	20.524548169076052	15.451393838708142	4.803974750965164
O	19.250126690796158	15.047439973089896	4.791532182308873
O	18.42010514809196	15.746104530124008	3.9960914805964687
O	18.845587737856224	16.922530050256285	3.551727414738655
O	20.07110893340164	17.4585128231885	3.7341403897005123
O	20.74799967238389	16.764441680173164	4.605557502029521
O	20.912324549314725	17.812419807799134	10.941199964827998
O	20.87423608772108	17.05411671176624	9.732538088578279
O	21.297663467917367	17.967625015246004	8.906732662807691
O	21.53765110867985	19.253828284171306	9.368342355163144
O	21.092275912346846	19.129977564025268	10.598452355951395
O	21.007585300210874	17.766377000287736	7.645894488275526
O	21.379788868755007	16.727714543298926	6.9106882932979214
O	21.54038303469467	17.32584734543186	5.608872145322272
O	20.4691303577473	15.863618293330656	7.12567605792464
O	17.642501290423493	15.291134165942283	3.098798873677705
O	16.01925617982641	12.521574339596253	4.542818019907045
O	16.920236601077406	13.250617488134374	5.375704600508712
O	14.803679319390636	13.182300863730626	4.558134102003665
O	14.66981415052885	14.119984017856678	5.76833791705231
O	21.556475793059448	17.40215715689758	12.200592080278593
O	21.659271774634338	18.561722636862125	13.106113201211485
O	20.485212472335	16.725697321517274	12.929062260201508
O	22.54934080087174	16.31738534182946	12.316416697806659
O	20.47037395315551	18.646450371305168	3.2721287677686886
