35

O	14.347102663500145	17.04954053545679	8.723722564518317
O	13.141295987132334	17.31091002793535	11.006059809403432
O	11.185233137189048	16.365599289127434	9.789974253234154
O	12.340753032418817	17.513949013069027	7.042735272551013
O	13.520497810579053	16.98615772787122	7.372300501540609
O	11.690319477893214	16.41870413030702	6.172828241089665
O	12.69984742394782	16.27353255322352	5.184616232898875
O	11.611366373364026	15.091810618934987	6.7727062386295716
O	10.487175456617862	14.324530885359508	6.918007491214619
O	12.895443107394776	14.376807235252004	6.518034270107509
O	12.326826526624789	13.420837166069843	5.715334362565385
O	13.556994830703339	15.381067447943403	5.658136789262913
O	7.922523758155816	16.372014620794733	8.73431207867836
O	16.286643513453594	12.419851501520895	2.741396568055489
O	15.711576954388676	17.581266494052656	8.45191094522757
O	13.415005768236282	15.845974980090622	11.010628652893983
O	9.359301203098223	15.60386809051384	9.333167558504146
O	14.960811673798462	12.35464072229743	2.858819881016432
O	6.906194707901847	15.317230200778248	8.356783173675442
O	14.710738153415395	15.528209096267393	9.214686039545192
O	12.302601148381454	17.670790413948666	12.27467822717458
O	12.106036657177832	15.366501949757971	9.464810689075893
O	6.927324936231642	14.302778237061121	9.082089049597947
O	14.34572634431725	13.285754154015994	3.588751608157613
O	14.125403121666281	17.9578344854149	10.054098760644674
O	11.963474071569436	17.683409085763365	9.752093004230286
O	10.624506508642353	16.846212995666757	11.31666944086454
O	15.1107896449702	14.083382987914012	4.350051009394375
O	16.50245631942975	14.09949798359638	4.284159079542242
O	17.1010944355441	13.173502762278929	3.47648112870853
O	18.508814851731934	13.10705934097847	3.548169804243127
O	17.04551068283712	14.955817011493805	5.1517032064929476
O	15.978331383464974	15.544221388320137	5.752035319197889
O	14.828079838037956	15.120577309548482	5.15775897723479
O	6.869716505610279	15.032850643085247	6.944705375874113
