33

O	14.19231430894157	11.75375072868846	2.4729728669464612
O	15.415823675737618	12.35119730590905	2.762889393636774
O	17.067877850874297	15.969992170541058	4.634093628784608
O	17.519087452639916	15.397056935876856	7.228324088753439
O	17.610148071003582	12.774145805844844	2.9981880887134733
O	16.661251333242767	11.976550064863037	2.5303830698181007
O	4.626494078335893	11.876518940015252	2.7330868693594947
O	17.184323711059292	13.902729904756093	3.6050578825829946
O	19.06098601559814	14.690765317029115	4.627016794706348
O	17.79038288368479	15.069769906086462	4.154191685460153
O	10.729753948994084	13.489975714071486	3.868687803436207
O	19.54967629969026	15.796075675595086	5.348111092994831
O	13.110191643847296	13.491926275605234	3.72982172447366
O	18.819156327852575	16.248702726784963	6.45805587346698
O	9.529587835561284	12.06434731786234	2.3575618578782436
O	19.297062961551887	17.34059374314753	7.129125175543992
O	7.2718466116458895	10.389795709913184	1.8850342668594617
O	19.841991057952036	18.285423283472962	6.3119206006690805
O	20.666305300651572	17.814814609425127	5.36573320062835
O	20.21010481688537	16.728388752418205	4.616212423235022
O	19.581112550705512	16.795300784636254	3.2593016938466075
O	13.044822638953704	12.422498745540327	2.934415246609756
O	11.839017457766255	11.954178615683995	2.5828518184254703
O	10.714562706549389	12.669881903056842	2.8234889352195403
O	11.949783836620774	14.010647330136846	4.183514202676111
O	12.061308957949638	14.93306983617124	5.349776218106773
O	9.431111396156474	11.170690452559839	1.2441961805340318
O	7.982149484924738	11.092869014627988	0.8589665693709563
O	7.473302791742434	11.073182258937699	3.124485000106134
O	8.356653077501775	12.26120901029752	3.1181554977936727
O	5.86574854521027	10.23335197308479	1.631299699468098
O	5.224750068992634	11.607690881053742	1.5014212589571532
O	15.545189305739248	13.688024949293952	3.8434067096469144
