118

O	2.830797361128572	2.9586771363693503	-6.090807778922078
O	4.0269615011285715	2.19393316636935	-6.311170758922078
O	1.5575438911285717	0.18921066947935034	-0.14618822792207808
O	3.0801928111285717	2.7365683763693505	-4.778695228922078
O	0.006180662128571712	-1.0374553836306497	-0.6769311289220781
O	6.635626251128572	4.34474264636935	-6.4173338789220775
O	1.9850929511285718	2.9901661663693506	-4.231946328922078
O	0.16633399912857172	-4.928391853630649	3.985799981077922
O	0.7255679511285718	-10.44929531363065	5.663098041077922
O	1.1763828411285717	2.1492803563693506	-4.076927628922078
O	1.3163004311285718	-7.851271993630649	4.289304141077922
O	1.7660492211285717	0.8116728203693504	-4.158272598922078
O	5.115609331128573	5.762194686369351	-6.641715578922078
O	1.1697326411285718	0.16671971666935034	-5.187494608922078
O	0.7591714211285718	-1.0965643236306497	-4.716943398922078
O	0.6349405511285717	-1.3896913236306498	-3.307957348922078
O	1.4848760611285718	-0.7052339796306496	-2.4607366989220782
O	2.152810691128572	0.30951828136935033	-2.9598015289220783
O	1.1879973911285717	0.7718459073693503	-6.513472018922078
O	1.2688703111285717	-0.6655862076306497	-0.9899206529220781
O	-0.5512501868114282	-1.3237713236306496	0.553406771077922
O	-0.8425433638714283	-2.5903667736306497	0.2792320710779219
O	-1.390601500871428	-3.0688103436306493	1.4869078510779221
O	-0.8999150288714282	-2.7066237336306496	2.807451441077922
O	-1.0378234008714282	-1.2927194136306497	2.9529150010779217
O	-0.7373132308714283	-0.6166999356306496	1.740389071077922
O	-1.3491430538714282	-0.6333937916306497	4.249007411077923
O	-0.30201584987142827	-3.5834388536306494	3.825132951077922
O	1.3848000911285718	-5.35061900363065	4.593211971077922
O	2.0179298711285716	-6.61200889363065	4.199105821077922
O	0.008953413128571786	-7.30439767363065	4.338293751077922
O	-0.3787696118714282	-5.94757930363065	4.801094281077922
O	1.5429577411285718	-8.43601959363065	5.552028421077922
O	4.996272261128572	1.5461217363693502	-4.426145868922078
O	1.834806431128572	-9.861091813630651	4.998507261077922
O	5.426999151128571	4.54666967636935	-5.921602908922078
O	4.3821084511285715	2.7403422863693505	-4.675695388922078
O	4.685914511128571	3.4342782763693505	-5.910709858922078
O	-1.2514755568714282	-1.0757426136306498	5.479705341077922
O	-0.6730235948714283	0.6110505003693504	4.545765021077922
O	-2.4587999088714283	0.20780449046935034	4.514075291077922
O	-14.341187238871429	2.1237130563693505	-5.529983738922078
O	7.305743261128573	-0.6685925326306497	-13.583893938922078
O	8.247784881128572	0.7286092923693503	-10.203577538922078
O	10.222199461128572	-5.61426142363065	-8.868883928922077
O	10.703274061128571	-5.32293382363065	-5.077474668922078
O	7.015886501128572	-4.54252652363065	-4.595034668922078
O	5.740691581128571	-6.8771320936306495	-7.273715428922078
O	3.7237571411285715	-5.77934458363065	-10.287740288922079
O	3.4403793511285716	-2.1128763736306495	-9.479256488922077
O	3.3764182011285717	0.45684500936935035	-12.333773338922079
O	3.2548872111285716	4.2461526263693505	-12.669497938922078
O	0.21887020012857172	4.01594660636935	-8.907663448922078
O	-1.1165780458714283	0.7765437893693503	-9.969564898922078
O	-0.48287557477142823	-2.5933883536306497	-8.670688088922077
O	-1.7584781588714282	-5.4553170036306495	-11.010263838922079
O	-4.961943278871429	-9.96733081363065	-4.405450948922078
O	-8.632891168871428	-9.339812923630651	-4.185485568922078
O	-8.569898918871429	-9.419770993630651	-0.36222848092207804
O	-5.776885148871429	-6.8545574236306495	-0.4352720769220781
O	-7.8976079388714275	-4.60642607363065	-2.341571358922078
O	-10.807817138871428	-5.15966736363065	0.07683040007792197
O	-8.76533265887143	-4.276927013630649	3.114211261077922
O	-7.296106678871428	-1.1207098636306498	1.473871201077922
O	-10.814915738871429	0.19043476872935033	1.153167091077922
O	-7.725065578871428	2.1801016863693503	5.491693601077922
O	-7.928371498871428	5.94472226636935	5.775841551077922
O	-5.042597678871429	7.753982896369351	7.467410571077922
O	0.3568136651285717	8.30852583636935	6.709631671077922
O	-0.8622891178714283	5.138380026369351	5.085457951077922
O	-0.7732075258714283	4.93676875636935	1.2521976810779218
O	-4.349822908871428	5.798673076369351	0.2022679020779219
O	-6.471868728871428	3.7350608863693506	-2.1802714689220783
O	-7.993611008871428	5.590913186369351	-5.074055288922078
O	-9.80804214887143	2.7760021363693506	-6.8160559189220775
O	-9.862731178871428	-0.8241460036306497	-7.940191878922078
O	-12.002042638871428	-6.1790355636306495	-9.766961488922078
O	-7.253973538871428	-6.7592384236306495	-11.743309238922079
O	-5.832698048871428	-3.3673848036306495	-10.526161268922078
O	-5.281531898871428	-1.6941967936306497	-7.223838968922077
O	-4.814121038871429	2.03154787636935	-7.737563688922078
O	-3.1984864588714284	4.1562340563693505	-5.146309398922078
O	-1.8360376388714283	7.69312095636935	-4.708591228922078
O	1.5910410511285717	8.11795498636935	-6.055379478922078
O	4.372172141128571	8.95658974636935	-3.5423008589220784
O	6.923975231128571	11.06434748636935	-5.4859832689220775
O	10.340219061128572	10.08060432636935	-4.013070728922078
O	10.39725176112857	6.324644846369351	-3.528898468922078
O	11.209728761128572	4.386928246369351	-0.34086726192207806
O	12.559293461128572	5.754002066369351	2.956346691077922
O	0.15182029512857176	5.188124996369351	10.947952061077922
O	0.9716141811285717	2.3944584663693504	13.265909161077921
O	-1.1710848618714282	3.7663068063693506	16.10533216107792
O	-4.053730918871429	3.7585383263693504	13.574380061077923
O	-3.4183100088714284	0.14822029456935035	12.629032161077921
O	-3.186977248871428	-0.7857934986306496	16.31184236107792
O	-4.585772048871428	-4.777602323630649	11.899060661077922
O	-0.9779928168714282	-5.906486633630649	11.931088961077922
O	1.7336047611285719	-4.96083839363065	9.614387961077922
O	4.707886211128573	-7.46545021363065	10.052031361077923
O	7.253693411128571	-5.98615467363065	7.5375235110779215
O	7.746657231128571	-2.5576014636306494	8.913399631077922
O	11.11015696112857	-1.4212451336306497	7.543629741077922
O	12.435585661128572	1.5837614663693502	5.754527021077922
O	12.167384561128571	-0.14977486363064965	2.3590123110779215
O	8.44622111112857	-0.3208984586306496	3.021584191077922
O	7.8499894911285715	3.3273180263693503	3.926544771077922
O	7.288343811128572	5.67330736636935	0.9692112710779219
O	8.224938871128572	9.336418256369349	0.8631869410779218
O	3.5411990611285717	6.961713746369351	4.373949031077922
O	3.709874951128572	3.3392423763693504	5.428301251077922
O	3.1504164411285718	0.8947771923693504	2.4807986610779222
O	0.9698162511285717	-1.0583321136306498	3.169558761077922
O	0.7762951311285717	-4.509128733630649	0.5985385410779218
O	-0.3968900528714282	-7.766029723630649	2.667369851077922
O	-2.333363368871428	-6.142342513630649	6.415149511077922
O	-3.9222216988714282	-8.86623217363065	8.434135041077923
O	-6.930526028871428	-8.430050133630651	10.474466061077923
