82

O	-0.4183269321296291	-1.4189323421481475	-4.601229336003703
O	-1.7880951101296292	-1.7045508921481476	-4.565207376003704
O	-2.3330217311296293	-1.6867004821481477	-5.766516206003703
O	-1.670263003129629	-0.8872280921481478	-6.637376036003704
O	-0.31868263912962913	-0.8819448821481478	-6.800730536003703
O	0.22323016887037084	-0.5797174521481477	-5.528153906003704
O	-0.158227871129629	1.1689522918518522	-0.24191182600370364
O	-0.12363039112962904	0.4384317368518522	-1.5227911510037035
O	-1.550561088129629	0.6341384618518522	-1.7109779280037036
O	-2.072377563129629	0.06484517985185223	-0.5547208130037036
O	-2.048549320129629	0.27013157785185227	0.8355725339962965
O	-0.9891182911296291	1.2500983978518523	1.1031485639962963
O	-2.887211221129629	-1.0894315921481477	-0.8233886540037036
O	-3.323688931129629	-1.4580999221481479	0.3273006339962965
O	-2.798975901129629	-0.6689825421481478	1.3208892039962965
O	-2.923201951129629	-1.7985803921481476	-2.1795274700037037
O	-2.303268341129629	-1.6086944021481475	-3.2702490360037038
O	1.345616298870371	3.2038538278518525	-0.22533742600370354
O	1.691352588870371	3.646226127851852	0.9879306039962965
O	3.0381547888703713	3.7535028378518525	1.2638996339962962
O	3.8719888488703713	3.5497859878518523	0.17087294399629638
O	3.328229358870371	3.3044439978518523	-1.1199637190037035
O	2.2221568488703713	2.498304957851852	-1.1114657120037037
O	-0.22452390612962914	2.932298767851852	-0.7424696350037036
O	1.888211358870371	1.6853796618518522	-2.2613197250037036
O	1.369906918870371	0.5516894158518522	-2.6828255060037036
O	2.381215318870371	1.7147626468518522	-3.6165131160037034
O	3.425932378870371	0.9945688378518522	-4.286463926003703
O	-9.00379324112963	5.017903927851852	-8.856487476003704
O	-5.5678957911296285	6.181187267851852	-7.7860498960037035
O	-3.134008381129629	3.5531407678518523	-6.655718226003704
O	0.5418380288703708	3.3523215678518525	-7.461037676003704
O	0.8372776488703708	6.072442687851852	-9.998299286003704
O	1.3410470388703708	8.795166437851853	-7.405910176003704
O	4.407201848870371	7.249913467851852	-5.795587916003703
O	2.425853498870371	7.137455657851852	-2.5644293960037037
O	0.670593648870371	10.312209697851852	-2.7244769160037037
O	-3.078453671129629	10.656969567851851	-2.7832290360037035
O	-4.086411071129629	7.087437627851852	-2.3071491240037036
O	-7.106331801129629	5.415092787851852	-3.865778536003704
O	-8.74364795112963	2.0761215578518524	-4.123515396003704
O	-10.21966557112963	-0.7197770321481477	1.0327402739962963
O	-7.485639511129629	1.710087188851852	0.4580372439962963
O	-7.921185311129629	5.372115917851852	1.1681616539962962
O	-5.427450901129629	8.189899757851853	1.4955905239962966
O	-6.702784201129629	11.755041617851852	1.3706682539962962
O	2.498118578870371	-7.514907572148148	9.006541293996296
O	1.848966248870371	-3.747618012148148	9.147285593996298
O	-0.9301450451296291	-2.3216987721481477	6.989053263996296
O	-3.970731391129629	-2.1089708621481478	9.309192193996296
O	-9.24437460112963	10.263848717851852	4.991826793996297
O	-7.099473931129629	7.459891197851852	6.2509053839962965
O	-8.77078627112963	4.131231707851852	5.4655357539962965
O	-6.816058811129629	0.9137142078518522	5.543631143996296
O	-7.046224211129629	-2.6746306621481475	4.481139703996297
O	-6.500938351129629	-3.365521602148148	0.8232730939962964
O	-3.413136371129629	-5.408107052148148	-0.1976512160037036
O	-4.351021181129629	-7.034659952148148	-3.5221229960037035
O	-1.064885638129629	-7.485400992148149	-5.392430046003704
O	0.7094296488703709	-4.169411432148148	-4.933877756003703
O	4.394088578870371	-3.822526872148148	-3.8707795460037038
O	7.010593768870371	-6.3738672221481485	-3.2527487460037037
O	9.39571624887037	-4.874248402148148	-5.8174166560037035
O	6.907580908870371	-5.331660922148148	-8.664633916003703
O	5.848129678870371	-8.696511262148148	-7.194132436003704
O	9.39595404887037	-10.079901682148147	-7.199608946003703
O	8.97306204887037	-8.091454462148148	7.323767433996296
O	6.842788888870371	-6.014975092148148	11.590452793996295
O	10.75846654887037	-3.4938124221481472	-1.4019904668037035
O	8.79522764887037	-0.7097949721481477	-3.026452336003704
O	7.416207258870371	-0.0700527941481478	0.5074737139962964
O	6.322850778870371	-3.596500122148148	1.4064276539962965
O	2.849349788870371	-4.691835812148148	0.1381674839962963
O	1.7578090188703708	-8.107543272148147	-0.8999424180037037
O	-1.502559419129629	-10.034652582148148	-0.6949140310037036
O	3.6519913188703708	-9.246909882148149	3.0788701839962966
O	2.973911478870371	-6.122536242148148	5.137941043996296
O	5.238457108870371	-3.1571579621481476	5.654208733996296
O	3.644992198870371	0.12501299485185224	4.6166478139962965
O	3.2144190088703715	2.3709146778518524	7.522556023996297
O	2.8880452388703715	5.792197757851852	6.310760463996297
O	5.627634868870371	8.075327157851852	7.575515053996296
