35

O	18.755206750623213	14.67122121038146	3.8469874227003826
O	18.410489630395016	14.927025408668214	5.219649798098466
O	19.30933433914713	15.62141355477148	3.3528807906351337
O	17.033430681058373	15.497708222461291	5.327688924426525
O	16.75131996515285	11.87803038355075	2.4920225883053555
O	19.7992865047202	17.801077839618102	5.1595302663945475
O	16.60129127162186	16.28503538111555	6.299178750739186
O	14.297109115208215	11.938858115562896	2.5044397619562373
O	17.311734508420116	17.40058030238417	5.9469929219863715
O	13.055312740803103	13.60582187820127	3.5676377851345213
O	18.471506091896043	17.664710839969963	5.081287752407547
O	10.81327694751061	13.605529595845995	3.8818374461564877
O	21.044633059262406	18.254225570257102	5.193753305331148
O	9.316770911047122	11.917411011780535	3.1738457575036603
O	21.299709049443678	19.473528971116444	5.841276043707227
O	6.737328008135355	10.447423363349396	3.5902235593680163
O	22.519421583973486	19.904045374980967	6.2081568037973005
O	23.514675768857487	18.979449551148537	6.2781901243093685
O	23.415026442298966	17.852478034598054	5.56278564153422
O	22.250869832807183	17.673996314170257	4.877402831591571
O	17.301131789527034	17.34193131631307	4.222542466330442
O	16.50113141201032	16.260504015005026	4.275963065148627
O	17.765618168106954	13.774874661602345	3.2025801173298944
O	17.84244666904918	12.555620895392863	2.728449265101085
O	15.57320617980487	12.394632672417071	2.760339173021749
O	13.075444579016363	12.481895034862006	2.8631524721903845
O	12.01231754151898	13.998225704016887	4.305466752702552
O	12.353555478859164	14.83004536086629	5.505084741393984
O	10.61147157739385	12.538608448367352	3.0694031487623428
O	8.805357467756288	10.888630577803392	2.328509379791256
O	7.305545615595571	10.599901359148655	2.28238729153602
O	6.958578726056482	11.776979382418492	4.065508318879338
O	8.406336922992612	12.069400471025387	4.318132171284289
O	11.80372870944206	11.896079890504026	2.7772613280643794
O	15.995616199387184	13.85971645942683	3.302552407794238
