37

O	18.26178798250865	19.057364761229802	8.036764356928183
O	18.536903095381994	18.747316818746125	9.604529560759552
O	17.889023272509178	17.48655931955939	9.007011803878157
O	17.61236440990428	16.81835377834013	7.640388706462248
O	17.484748071361405	16.92191739345865	6.180754256757804
O	18.422311089446385	18.00563951773201	6.936526957019186
O	17.58223525901778	15.912250922936876	5.165233960837078
O	17.782463597282533	14.756392388474513	5.932223313330537
O	17.84971635591611	14.068942245767511	4.56313287458989
O	17.17407956851063	13.272611574318905	3.6918951512021687
O	16.161617615813924	14.222117525480733	3.635294864934477
O	16.940766039873907	15.519433955033033	4.018243378692775
O	19.165203111673964	14.792610325314111	4.49555152824165
O	19.706678160379685	15.671842996422082	5.0679095119994155
O	20.125824984298312	16.931334517933983	5.745942477558231
O	21.096700878891355	17.591410177418332	6.422806047664994
O	22.4272961907674	17.062493905837858	6.213058618472314
O	22.244773634360104	15.749381257671207	6.718015330084391
O	20.924134425538277	15.348695424314833	6.197722251128692
O	20.46657686197486	15.29944559751598	7.558815687555184
O	21.439387347149154	18.26018353469928	7.539859401825778
O	20.964497249741523	18.265813024300662	8.77610890527027
O	22.16493500028371	17.885161568029442	8.089357112467821
O	23.34888336110309	18.361212276426684	8.547179809267242
O	23.19414576236443	18.29399347094555	10.089565386167964
O	21.859992713285077	18.371618488025163	10.720865253121314
O	21.854961107212198	16.846886932077126	10.404027814937542
O	22.52242625720499	16.637116490478284	8.945934140027024
O	20.532639523622404	16.874453411736226	8.774317092867733
O	21.06970850260069	19.178723413779252	11.473623278061503
O	21.173212673420583	20.214629853420558	12.422781362333662
O	22.025072012772377	21.32800606822363	12.19652971934657
O	21.655729850608424	22.296182982155884	13.242840418891213
O	21.65283105298935	21.6454860722729	14.520073086664878
O	22.31337059339014	20.42168188748736	14.376508662404195
O	21.87080048258783	19.451522010338863	13.40648076325033
O	22.507961388715483	22.427647956711645	15.325701914127283
