88

O	-2.5536018472963637	-0.2189204869636368	2.2324018255836364
O	-2.2036806772963637	-0.5264454849636369	0.9205509475836364
O	1.199351602703636	-2.029479467963637	-1.4218035744163635
O	2.586076232703636	0.11288260503636319	-2.2873416244163636
O	-2.211355407296364	-0.7891166979636368	-1.3110976344163636
O	-2.879195227296364	-0.46632478196363686	-0.2132812224163636
O	-0.2906089622963639	0.3338784609363632	11.514692735583637
O	-0.9371034102963639	-1.1960802479636368	-1.1267557844163636
O	-0.07143763929636393	-1.1854902879636369	-3.2333577544163634
O	0.10609555670363613	-1.7208382879636368	-1.9435806944163638
O	0.323751582703636	-0.3972744529636368	5.171933885583637
O	1.0786090527036363	-1.5434438279636369	-3.9612094144163636
O	-0.27099094329636386	-0.6086265469636367	2.8725029055836364
O	2.328196322703636	-1.0977996679636368	-3.502470894416364
O	-1.4576985342963638	-0.29749862696363677	6.775927935583637
O	3.4356775427036363	-1.4788595879636368	-4.2090354244163635
O	-2.4387603172963637	0.7351569420363632	9.244923905583637
O	3.363510412703636	-2.752946367963637	-4.687541004416364
O	2.199922732703636	-3.0800138579636367	-5.266615834416363
O	1.035252252703636	-2.7566985579636367	-4.567165114416364
O	0.23719864270363622	-3.685770997963637	-3.706206314416364
O	-1.538791820296364	-0.34784130296363686	3.1969898955836364
O	-1.8508321872963638	-0.1780848039636368	4.489545605583636
O	-0.9680666052963639	-0.49102482696363686	5.467977705583636
O	0.6412534727036362	-0.6311110819636367	3.8668666455836362
O	2.067855632703636	-0.5365697619636369	3.4433853155836363
O	-2.829949027296364	-0.3784726229636369	7.173766005583636
O	-2.855942587296364	-0.5083036759636368	8.669231445583637
O	-1.1372405332963638	1.0512525430363633	8.744954195583638
O	-0.5365041052963639	0.12468343803636317	7.758880775583636
O	-2.431582097296364	0.7496210750363632	10.682180635583638
O	-1.4778183082963638	-0.32293732096363686	11.188646835583636
O	-0.5669409232963638	-0.7969208979636369	0.4522697145836364
O	-4.438171077296364	-12.010928077963635	5.855016145583637
O	-1.277029665296364	-10.488907477963636	7.248516605583636
O	1.8224363627036362	-8.763294667963637	5.837933305583636
O	1.6343714527036362	-4.986356967963637	5.198835425583637
O	4.364486862703637	-2.4826715179636367	5.873100935583636
O	6.873676732703636	-4.706006787963637	7.715209635583636
O	8.553625982703636	-5.881739127963637	4.542270475583637
O	9.378449772703636	-2.436363437963637	3.1564223555836364
O	7.328983072703637	-3.150405537963637	0.19907995758363636
O	8.273109452703636	-6.809544157963637	-0.23260890041636362
O	5.769229292703637	-9.655960727963636	-0.08924043341636362
O	2.591042992703636	-7.671006737963637	0.25382362758363636
O	-0.44169264929636387	-8.751232257963636	2.2349833055836363
O	-3.794332237296364	-7.459818187963637	3.271956795583636
O	-6.447088007296363	-9.870341177963637	1.8920234255836363
O	-10.353021827296365	-5.803284337963637	1.6143965955836364
O	-7.6522145772963635	-5.7277929479636365	-0.9513692644163636
O	-3.927561927296364	-5.691517337963637	-1.0706665644163635
O	-2.028552527296364	-8.585444857963635	-2.6080114244163637
O	1.5620619727036362	-9.071443607963635	-3.5762926844163636
O	-4.292605187296364	8.990771932036363	-7.583015324416364
O	-2.368553597296364	5.892873512036363	-8.665031624416365
O	-3.011056447296364	2.596749172036363	-6.828376974416364
O	-5.579322807296363	0.7273318310363632	-8.992004144416363
O	-0.4135091592963639	-12.471834077963637	-7.415019314416363
O	-1.079330716296364	-8.900621087963636	-8.106298294416362
O	-4.301969867296364	-7.6985165979636365	-6.489649654416364
O	-5.026768007296363	-4.021703807963637	-5.949368554416363
O	-7.297295547296364	-1.693726257963637	-3.9812345444163633
O	-6.438297777296364	-1.3898048579636368	-0.28939964141636365
O	-5.403968097296364	1.955555072036363	1.0495280815836363
O	-6.597822657296364	1.9987498520363631	4.632109625583636
O	-4.110653227296364	4.232904812036363	6.411290395583636
O	-0.7464017159963638	2.997958082036363	5.140207705583636
O	2.023471812703636	5.406675222036363	3.8883164955836365
O	2.118813522703636	9.201112642036364	3.8117762555836365
O	5.281535392703637	9.419714662036364	5.880785645583637
O	3.6664709927036356	7.761333542036363	8.861697885583638
O	0.4290372627036362	9.656477352036363	8.187260525583635
O	2.144212552703636	13.051208222036363	8.368023615583635
O	4.104159542703637	12.079583022036363	11.458445135583638
O	-0.6247443812963639	11.310197222036363	-10.606547464416362
O	7.035105762703637	6.350571452036363	2.2177290255836364
O	5.839480822703637	5.479131232036363	-1.3127148344163637
O	2.584626092703636	7.435629812036363	-1.2893578744163636
O	-0.39646716229636386	5.639099392036363	0.29154908048363637
O	-3.260935937296364	7.231187092036363	2.1439535355836363
O	-6.979514137296364	6.489062962036363	2.5028422855836365
O	-3.410109207296364	10.041673332036364	-1.4556337744163637
O	-2.286809707296364	7.6697726620363635	-4.180921624416364
O	1.2031099127036362	7.214536332036363	-5.4799918544163635
O	2.426395322703636	3.729652162036363	-5.340922634416364
O	2.969573442703636	2.3492555220363633	-8.872806884416363
O	5.319184542703637	-0.5678143359636367	-8.307453634416362
O	8.689148912703635	-0.16068714096363684	-10.065145964416363
