28

O	20.06786440897517	17.400123924266282	5.587880973494516
O	18.148360312214873	16.100623461270494	5.806985351830151
O	9.111452716639707	13.850688027217462	2.0919487211763355
O	19.536940482094003	16.001627004466677	5.690968331649329
O	17.56623666952005	17.055134949771077	6.637776839823811
O	16.558479768674342	16.288381406640255	7.13053634083118
O	17.922115303747916	12.763391294878236	2.996041335799169
O	16.08809033494634	15.736853752945041	5.9355126247124605
O	15.948207503993286	11.87631022836914	2.2193547624784267
O	17.189019613879424	15.41482900365283	5.2112594528045
O	9.550770843710325	14.295542463846747	5.808220214232045
O	17.240365470451966	14.340425189960708	4.3082945989353405
O	8.279246409632375	12.42068916869811	3.60504646885975
O	18.331365663333273	13.91053674489081	3.706433547807756
O	16.61739968322847	12.590512311688023	3.153754580892344
O	14.767289444632683	12.22931777267924	2.256550484802786
O	13.99983369365582	12.966599674148602	3.145074766238472
O	14.760750779837581	13.884977115641162	3.9302065952138943
O	16.01260292720239	13.666227719631452	3.864429659221077
O	12.684911905545329	12.917336183131708	3.6440068590811814
O	12.62011813651608	13.300515982752996	4.976509341325918
O	11.958760553100612	14.495313790953121	5.376014631587901
O	10.661442815704326	14.353866178237304	4.883931498415421
O	10.462917356667095	13.425103131953042	3.835910517826468
O	11.447191999230547	12.849238689110177	3.086354328681101
O	9.123340469144036	13.563530495291364	3.335922942392667
O	7.563649558274525	11.660737353434254	2.6000000584179435
O	7.569254971245721	12.554499416808316	4.880761820689711
