100

O	0.8591283051999998	1.5540956733676923	0.42724177412307673
O	-0.5706220348000001	1.5157371063676923	0.2762111041230766
O	1.3330290052	2.499068892367692	-0.15285130587692342
O	-0.9611823298000001	0.6937081296676922	-0.9092734778769234
O	2.1590292151999995	-1.7550130576323077	1.4339512541230766
O	-0.5910204088000001	4.247412482367692	-1.3760848858769232
O	-2.0680724648	0.8438812454676923	-1.6182609748769234
O	1.7412304352	-3.760496207632308	0.08099648412307658
O	-1.7255276948	2.020901932367692	-2.2269401228769232
O	0.31926965819999986	-3.7919431576323075	-1.7705582938769233
O	-0.7157376988000002	3.062580702367692	-1.9829933838769231
O	-0.3535632810000001	-5.6311059276323085	-2.906437755876923
O	-0.4701741967000001	5.534653132367692	-1.0831517448769232
O	0.27684097119999995	-7.859594247632307	-2.4300375158769234
O	-1.1933776668	6.468479272367693	-1.8420955648769233
O	-0.3950059407000001	-10.780205837632307	-2.510096975876923
O	-1.4006183148	7.747974592367692	-1.4849015378769232
O	-1.2092474178000001	8.071765862367693	-0.17767187587692335
O	-0.4039827506000001	7.312644502367693	0.5753765541230766
O	0.09796064119999992	6.193146982367692	-0.017619285876923296
O	-0.029419570800000072	1.8449272323676922	-2.4906286358769236
O	-0.0970792578000001	0.5888786403676922	-2.010937616876923
O	1.4255122752	0.18775773436769227	0.5287962341230767
O	2.0326029152	-0.45660059763230776	1.4949875841230769
O	1.6493450451999998	-2.4289113376323077	0.4275184641230767
O	1.1329812151999998	-4.448972597632308	-0.9544074418769233
O	-0.6158168228	-4.385172527632308	-2.5188253058769234
O	-1.8254316648000002	-3.5498353276323074	-2.8129244158769233
O	0.5238902671999999	-6.449673977632308	-2.2746804858769236
O	1.1321637452	-8.917087147632307	-2.000318768876923
O	0.9641405152	-10.326266137632308	-2.566808105876923
O	-0.9664633778000001	-9.827278737632307	-3.408947925876923
O	-1.0098667338	-8.443182877632307	-2.8364730358769235
O	1.0726206252	-5.835198917632308	-1.1606866551769233
O	1.0305566851999999	-1.2289452976323076	-0.46471378587692336
O	10.3754930352	-2.9609898376323076	-8.839858095876924
O	6.9451601652	-3.9617352976323077	-10.106548965876923
O	3.3624873052	-2.685082707632308	-9.880068275876923
O	1.2911056652	-3.6998378476323075	-6.890090075876923
O	-2.3585096348	-4.6047175376323075	-6.792314705876923
O	-3.0628979247999997	-4.645971337632307	-10.590909285876924
O	-3.8194412248000003	-0.9352828576323078	-10.873359315876924
O	-6.5829406948	-0.8886149076323078	-8.261073635876922
O	-4.6518244448	1.6377103673676923	-6.325496525876924
O	-3.1540134148000005	3.620134282367692	-9.248947085876923
O	0.6091394252	3.942468662367692	-10.030412065876924
O	2.0530546952	2.0517138323676924	-7.084066885876924
O	5.1433969752	-0.08874241163230767	-7.032715465876923
O	7.0735551752	-2.2969965476323075	-4.782673155876923
O	10.5801159352	-0.8082779976323078	-4.401442145876923
O	11.3085760352	-3.1048029376323076	0.6884236441230767
O	8.948895355200001	-0.20289612063230777	0.4624792341230768
O	5.9318200251999995	0.7604217300676923	-1.4146776228769233
O	6.0934998852	3.7813937823676924	-3.762165615876923
O	3.4166655052	5.726552402367693	-5.5076371958769235
O	4.251075635199999	7.965603152367692	-8.398256775876924
O	-1.0117990608	14.230297362367693	-5.299328605876924
O	-2.0112368248	13.710886862367692	-0.2608571928769233
O	-2.5998411648	0.6185686983676922	12.246300194123076
O	-2.3506409048	3.289874122367692	9.493745794123077
O	0.21274097319999985	2.795051242367692	6.776407824123076
O	3.2363584952	4.889780702367693	7.624273864123076
O	4.848182255199999	7.4506559623676925	5.316365144123076
O	8.617835195200001	7.055827862367693	5.055477984123076
O	9.407270655200001	9.876978102367692	2.7004690541230767
O	8.4647485552	11.908283362367692	-0.32070861887692326
O	10.1001646352	13.304466562367693	-3.4389816958769233
O	7.0296447552	9.931543102367693	-5.1612843858769235
O	5.3398778752	9.034538542367693	-1.9774321118769234
O	7.313168045199999	6.299740342367691	-0.14194672587692336
O	5.8146960652	4.179211402367692	2.641951244123077
O	6.1571658252	0.9745764223676923	4.483355544123077
O	5.4612479952	-2.248799207632308	2.5109420441230768
O	2.6523690151999997	-4.3797688876323075	3.7359213841230767
O	3.8309803051999998	-7.935458767632307	2.8594767941230765
O	0.6013690852	-9.896905537632307	2.346156564123077
O	-1.5574834248	-7.567248387632308	0.2416741341230766
O	-5.1691571148	-6.638888667632308	0.9592781941230768
O	-7.5148363048	-8.008699547632308	3.621042174123076
O	-10.0711186848	-9.099025697632307	1.0510423041230765
O	-7.6914732248	-11.528545137632307	-0.5943759628769233
O	-6.2392509948	-12.477754437632306	2.8045123141230768
O	-9.644878304799999	-13.525008137632307	4.153829934123077
O	-10.4604210648	-15.438213137632308	0.9795956741230769
O	-7.2519431048000005	-17.414820737632308	0.8260307541230769
O	-7.0277066548	3.375410912367692	13.231901594123077
O	-9.791196034799999	-4.176722187632308	-0.2965860138769233
O	-8.489052724799999	-1.0191857876323078	1.4385914341230766
O	-7.1044546848	-2.6562705376323077	4.590379784123076
O	-3.5795844448	-4.133455017632308	4.164177824123077
O	-2.0661876148	-7.018560517632308	5.884662414123077
O	1.3978571752	-7.878096537632308	7.177908894123076
O	-3.7318556848	-4.996047277632307	9.637245694123077
O	-3.3445261548000005	-1.3844877176323078	8.674391664123076
O	-5.9074283748	0.8468155667676923	7.056763334123076
O	-4.7401951748	2.4262809323676926	3.8738772541230766
O	-4.4566377648	6.244430742367692	4.202457474123077
O	-4.761539674800001	7.516622592367693	0.7353480041230767
O	-7.6824114948	9.729447742367693	-0.021699335876923298
O	-7.983233724800001	11.130622862367693	3.489456384123076
