28

O	20.645667950282117	16.69453119191813	5.586262123591517
O	18.405018050253958	15.991233513430345	5.779225313313504
O	9.276271248792415	13.735110944501775	2.1466267994441686
O	19.728927472252114	15.531666711948398	5.625161333006676
O	17.97446300777373	16.838394459655028	6.782822205185534
O	16.923020029629384	16.111530646253485	7.234012462326561
O	18.060978706717098	12.728017001730041	2.9876427962442964
O	16.33848511661171	15.706222872467372	6.024280706264254
O	16.070951873459855	11.908137913721601	2.228263771637968
O	17.365632996305187	15.388270344287896	5.21915617892428
O	9.584604263832556	14.209195572671227	5.852127257297093
O	17.380832164192586	14.3098390741526	4.320004386448542
O	8.464498861833288	12.248388572347654	3.6175454254258823
O	18.47593742037887	13.846344629926863	3.7209542967423284
O	16.762911348158223	12.622368333601646	3.1376098117249698
O	14.891044804212353	12.27206075530398	2.3444077692920207
O	14.120804379935956	13.015883030893024	3.2359114959142996
O	14.892274714624799	13.97223141887019	3.968708309154545
O	16.14498870525388	13.67546807588623	3.8987651621628676
O	12.836836507094274	12.912243805765215	3.8008366639113875
O	12.768866904021124	13.408457932685467	5.069214730287128
O	11.966054195113111	14.460554672256997	5.512260562441733
O	10.731194323247262	14.281448410065497	4.973660925309458
O	10.601068623431024	13.354169914461448	3.9227824947345082
O	11.614820873802557	12.791755225030725	3.205890855370467
O	9.303861672500956	13.398937765064476	3.377937042581154
O	7.748168224351042	11.52209377338794	2.575923541851445
O	7.711644451395788	12.381703550963207	4.866234184779822
