33

O	6.3710631326906455	11.687491678928046	1.8107302781344368
O	7.171011525639692	11.268961814870412	2.9240816220203554
O	8.605181106793161	11.00710372685588	2.6513658985014024
O	9.455437445343534	11.858542381072684	1.939712629124354
O	8.50117353166486	12.483190347139534	1.1571726803385447
O	7.313075979322159	11.61129958912752	0.7230618344205437
O	5.171940883997605	10.922783585232908	1.6053406278964397
O	10.7196658325955	12.374926248690947	2.0285253516813717
O	11.946985975465036	11.752878198430054	2.078492464603916
O	13.251257416088865	12.152627393477012	2.3920775134782972
O	13.166128138430087	13.170468248439922	2.77531394821128
O	12.443246842378052	14.036928319938108	2.406525150162484
O	11.177830043429296	13.365582543298157	2.565757667370927
O	14.586315424070598	11.885648246436439	2.6029999816589355
O	15.786898788432655	12.574357329672647	2.856081512530235
O	16.39617469380897	13.718400168166585	3.6697332266991305
O	17.831592247803208	13.579666023309587	3.662696896893891
O	18.04166751319694	12.58782727590474	2.918970748574479
O	16.882887135122264	11.872607990106962	2.7529347870801084
O	18.96169838971465	14.372383696907297	4.23563189124054
O	12.89741642948448	15.430106600803452	3.5292110536493917
O	13.50354974811986	14.335561838571017	4.751165311804367
O	12.735230247397343	14.739038436724522	5.784964304859151
O	11.747404492297019	13.92060480031888	5.287633572532791
O	11.584584812347646	12.756134277921253	4.95305813653293
O	12.761590593215468	12.187245196470737	5.026873755664837
O	13.789704959838305	13.104254892276726	5.025242843253951
O	10.335688428498027	12.69816320232154	4.491381444188432
O	9.164117757234624	13.305011913454662	4.693104261037073
O	8.577188532749268	13.887189377585365	3.772185475379203
O	9.503159657491107	14.571189885113267	5.511952284227589
O	8.401245201030308	14.361903639318308	6.438860267529891
O	9.730824435308156	14.544646757758795	6.948536403671536
