96

O	-1.226067000398333	-1.2768149200616663	-0.29593002872550017
O	-1.274202642398333	-1.443571230061666	-1.6131693287255002
O	-4.398860772398333	-0.4887710100616661	-5.1976428027255
O	-3.280484942398333	-0.33837275706166625	-5.9605419827255
O	-4.238333132398333	-1.0952842000616663	-3.9866790527255
O	3.901931347601667	-1.7821562500616661	5.389703707274499
O	2.823572857601667	-2.2488139400616665	4.8867558872745
O	-2.102973162398333	-0.6283926300616661	-5.3415295527255005
O	-3.035939592398333	-1.0621792000616663	-3.2836885427255
O	4.832369057601667	-0.9893217900616661	4.6470661772745
O	2.314060017601667	-1.430835270061666	3.7363234572744997
O	4.481946717601667	-1.040193960061666	1.0827096272744998
O	0.9168167076016669	-3.989839540061666	3.4046716172744995
O	0.6589256576016669	-3.4935855000616667	2.1195796672744995
O	-0.08778636339833301	-2.603670480061666	1.3768237072745
O	-0.612280802398333	-0.6400869000616661	-3.5194333927255004
O	0.07144356960166703	-1.117790290061666	1.4957044472744998
O	3.215685727601667	-3.0190999500616664	0.7517968272744999
O	-0.563131148898333	-2.6104230900616665	-2.0350933327255003
O	-0.873282617398333	-3.642934330061666	-1.4783060807255002
O	-0.11189987439833299	-3.466013310061666	4.3059764372744995
O	1.3704451376016669	-2.2343608800616663	-0.30070465372550015
O	2.159197717601667	-4.210543400061666	-2.0570755227255004
O	1.989492607601667	-0.16148259506166618	-0.6234873142255002
O	1.2863105276016669	-5.254615130061666	-0.32401804572550014
O	-0.584792700198333	-0.23477698306166617	-2.1095771727255004
O	2.105969067601667	-4.340006180061666	-0.8336893237255002
O	1.046388907601667	-0.9461001000616661	-0.6778978249155002
O	-1.992737262398333	-0.5659599300616661	-3.9788430527255
O	3.331842547601667	-1.6207942000616664	1.3107742272744998
O	4.401532767601667	-0.9262352700616662	3.2436389172744997
O	3.0853222676016667	-1.2466105100616662	2.7094605072744997
O	-0.128902606398333	-0.5046233000616661	0.14581665827449986
O	2.4221391076016667	-3.0068431300616663	-0.4928049087255002
O	5.161456117601667	-0.7439802200616662	2.2485688072745003
O	0.17264708160166703	-2.6118435600616663	-3.1607831327255003
O	1.3599448576016668	-5.439959980061666	-15.2248733027255
O	6.032325867601667	-7.212861660061666	-13.5144891027255
O	6.9526037676016665	-3.5289527700616667	-13.5240530027255
O	11.554751507601669	-8.173020360061667	2.7303319572745
O	11.267544107601667	-9.891926440061667	-0.6661474165955001
O	8.089821317601668	-11.777904540061666	0.43304384727449974
O	5.483347977601667	-10.287583340061667	4.574924767274499
O	6.471010687601667	11.336165859938333	-5.5511760927255
O	4.889769037601667	1.306189497938334	-12.194072402725501
O	6.806076667601667	1.9183539199383337	-8.9416355627255
O	4.505027157601667	0.0790687889383338	-6.6365045527255
O	2.964838247601667	2.9060073399383337	-4.4908236427255
O	-0.672910253398333	3.9082128199383335	-5.1178016627255
O	-3.205332322398333	6.719899449938334	-4.5172378327255
O	0.07217285860166694	9.659105729938334	-5.361429782725501
O	2.5177082876016668	7.747045539938334	-7.5663241827255
O	5.360927507601667	6.375255719938334	-5.4550751727255005
O	9.033101557601668	5.716173399938334	-6.1121848327255
O	9.684234707601668	7.153387319938334	-2.6456099227255
O	11.175658207601668	5.443831609938334	7.9873384772745
O	9.834979207601668	2.567081199938334	6.1306029872745
O	8.789759947601668	4.530581239938334	3.1442794472745
O	7.507687467601667	7.304527659938334	5.300460187274499
O	5.008034207601667	4.9774478599383345	6.8142960472745
O	4.051669037601667	3.9681752699383335	3.1981202272745
O	3.6454774576016673	7.644043339938334	2.3751407572745
O	1.309196367601667	8.007223489938333	5.414418797274499
O	-0.5831007284983329	4.914799649938334	4.1361253772744995
O	-1.026080850398333	6.399215819938334	0.6897021872745
O	-2.012189952398333	9.727504679938333	2.1938393972745
O	-4.797439022398333	7.936830379938334	4.0481176072744995
O	-6.164239912398333	6.7740862599383345	0.7349911972744998
O	-6.077666952398333	10.450977959938333	-0.4268785737255002
O	-10.539147492398332	9.133861299938333	2.1248510472744995
O	-10.922450992398332	10.332502309938333	-1.4807298807255003
O	-9.581161652398333	2.3813618299383337	2.9521700272744997
O	-6.381259802398333	0.5154185296383338	3.7255768872744994
O	-6.495098402398333	1.3749887379383336	7.402300427274499
O	-6.948912352398333	5.189585649938334	7.6495372872745
O	-3.315132772398333	5.938438049938334	6.7032178772745
O	-1.887805072398333	3.3651214399383336	9.0008844272745
O	-3.846702952398333	4.651295559938334	12.006232897274499
O	0.8672783976016669	-13.513402140061666	5.0003380772745
O	-2.156752102398333	-11.263494940061667	4.3672492272745
O	-4.566908672398333	-14.021770740061667	5.3016296472745
O	4.1191685276016665	-10.494802340061666	-5.8571546227255
O	2.6117169576016668	-7.199328840061666	-7.3455736527255
O	-0.979991594398333	-7.826561180061666	-6.390823182725501
O	-1.974424032398333	-6.9022107300616655	-11.0653308027255
O	-5.155922772398333	-8.755545180061667	-10.071630052725501
O	-5.609650192398333	-6.826862990061666	-6.820208152725501
O	-7.574150432398333	-8.311581950061667	-3.9337714327255
O	-5.485081152398333	-8.805662670061666	-0.7486076463255001
O	-7.838901462398333	-9.734523440061666	2.1371853572744994
O	-8.334261732398332	-5.959397100061666	2.5806562872744996
O	-4.858276212398333	-5.759382160061666	4.080464307274499
O	-5.641458382398333	-8.560749750061667	6.5997993272745
O	-6.803897072398333	-3.3670049200616665	7.7457788972745
O	-4.119870422398333	-4.650702780061666	10.014148597274499
O	-6.409654182398333	-0.08857227106166621	12.3623925972745
