78

O	-1.0438048398437498	-0.35721507814062525	0.46535984366874983
O	2.24106837015625	-1.1011125941406252	0.20686667346874982
O	-0.04679250984374983	-2.2218256141406254	1.3044188726687498
O	1.0135231301562502	-1.4153139141406252	-0.6025534703312503
O	-3.9133248298437495	-1.5815420841406254	-0.22800223833125016
O	1.24384877015625	-2.6957746341406255	-1.3355029873312503
O	-4.07186602984375	-1.5237580041406253	1.9514828526687498
O	-0.13243612984374997	-1.4201752341406253	0.3215180836687498
O	-1.0580945758437499	0.5861260068593748	-0.6514206013312502
O	-2.45900762984375	0.40086414285937466	-1.1188809873312502
O	-3.11951092984375	0.8534108838593747	0.2153437286687498
O	-2.34354154984375	-0.2244648611406253	1.0188091616687498
O	-3.2704316698437497	-1.3687195941406254	0.8472067226687497
O	2.7535699401562503	-2.7012079341406254	0.8409091006687498
O	1.42629338015625	-14.936520314140626	6.27683358266875
O	-3.02396954984375	-15.676211614140627	3.52351871266875
O	-0.6377789308437499	-15.877954014140625	0.5551516766687498
O	-12.08228634984375	-3.7779238641406256	-5.00753311733125
O	-12.13551424984375	-6.781241484140625	-2.64843824733125
O	-12.24916324984375	-4.490704494140625	0.4450165966687498
O	-14.24358284984375	-1.5868672941406252	-1.0565050073312503
O	-11.07975193984375	0.5025074598593747	-0.05924775933125019
O	-10.73668401984375	2.2265906758593745	-3.48061703733125
O	8.46461771015625	-7.518707994140625	-10.88972811733125
O	3.78881905015625	-13.415509914140626	-1.4303282273312503
O	2.13798191015625	-11.296684414140627	-4.15550679733125
O	1.17153586015625	-8.270573334140625	-2.08490955733125
O	3.47670703015625	-5.484576404140625	-3.2803238073312504
O	6.473957120156251	-4.423322784140625	-1.1325561873312502
O	9.80012595015625	-2.5401524641406255	-1.4173515573312503
O	10.57519035015625	-4.586600564140625	-5.32652738733125
O	8.47045614015625	-7.745639294140625	-5.11794240733125
O	5.1792326501562505	-7.218480914140625	-6.96553147733125
O	2.9236159801562502	-9.507393834140625	-9.00408624733125
O	2.4899023701562504	-6.618529064140625	-11.41421301733125
O	-3.24043084984375	1.9681431858593748	-14.73186501733125
O	-4.12156514984375	0.8559910348593748	-11.19516361733125
O	-0.9840815238437499	-1.2705093041406252	-11.03644641733125
O	0.02760002015625007	3.6661632558593746	-9.56873023733125
O	1.0816038201562501	0.8730540868593747	-7.256094987331251
O	4.46406450015625	0.5471982728593747	-9.04512123733125
O	4.06071950015625	3.8104127558593746	-4.88327848733125
O	6.62656901015625	1.0694362658593748	-4.38442581733125
O	8.77785604015625	5.898915515859375	-3.80548238733125
O	9.78168235015625	3.4820288958593744	-1.0164152473312502
O	12.919224250156251	2.6532918258593745	-3.0433310973312504
O	13.44753075015625	6.845288915859375	0.19824771286874981
O	15.86147145015625	3.9129049758593744	0.8282432876687498
O	7.33702274015625	6.569429395859375	3.47057368266875
O	3.92079134015625	5.730772795859375	2.09669876266875
O	3.43096480015625	9.125819075859374	0.4990675676687498
O	6.518777500156251	9.811627895859374	-1.6526343473312501
O	5.48265387015625	7.401011495859375	-4.41397796733125
O	1.8649690101562502	8.552138285859375	-4.52061625733125
O	-9.89800740984375	5.372132985859375	0.9235739386687497
O	-11.29280094984375	2.7166632458593747	5.10000631266875
O	-7.69270418984375	3.5926408658593747	6.03283576266875
O	-8.90740150984375	5.315731305859375	9.20083499266875
O	-10.97265350984375	2.2420088558593747	10.09798064266875
O	-8.35720257984375	-0.5562630851406253	10.08030337266875
O	-7.04246488984375	-8.101800304140626	4.43123378266875
O	-3.2494729198437495	-8.624676974140625	3.9669258626687496
O	-2.08533821584375	-6.200877284140625	6.64526529266875
O	0.8809924801562501	-9.725628854140625	8.08717537266875
O	0.9422903601562502	-7.539506614140625	11.18184828266875
O	1.61674125015625	-4.343971754140625	9.20030093266875
O	0.29947709015625	-1.0889452041406253	10.77529068266875
O	-2.29017003984375	0.7430599408593748	8.63787024266875
O	-2.78245097984375	4.309663415859375	9.96409834266875
O	0.2793270601562501	5.166350895859375	7.82539427266875
O	-1.9352157248437498	4.967099025859375	4.72342156266875
O	-4.54121157984375	7.333597715859375	6.187171372668749
O	-1.7565003328437498	9.790535745859374	6.98809908266875
O	-0.23677050884374995	9.284252625859374	3.52665401266875
O	-3.4456018798437498	9.992889385859375	1.6367412526687497
O	-3.75603774984375	13.281076985859373	3.48983312266875
O	0.55851993015625	13.405817085859374	-0.26014286033125017
O	-1.7824709918437498	16.189527285859374	-1.3111381373312503
