14

O	45.966032353674116	47.00437647187745	42.616079009498314
O	44.6624168742334	46.01114395549716	45.634062361598396
O	46.96654810304325	46.843644489131584	44.650280308883566
O	44.69755082160199	47.26864981887481	44.81829905463641
O	47.30324996135934	49.14622372767931	40.60094767662892
O	44.57068567286266	48.53221252008981	45.58875851850389
O	49.00584774878927	47.79818278164131	40.96654058942749
O	45.957777943848455	47.16963554939159	43.99877361542286
O	44.69292082650881	46.88133957774682	42.02294332307696
O	44.74190642278106	47.645235284246056	40.966240640473195
O	45.94948423827856	46.92788599004383	40.27005332934243
O	46.853306661721454	46.948414282178604	41.518028273269245
O	47.699897000559154	48.11524677736624	41.22757936829805
O	45.54376710956557	46.564891057218325	47.09340013674321
