78

O	-0.8791325182656253	-0.6580659162187499	0.22792855735750076
O	2.4797041707343745	-0.9472757992187499	0.8826967633575007
O	0.22814311073437477	-2.1775603702187496	1.5046112693575007
O	1.5401994907343748	-1.35117586021875	-0.21376156264249924
O	-3.6945807192656255	-1.68174812021875	-0.9810962806424992
O	1.9624824907343745	-2.52954957021875	-1.0133900506424993
O	-4.067445759265626	-1.89152169021875	1.1791533593575008
O	0.19991792073437464	-1.50827940021875	0.45598612235750074
O	-0.6181532392656253	0.41384714078125	-0.6499399946424993
O	-1.6545142842656253	0.45670463378125004	-1.4415685806424992
O	-2.7359392892656254	0.6667384177812501	-0.32625843064249926
O	-2.243709809265625	-0.49655174721874995	0.5564782093575007
O	-3.195722379265625	-1.55211721021875	0.17961290195750074
O	3.0415148107343746	-2.5628234402187497	1.4188454893575007
O	1.4980177107343748	-15.03685924021875	6.002350139357501
O	-2.4006378092656253	-15.964339740218751	2.5619802293575007
O	0.4266429407343748	-15.88443604021875	0.00468393085750074
O	-10.816367499265626	-4.37904657021875	-6.965723110642498
O	-11.043774659265626	-7.47150377021875	-4.734919240642499
O	-11.824369609265625	-5.32143399021875	-1.6368902306424993
O	-13.736363509265626	-2.48902497021875	-3.362760430642499
O	-10.904665879265625	-0.24967624321874998	-1.8123949906424992
O	-10.179660609265627	1.6349404497812499	-5.089275420642499
O	10.593633090734373	-6.51608207021875	-9.606050440642498
O	4.911065580734375	-13.05739164021875	-1.1858751806424992
O	3.5503489707343747	-10.93152624021875	-4.0580868906425
O	2.0171346807343746	-7.99726588021875	-2.1128737306424994
O	4.343751900734375	-5.0972517002187505	-2.8286348306424993
O	6.916516470734374	-3.94883541021875	-0.21392274764249924
O	10.089420890734374	-1.81942279021875	0.08071267097750075
O	11.596176390734374	-3.6597808602187496	-3.7106000006424993
O	9.712563090734374	-6.96362791021875	-3.9198887106424993
O	6.715926510734375	-6.5796154902187505	-6.245807000642499
O	4.979698170734375	-8.93702223021875	-8.676297920642499
O	4.727489980734374	-5.9957729402187505	-11.0496788606425
O	-1.0139119392656253	2.31457436978125	-15.002288960642499
O	-2.3516483392656253	1.00798362978125	-11.678962560642498
O	0.8800327407343747	-0.90531984721875	-11.110290860642499
O	1.3048554307343747	4.029843419781249	-9.365383000642499
O	2.131067830734375	1.21541432978125	-6.9573509706425
O	5.780060090734375	1.19270279978125	-8.1966051506425
O	4.480270010734374	4.25577459978125	-4.0662815606425
O	7.100544330734374	1.66756409978125	-3.225146280642499
O	8.805671280734375	6.60992821978125	-2.1954385706424993
O	9.519289890734374	4.158234229781249	0.6458252633575008
O	13.004340990734374	3.63462948978125	-0.8717687256424993
O	12.701243590734375	7.71207080978125	2.532481729357501
O	15.206688190734376	4.94023731978125	3.4498699693575006
O	6.181970270734375	6.87912917978125	4.7628240593575
O	3.0892710707343745	5.87155334978125	2.826442549357501
O	2.6361306207343747	9.30512652978125	1.2900266593575007
O	5.966716500734375	10.278404859781249	-0.31788107164249924
O	5.551478480734374	7.91100460978125	-3.275918180642499
O	1.9395651707343746	8.85102237978125	-3.9407574406424994
O	-10.277298469265626	4.65328752978125	-0.5229668426424993
O	-12.117987309265626	1.75283901978125	3.301950199357501
O	-8.770281079265626	2.8199336697812503	4.812473059357501
O	-10.601170539265626	4.343089919781249	7.794926729357501
O	-12.554402609265626	1.1081195597812499	8.270021569357501
O	-9.771683119265626	-1.50566725021875	8.593784169357502
O	-7.0351048592656245	-8.70656617021875	3.025414619357501
O	-3.1900560992656253	-8.95133081021875	3.1641968693575007
O	-2.645294199265625	-6.58510136021875	6.079812709357501
O	0.30274817073437466	-9.963425610218751	7.8722676493575
O	-0.2927444512656253	-7.90301194021875	10.998772239357502
O	0.4613419507343748	-4.59105718021875	9.273467539357501
O	-1.3300441982656253	-1.48447440021875	10.681102839357502
O	-3.665419749265625	0.25027525378125004	8.189720229357501
O	-4.619259009265625	3.72364884978125	9.506148339357502
O	-1.3318641432656253	4.86249377978125	7.9060544693575014
O	-3.005552939265625	4.62224619978125	4.470976969357501
O	-5.971002139265625	6.758584319781249	5.5757729493575
O	-3.5402063992656254	9.36866071978125	6.889321549357501
O	-1.4553181112656253	9.122028879781249	3.7166122793575007
O	-4.370437049265625	9.67227323978125	1.3459477093575007
O	-5.212896079265626	12.85803235978125	3.2163641593575005
O	-0.3758980892656253	13.42286495978125	0.21100572835750075
O	-2.7163524992656254	16.08735335978125	-1.1165918606424992
