44

O	44.585497793853506	45.6017195918996	47.0024678575195
O	47.92118360989448	49.7968206782679	41.132704703415804
O	44.052068170883835	43.699518980626245	49.449404993285285
O	44.689318447515745	44.89949651745764	49.625296276398075
O	43.62384179025468	42.922394605153265	50.453428900378114
O	42.33586424588197	42.310601217349046	50.351487763800165
O	46.897772818203755	47.152506655061856	42.9469095116529
O	43.86050280319961	43.36291891934819	48.28861941820951
O	42.7957612844337	40.889584469102665	50.48240967625318
O	42.43002885197289	46.60723311474055	42.02207310770895
O	43.085552087010946	45.80972889607726	47.22523603965533
O	43.65828467712161	40.49865098835867	49.48730681691146
O	44.452225307458995	44.39297756371775	45.970954387283776
O	43.34006983529492	40.63116773140687	51.74261937185709
O	45.726781507704025	48.882778834620225	43.761235562308734
O	44.32187024926976	39.28960020498762	49.707147984241196
O	49.19375358363831	47.95256142905565	40.89893669175046
O	44.089685099698	39.50056338160586	51.918894955343994
O	44.05760736295554	38.6479949915507	50.868809684798016
O	45.478939263574944	45.35265292216852	48.492871224947685
O	46.672623193026055	44.71780024969635	48.558300486370605
O	46.85633983798222	43.63581515133203	49.490776753110694
O	46.567986465176965	44.017779633995794	50.803918720586324
O	46.56190864465848	42.287163956823704	49.322310458558825
O	46.93990234048849	43.139966654351035	51.83247648912301
O	46.785359618895946	41.37613036101658	50.354252825334655
O	46.53298006726398	41.82666986549393	51.62211428139457
O	45.07229342152945	47.060997632652004	46.24541133575852
O	45.21684668462551	46.8619194058154	44.80927526236216
O	46.112317844462716	47.70319483547535	44.03254635218089
O	46.04600866733236	45.66841177723617	45.03279204340416
O	46.887359643837094	45.87326069411831	46.1664332535392
O	46.60667510064871	47.20779029912258	46.679180165613936
O	46.856703460138974	47.67007713318731	41.5758064197714
O	47.99525662440758	48.56038057592783	41.284501328948224
O	45.592730274072714	48.44916090975912	41.31998791482494
O	44.32651959418499	47.707106098755716	41.446652581974625
O	43.23141371254827	47.57310396997688	42.44032265153868
O	43.727219373178116	46.984064313759596	40.4550819584007
O	42.18516403795205	46.81883285155662	40.72327662902875
O	43.874051741408984	47.215198582536885	39.10458306464786
O	41.91367046779913	48.31077763057889	40.30071534304651
O	43.08292306105969	47.862200490822104	38.18713851321958
O	41.92677912873616	48.21403601729166	38.95146240262136
