51

O	46.37660638068777	46.815020927572654	43.083152712749985
O	47.21826977630563	47.22459474227047	41.95603262822625
O	45.35445481513202	41.289984999776806	50.957804260351786
O	47.132098997938485	44.99934379030642	51.73589875956503
O	41.62154931982312	48.34527737657773	37.317314680513526
O	45.10346402262556	42.27440135149739	51.85117030898853
O	44.27740957105629	40.457682364784	50.890954802267984
O	47.697795357899565	44.15178261071401	50.81974015449532
O	46.95299456438381	46.29538630224972	51.33717096537124
O	42.30146709120622	47.33605963396885	37.99394775168203
O	41.90659425626612	49.46171481528882	38.032481442409455
O	43.909749981938155	42.93503905855961	51.52075736127257
O	43.07927933027553	41.07555692123161	50.57735561701164
O	47.583046438717325	44.51578993504115	49.48908104573382
O	46.7695080112701	46.551776184015985	49.97877754106803
O	41.855916382686885	47.27374539311699	39.321193479800776
O	41.976583066207525	49.53304274366178	39.369847949006456
O	48.598818874635896	47.38601736681143	42.54746892372322
O	48.53546965921419	48.017704319186	43.646243087005836
O	44.979564600377536	43.27561179168025	48.787312816995055
O	46.01119602117672	49.01828612457575	43.55435174818761
O	43.338557556245895	45.083820272471385	46.79916510966612
O	44.64005975411556	44.888622705739515	44.81961698438695
O	46.9481590164484	48.717454037707306	41.67665849624732
O	42.974184379550664	47.28155727450055	42.027736799513
O	42.445580043945434	43.17082200044453	49.522616638434414
O	43.47191083867784	46.76001073653054	44.32400506848088
O	47.19055485036575	46.174782458494995	47.62722238211444
O	44.71335109864182	47.127613631771325	46.03860863932789
O	44.64669588747071	44.36602455100222	49.24945010064834
O	45.73693049421227	47.80704929283266	43.84424444366231
O	43.03245339614641	42.426330607860805	50.633126910177424
O	47.568841025762396	45.85144984518552	49.0732600473772
O	42.77577030800741	47.54708742738154	43.3461577662779
O	42.091068333635405	48.36900502477006	39.985699294389875
O	42.50420221359243	48.31532102973404	41.337083824838146
O	44.615670009973215	47.61779454365134	44.71000522228979
O	45.94223872712757	45.402752294016224	47.50111502594512
O	42.10430639668888	49.22613873843567	42.17741668102166
O	45.16067632464576	45.4598970877643	48.66259525738703
O	43.21800305555246	44.31189915225341	49.425041931277505
O	41.97606930199143	48.51670693130559	43.262250749086526
O	45.75220700248618	48.734687946082325	40.82177303024711
O	45.448233156824436	47.72677444953779	39.94671732714233
O	45.086285099538834	49.8982976398926	40.45057399204948
O	45.28962769471327	47.94800574041268	38.575146888825145
O	44.95705029967676	50.1696270344548	39.086225261268666
O	45.049489376828625	49.19691384476081	38.103951870718234
O	44.58582540338658	49.314023686041196	36.80975899030239
O	44.76851523084833	45.45637166488781	46.26470693807314
O	49.50882047077391	47.92790350432174	41.62521220581986
