36

O	47.95779132582281	46.8257412160926	43.75545570120002
O	48.14601571513127	46.39562609951918	42.44585677404538
O	47.225785876966945	43.750067667569134	50.93348807670963
O	44.33031349881433	46.0748678272534	40.11820014021559
O	46.363736691650864	42.86343974191048	50.29817197194359
O	47.827636578635044	44.6640308469912	50.11590759660255
O	43.805901899798464	47.28032172439596	40.59077425628694
O	45.084733327822434	45.580823655187494	41.19704621584406
O	45.73335212479307	43.34035316638987	49.18851574724867
O	47.097534300596195	45.187982704455436	49.04335598007221
O	43.22520504673749	47.13081425323033	41.894903422719814
O	44.369605539979865	45.35671962853862	42.39381795143247
O	46.1642573972536	47.2133436216273	45.6095192559878
O	45.977594419544616	46.83976860328792	47.012196971631674
O	45.603845816957524	44.42482752207486	47.07017067914694
O	49.09023464185253	47.25950943479622	41.618514611681405
O	48.79383486114182	48.09166497187337	40.693876787389115
O	47.70940739199797	45.67569046946851	45.41002299765743
O	43.806858418721	47.838595199058034	44.8004311140369
O	43.490213729298524	47.056882925551605	47.15508043565796
O	44.437881276480475	45.70392451210835	48.64984419240456
O	46.95992659292567	47.005851478673335	41.78531626840109
O	47.09144945248398	46.548437664344924	44.77784250144886
O	43.94945206441178	46.689543102016685	44.375894987687396
O	46.17857317045752	44.41051670767322	48.39765113535823
O	44.01814711624458	46.63399577418676	42.95636971502003
O	44.73729510923748	45.48625883305044	46.59991880290437
O	44.65676338621783	46.46439867369509	47.54403579516635
O	44.49421553758106	45.89942074809239	45.363182214078506
O	46.59965534725255	48.308500299982185	42.50259806474312
O	45.764108041064496	49.25487141576043	41.969257240171395
O	47.53656901429609	48.953323926480586	43.285380676755196
O	46.43617701485548	50.190412258435956	41.15944374209463
O	47.949893562883695	50.20923384803042	42.945978701651775
O	47.480886321861526	50.76577729378931	41.81163418981216
O	50.15043597198363	46.5581632205817	41.10915218139267
