102

O	4.039620242904762	3.6705715603365086	6.075901195111111
O	-5.445357377095238	-1.1443301196634914	-3.5615121748888887
O	-1.8116657670952379	2.6201638603365085	3.1310877451111114
O	4.4431418629047625	-0.24299807966349163	5.230509855111111
O	-3.738273327095238	0.4664203243365085	0.7518079121111114
O	-0.11520019709523788	1.2661627633365085	3.9443142651111116
O	3.031625122904762	2.7934543703365087	6.359031755111111
O	1.4050604529047623	2.2117207003365085	1.6795874051111115
O	-7.018766287095238	0.1756555343365085	2.148856415111111
O	4.319394182904762	3.8700707403365087	4.752474135111112
O	-3.336081007095238	2.601786210336509	0.9906984551111115
O	5.049837302904762	0.5964080633365085	4.382953035111112
O	0.9454454729047623	0.2870219023365085	1.8976935851111116
O	3.100865652904762	-0.3273137296634916	5.213554245111112
O	-5.3391856370952375	1.5326250853365084	2.788495115111111
O	-4.954666297095238	-4.683164229663491	-2.226043774888889
O	-5.869162377095238	-4.650765179663491	-3.2359709248888886
O	1.949746932904762	2.8099395903365085	5.482740175111112
O	3.2870726329047617	3.7157561803365082	3.8782916851111113
O	4.3626772629047625	0.6029404453365085	3.157752925111111
O	2.724955072904762	-0.4775785396634915	3.844124285111111
O	-4.440275957095238	-3.528254869663491	-1.5977772948888886
O	-6.092916267095238	-3.470151989663491	-3.8827541648888886
O	-5.335166487095238	-0.40708568966349157	-2.4160007548888887
O	-1.3842029946952379	1.5617532683365085	0.5873360691111114
O	-1.588923215095238	0.9845450753365085	2.0412190851111114
O	0.8058989029047621	3.5217549403365087	3.469359545111111
O	-5.309413637095238	-0.9823811396634914	0.1307042491111114
O	2.060607272904762	3.0981492003365085	4.119347765111112
O	3.026495332904762	0.5296608503365084	2.928029085111111
O	-5.351896287095238	-2.478096179663492	-1.8451769448888886
O	-5.926608707095238	-2.356832919663492	-3.1230501148888887
O	-5.157243647095238	-1.2017036096634917	-1.3155853148888885
O	-5.170421307095237	0.43316970533650845	0.6072438841111114
O	0.2405226829047622	2.7823874803365083	2.2949802951111113
O	-2.919077517095238	1.5797651833365085	0.3212463381111114
O	1.723293672904762	1.0753043855365085	2.448472925111111
O	-5.810515767095238	0.5108129433365085	1.9584003351111117
O	-0.7478648170952379	1.8431652283365085	2.882160705111111
O	-2.322604739095238	12.272970690336507	11.156664735111113
O	-2.699467247095238	15.962187690336508	10.411399835111112
O	-7.057384357095238	13.204351290336508	9.036700145111112
O	-15.305695977095239	3.1316178703365085	-2.1940235548888887
O	-14.985280877095239	2.1224208103365085	3.1601890251111113
O	5.725162172904762	13.377823590336508	-5.466284894888888
O	3.713117312904762	11.513413090336508	-8.06704813488889
O	-0.4833242720952379	13.523055490336509	3.271795675111111
O	-2.122275083095238	12.260383490336508	0.07164847411111139
O	-2.5442946370952377	8.754729710336509	1.1627307051111115
O	-0.14873230709523777	6.711998140336509	-1.0749419078888887
O	3.1376362929047623	5.758313650336508	0.018191061111111406
O	6.623431372904762	4.318257820336508	-0.9814187698888885
O	9.670150122904762	5.476051870336509	0.9980807651111114
O	10.595327222904762	7.668642910336509	-3.571940894888889
O	6.793226052904762	7.459023600336509	-3.941387764888889
O	4.345282642904762	10.080001020336509	-2.5438168648888886
O	0.972729142904762	9.674192470336507	-4.168726844888888
O	-7.051421447095238	1.9412711323365084	-13.586244964888888
O	-7.603689567095238	1.7540808313365086	-9.829606114888888
O	-4.786516897095238	4.167920860336508	-9.176072154888889
O	-2.578320587095238	2.4216093203365086	-11.698249164888889
O	-3.0078411070952376	-0.7236805096634915	-9.551796174888889
O	-2.045234065095238	1.3509241983365086	-6.468554534888888
O	1.0251468429047623	2.7217648903365084	-8.444868734888889
O	2.080151532904762	-0.8776839396634915	-9.216782194888888
O	1.511855732904762	-1.6976295396634915	-5.497491504888888
O	3.6960060029047623	1.1574615861365085	-4.357773434888888
O	6.330769202904762	0.22081333333650843	-6.912865794888888
O	6.528924852904762	-3.2646228996634914	-5.451074814888888
O	7.3358193229047615	-1.6589844996634915	-2.0168694448888886
O	10.242275322904762	0.18373031733650846	-3.9025391648888887
O	11.658834722904762	-4.681056869663491	-2.256253454888889
O	13.708809522904762	-1.7297494696634914	-0.9122818558888885
O	4.563775742904762	-7.898181889663491	6.4681042051111115
O	2.1730795029047623	-9.429914809663492	4.068235335111112
O	5.017596732904762	-10.242448909663493	1.5179792351111114
O	5.902728362904762	-6.524301289663491	1.2636726051111113
O	2.204022782904762	-5.757127339663492	0.40742117111111137
O	2.063014752904762	-8.468741439663493	-2.0977754548888887
O	5.013560212904762	-7.974930599663492	-4.522789074888888
O	3.476343372904762	-5.004202409663491	-6.330539544888889
O	0.027069972904762096	-6.619475379663491	-6.580384584888888
O	1.5501786929047623	-9.776481609663492	-8.168105524888889
O	-9.041786617095237	-6.521990259663491	5.580654795111112
O	-9.713325827095238	-9.304884309663493	8.157033425111111
O	-10.071882167095238	5.153757350336509	7.736290575111112
O	-6.453924177095238	6.420719420336509	7.287115855111112
O	-4.931758187095237	3.404367930336509	9.000254695111112
O	-2.2434017210952377	6.750585480336508	11.372225435111112
O	-1.701004711095238	3.7406048303365083	13.635666035111111
O	-1.0720573340952377	1.3445112723365085	10.858447835111111
O	-1.550395501095238	-2.449445899663491	11.251998535111111
O	-3.880484917095238	-3.876624309663491	8.632617865111111
O	-3.7460941270952377	-7.710351779663491	8.80554986511111
O	-0.8909563680952379	-7.504213399663491	6.316794795111112
O	-3.314908197095238	-6.547425439663491	3.560457515111111
O	-5.477451727095238	-9.589069809663492	4.313326705111112
O	-2.349194889095238	-11.837235109663492	4.215230675111112
O	-1.2355844830952378	-10.091389109663492	0.9804130951111114
O	-4.494584327095238	-10.576975509663493	-0.8692534228888886
O	-0.4897066910952379	-14.971219209663492	-0.8828871008888886
O	-0.2854403870952378	-12.693520409663492	-3.976242824888889
