78

O	-0.6764080577187501	0.5139698262656252	0.753965865009375
O	-0.7178400837187502	2.3130618882656253	-3.075909207990625
O	1.18856181728125	2.1145744482656252	-2.427873397990625
O	-0.3850662667187501	2.446876578265625	-0.16747200399062492
O	0.8622361172812498	1.0305522842656252	-1.387903307990625
O	-3.41220484271875	1.1916931672656252	2.9066655720093753
O	0.7186338472812499	0.18230327726562517	-2.5095042479906247
O	-1.6149527427187502	0.6015831312656252	3.920059582009375
O	-0.2584462207187501	1.207138558265625	-0.45538240599062496
O	0.019289937281249836	-0.6782876217343747	1.0960923030093752
O	-0.6700829087187501	-1.2087279817343748	2.2923999820093752
O	-2.14573160271875	-1.0201645717343748	1.8704388820093751
O	-1.94546450871875	0.41617574926562517	1.3808436820093752
O	-2.14779108271875	1.0819260132656252	2.7109644020093753
O	-4.11041822271875	15.601772388265625	-2.2124147079906247
O	-3.70227848271875	15.623061888265624	3.053774682009375
O	0.03938321728124983	15.721380388265624	2.3277247120093754
O	-1.0187206947187502	2.1445986582656253	13.386220582009374
O	-2.99585655271875	5.361067048265625	12.797441482009374
O	-5.88249997271875	3.4016198582656254	11.158641882009375
O	-5.6311975027187495	0.1865271272656252	13.232513082009374
O	-5.13396764271875	-1.4886847217343748	9.713142742009374
O	-2.04229030471875	-3.5271538617343747	10.762529082009374
O	13.95528825728125	7.061256048265625	-1.5122660379906248
O	3.71662993728125	13.463327688265625	-0.986077597990625
O	5.23311889728125	10.924083888265624	1.4418485320093752
O	2.8064856172812496	8.054564478265625	0.9495780240093751
O	4.82710976728125	5.407155128265625	-0.8942858979906249
O	4.23091579728125	4.806213128265624	-4.630646627990624
O	5.96016329728125	3.2425369582656254	-7.669074747990625
O	9.88193055728125	4.923612178265625	-6.300334757990625
O	8.87508745728125	7.889702628265625	-4.144487757990625
O	8.944379157281249	6.881070518265624	-0.46919706099062497
O	9.786268857281248	8.725241388265625	2.7460219920093754
O	11.55612365728125	5.576388748265625	3.866039792009375
O	11.401815757281248	-3.7687874717343743	9.367555972009374
O	7.911075417281251	-2.3947413717343746	8.645214422009374
O	9.32580645728125	0.02359743526562519	6.082101632009375
O	8.343842597281249	-4.651641041734375	3.889344262009375
O	6.88823616728125	-1.5440518017343747	2.285755562009375
O	10.033597357281248	-1.0811087217343747	0.14043427330937508
O	6.08005210728125	-3.958428341734375	-1.816970717990625
O	6.93955119728125	-0.9429095517343749	-3.9644824079906247
O	7.139950047281251	-5.453433441734375	-6.735810257990625
O	5.26615331728125	-2.6760552117343748	-8.574151837990625
O	8.56226957728125	-1.7946689017343749	-10.317216617990626
O	5.72076493728125	-5.545557181734376	-12.791202217990625
O	6.45063929728125	-2.3716117917343746	-14.836271817990626
O	0.014416597281249777	-5.472321531734376	-8.870383037990626
O	-0.31212275971875014	-5.103790021734375	-5.120164027990625
O	0.6865241272812499	-8.708229261734376	-4.424767877990625
O	3.9879318272812503	-9.292776111734375	-6.226457947990625
O	6.06248597728125	-7.295026601734375	-3.746186727990625
O	4.42860711728125	-8.782926581734376	-0.659794069990625
O	-5.72169586271875	-6.1168637717343755	7.625524132009375
O	-9.90872601271875	-3.1582785017343746	7.258390182009375
O	-9.070298562718751	-3.5795950117343747	3.5419471420093753
O	-12.53795144271875	-5.078568901734375	2.943371892009375
O	-14.136834642718751	-2.128202221734375	4.740078332009375
O	-12.757002042718751	0.8719830822656252	2.805134532009375
O	-6.78316287271875	7.878839108265625	5.205473652009375
O	-4.56848349271875	8.668364508265626	2.1481979920093752
O	-6.47990192271875	6.623167998265624	-0.4164779699906249
O	-6.26335998271875	10.590075588265625	-3.215193847990625
O	-9.06440675271875	8.739642478265624	-4.965430707990625
O	-7.17558483271875	5.427686338265625	-5.086025507990625
O	-9.357665202718751	2.2437647282656252	-5.070684347990625
O	-8.75021289271875	-0.033979050734374794	-2.056124097990625
O	-10.310515552718751	-3.468571061734375	-2.663461947990625
O	-7.06053827271875	-4.286795581734375	-4.4998361279906245
O	-5.35763217271875	-4.624404421734376	-1.1098405479906248
O	-7.94623075271875	-7.008253011734375	0.23901368290937508
O	-7.4985035327187495	-9.133797211734375	-2.8919181479906246
O	-3.7018550127187497	-8.857936781734375	-2.5855804579906247
O	-3.56328854271875	-10.021992011734374	1.018585344009375
O	-5.50989393271875	-13.118287511734374	0.0379562670093751
O	-0.1951036837187501	-13.253476811734375	-2.061032667990625
O	-0.5084042467187502	-16.339396011734372	0.11469527920937508
