39

O	47.366543260609696	43.93667210979294	51.62851086527195
O	42.56730081436435	48.89562121168859	39.04264931942663
O	47.31359585263414	47.285179615667495	45.90159855431132
O	45.87801860656544	41.07146086731199	49.22676099633318
O	45.799990227508815	47.559565871476735	42.48910523900015
O	47.05515906405062	45.06292476315804	46.50777144261032
O	47.95078017105061	43.67130614371324	50.42277466797659
O	44.50783413976376	45.89615145826051	47.580678247157266
O	48.4867832697891	48.468324388984406	40.30891629116573
O	46.106132142461725	44.46535443057411	51.591209653408725
O	46.13194461821146	48.89161015883251	44.190304557102074
O	44.977139668025565	41.734979279999735	49.961060013812464
O	44.63331189399122	44.57510365657496	46.09663992640101
O	46.466058687150124	41.70080307001178	48.19368824913466
O	48.47317531188183	48.394377991709554	42.55965882254175
O	43.005645484002024	45.416127870845735	37.543122566374166
O	42.543435456572396	46.305423018682966	36.619639129782016
O	47.68019938536204	44.58167135790358	49.40461931201987
O	45.79016404330117	45.219010605044105	50.50223662669662
O	44.21821918834614	42.572631468481575	49.12695844998097
O	45.415491486611145	42.31592399493761	47.447255735443065
O	43.48692465891623	45.78870939924136	38.81696917491257
O	42.248181582027925	47.57597153407665	37.02060482262168
O	43.6275080518228	48.95294081532152	39.90319732612673
O	44.734414852333714	47.25604248696042	44.84301157743199
O	46.02062129791551	46.34911660924734	44.73340353667584
O	46.54045576982977	46.50139788049017	48.46419093153535
O	45.76698069388778	47.50055479779195	40.264536656137366
O	46.47486784909039	45.28029394750304	49.28931093028961
O	44.61841761086359	43.2908002938848	48.04640310544755
O	43.83843877341761	47.15493322022548	38.7465292334461
O	42.99827017926201	48.04336692755538	38.05171899776402
O	44.397112818700826	47.82274889742562	39.83714395459599
O	46.324608604451015	48.32402132721835	41.387544703561915
O	45.663184702008834	46.68679753388059	47.2635646050016
O	45.20686545707936	48.159954990498434	43.66542905991512
O	44.87325056443715	44.56308462391687	47.30993294715594
O	47.814243946587986	48.180676537538474	41.34497753385535
O	46.496221796019924	46.24459596820998	46.11711962245076
