116

O	-2.1941240423384625	-2.181871214289231	1.2021415697076918
O	-2.7306623123384623	-3.5451772442892304	1.2105688787076918
O	-3.9133630423384624	7.301226155710769	2.036428303707692
O	-3.0757224123384628	5.425554035710769	5.684030913707692
O	1.9908365576615377	-6.15079456428923	-3.790942936292308
O	-3.0484471623384626	7.564856735710769	3.042705733707692
O	-3.5477400923384623	8.010215345710769	0.9314951967076919
O	-4.114178932338462	4.97741127571077	4.910406303707692
O	-2.2033041423384625	4.476592265710769	6.141356143707692
O	0.9119508076615377	-5.28245823428923	-3.647281886292308
O	2.4876239176615376	-6.25865492428923	-2.533677996292308
O	-1.7317108823384624	7.30940483571077	2.628558413707692
O	-2.2511751623384626	7.792063755710769	0.49910792070769183
O	-3.9296721523384623	3.762216465710769	4.273553783707691
O	-2.0298150943384625	3.3168434957107698	5.386690573707692
O	1.3544913476615377	-4.06225917428923	-3.118839036292308
O	2.5967595676615374	-5.2551116042892305	-1.6507705862923083
O	-3.6875704723384626	-3.57318821428923	2.3790345937076918
O	-3.1625167023384626	-3.0158202342892304	3.390966243707692
O	-2.6397694023384624	4.6386594157107695	1.7483534337076918
O	-0.5563981333384626	-2.86429345428923	2.638137573707692
O	-0.4392199653384625	2.5929554557107695	0.8060526227076918
O	-1.7800777183384624	0.7352746827107695	0.1722202527076918
O	-1.6580473273384624	-4.47630312428923	1.8123498137076917
O	0.7118063076615375	-2.2507518942892304	-0.9094593962923083
O	-0.6026401313384625	6.034959455710769	0.8139119567076918
O	0.21612270766153752	-0.2996611482892305	0.4096816318076918
O	-2.8064939523384624	1.5228661497107696	3.962741273707692
O	-0.40409243033846254	0.4968446437107694	2.306279353707692
O	-1.6863033163384626	4.528160765710769	2.517810973707692
O	-1.0253033743384625	-1.9112340742892304	1.9323332737076917
O	-1.4106295413384626	7.135614565710769	1.3312438337076917
O	-3.1676155623384625	2.7294642357107692	4.830140593707692
O	1.1490712376615373	-1.2848474342892306	-0.05861498829230821
O	1.8741020176615373	-4.18424875428923	-1.9307391362923083
O	1.6356078776615375	-3.2059145142892307	-0.9378723862923082
O	-0.15855050233846257	-0.7885770942892305	1.7563647437076917
O	-2.2734269023384623	2.2040534657107695	2.770243833707692
O	2.5715366276615375	-2.90098727428923	-0.08539269429230817
O	-1.5062238403384625	3.32974540571077	3.097900303707692
O	-0.5568153213384626	5.1229812057107695	1.8504499237076917
O	2.3551525276615375	-1.6256883342892305	0.06755740070769178
O	-0.7678419723384625	-4.80720093428923	0.6900893927076919
O	-1.2000706902384626	-4.8780999442892305	-0.6068932072923081
O	0.4191366076615375	-5.51882277428923	0.8311724667076918
O	-1.0685077253384625	-6.03714249428923	-1.3780066862923082
O	0.5574116276615375	-6.70741019428923	0.1101255217076918
O	-0.18167455033846247	-7.0004910042892305	-1.0245251762923082
O	0.14005548766153741	-7.9518694842892295	-1.9705711462923083
O	-1.4146691713384625	1.5442437097107695	1.4525211437076917
O	-4.181878682338462	-4.86420486428923	2.626494383707692
O	-5.944473702338463	0.6549016065107695	15.62815791370769
O	-3.8780638623384625	0.37223039471076946	18.77162221370769
O	-0.8628624893384624	-2.6794619942892304	16.135616213707692
O	0.8994690976615374	-14.69502172428923	3.528648463707692
O	-1.1299453543384625	-14.24931392428923	6.694426513707692
O	-4.354780662338463	-13.58724092428923	4.728163283707692
O	-4.271476962338463	-12.60942752428923	-0.20835323829230817
O	10.407877777661538	6.150787975710769	9.485386443707691
O	11.863771477661539	3.667747875710769	7.044431433707692
O	2.0320195976615376	1.1596231667107695	13.664233113707692
O	4.061953857661537	-0.9396663042892306	11.280938113707691
O	1.5777184476615376	-1.2517316742892306	8.535715003707692
O	3.1194480276615377	0.6717515882107694	5.591914153707692
O	2.0775144876615377	3.911834655710769	4.623204153707692
O	3.194608357661538	7.22182232571077	2.651377673707692
O	2.5799980476615376	10.66800097571077	4.056083263707691
O	6.924847437661539	7.02904004571077	4.4536557137076915
O	6.315470957661537	5.02943681571077	7.657872223707692
O	7.2424027076615385	1.4114655197107695	7.033818773707692
O	8.817044267661538	-1.2945146342892306	9.169322903707691
O	10.871884077661537	-2.1976744642892303	6.117060883707692
O	12.300369577661538	-8.12330940428923	-2.687260426292308
O	8.800733177661538	-8.23600502428923	-1.3127398862923083
O	9.236349977661538	-5.21181889428923	0.7634092817076918
O	11.164602477661537	-3.4507647342892307	-1.9887765262923083
O	8.196577377661537	-3.6566309842892304	-4.226565856292308
O	6.203124247661538	-2.218463454289231	-1.2023589662923082
O	8.674166727661538	0.5650656133107694	-0.9815628762923083
O	8.038747157661538	1.2522997637107696	-4.739367966292308
O	4.189360997661538	1.1065080547107695	-3.9711399562923084
O	4.427489327661538	3.4965903657107695	-1.1387044662923083
O	6.813799617661537	5.70352641571077	-3.263889546292308
O	4.104551007661538	5.88717223571077	-5.912602126292308
O	1.8943860776615375	7.38307053571077	-3.370486196292308
O	4.665118147661538	10.02506567571077	-2.681416116292308
O	1.5233178976615376	11.37259087571077	-6.837244586292308
O	2.1245395176615376	13.92700077571077	-4.083154976292308
O	-8.656899792338463	5.762460495710769	-5.220770516292308
O	-7.504907242338463	2.9867893157107694	-7.369329796292308
O	-5.1008701123384625	5.253099445710769	-9.271525576292309
O	-3.2353843923384624	6.15659078571077	-6.186466326292308
O	-2.7421037823384626	2.5247283457107694	-5.291548616292308
O	-1.5559041633384625	1.7779427657107694	-8.781364496292309
O	1.1927590676615374	4.319295125710769	-9.707626486292309
O	3.8528843576615377	2.7177460257107695	-7.556837096292308
O	3.0085626376615378	-0.7400247542892306	-8.747575326292308
O	3.3247300976615377	0.21944209171076945	-12.41372918629231
O	-9.402617122338462	-7.639277934289231	-2.958216556292308
O	-12.865999122338462	-8.00760652428923	-4.459468826292308
O	-6.702285812338463	-7.692550044289231	8.62525257370769
O	-5.432470702338463	-4.03343299428923	9.289170723707691
O	-8.001150142338462	-2.3484877342892307	7.066601053707692
O	-8.297906512338463	0.6541984268107695	10.62906251370769
O	-9.802628292338461	1.4665481727107694	5.307443143707692
O	-11.661268722338463	0.9185778807107694	2.0665382537076917
O	-10.344338712338462	-1.8702727742892307	0.04453336670769181
O	-12.024092522338462	-1.9029300842892305	-3.418136306292308
O	-9.205020232338462	0.5388564235107695	-4.386242876292308
O	-6.824850492338463	-2.3416825942892308	-4.452894126292308
O	-9.113458242338462	-4.42147475428923	-6.735663746292308
O	-9.284654232338463	-1.4750123242892303	-9.12013055629231
O	-5.490716842338463	-0.9167461042892306	-8.853939276292309
O	-4.563009522338462	-4.44263721428923	-9.76325998629231
O	-5.595237832338462	-0.7611828542892305	-14.12925588629231
O	-1.8728205203384625	-0.9694442042892306	-13.21405408629231
