80

O	-0.6995997050327866	0.036424475065574724	-1.1111987978836069
O	0.37526678496721333	0.1580189990655747	-0.28993836488360697
O	-1.5965508420327867	0.8683671520655747	-1.099773555883607
O	-1.0451525638327865	-1.3099012809344255	-0.955141985883607
O	-0.7007837860327866	-2.8757560509344255	1.498494756116393
O	-0.18505514003278656	-2.339384970934425	-0.822378993883607
O	0.9754933949672133	-2.0657801809344254	-0.019960500883606958
O	1.1279982749672135	-0.7226355609344254	0.15308176111639304
O	1.9045613149672136	-0.22425303893442528	1.223850696116393
O	0.8110218549672135	-0.4257402099344253	2.172897396116393
O	-0.3332188190327866	0.2254986470655747	1.731375156116393
O	1.6790122449672136	-3.8172108209344255	1.391492306116393
O	2.2028907349672133	-2.5766970809344256	2.008339526116393
O	0.9310899149672134	-1.8109869309344253	2.248468566116393
O	0.2174704349672134	-2.0589631909344255	1.190145446116393
O	-1.0901100570327866	-1.6017347809344256	1.001638056116393
O	-1.3495654080327866	-0.5639648489344253	1.786417196116393
O	-2.6891877550327865	-0.12501546893442528	1.495895986116393
O	0.21695123496721336	-3.994656280934425	1.206910336116393
O	4.099582324967213	-11.143350300934426	-3.186555103883607
O	0.8363416749672135	-11.879583800934425	-1.309528733883607
O	0.3367000249672134	-11.062201900934426	2.388427016116393
O	-0.5198524020327866	-14.082389100934426	4.5256127161163935
O	-8.123353135032787	-10.829406500934425	8.643595086116393
O	-7.293234675032787	-5.438265400934426	7.801669306116393
O	-4.586827145032786	-7.081687330934425	5.747178116116394
O	-6.451545605032787	-9.003482890934425	3.028726746116393
O	-8.198925625032786	-5.8489802209344255	1.776103996116393
O	-4.783390165032786	-4.905922500934426	0.21589184411639306
O	-4.089768045032787	-8.306427520934426	-1.457921773883607
O	-4.839388795032787	-8.898076090934426	-5.135043763883607
O	-8.583952275032786	-9.532081050934426	-5.399539263883606
O	-1.5315535460327867	2.6164559890655745	-6.397597203883606
O	1.2347762449672135	2.272698699065575	-3.931622783883607
O	2.8856369849672134	-0.7914500609344254	-2.591668903883607
O	6.453700594967213	-0.16736552193442533	-2.016923553883607
O	7.006755624967213	-0.9417410409344252	-5.754945233883607
O	6.6045716949672135	-4.650946380934426	-4.808557573883607
O	2.802598144967213	-4.958549830934426	-4.7173132438836065
O	-0.45941100903278653	-3.2206133109344255	-5.493400533883607
O	-3.6609134450327865	-3.5466450509344254	-7.561294813883607
O	-6.003676085032787	-1.0686669809344251	-9.259531933883606
O	-9.001228565032786	-3.2347062509344253	-8.353185683883607
O	-9.087807525032787	-2.9431154609344254	-4.5655600538836065
O	-10.755586325032787	0.9760642850655747	-1.366006883883607
O	-9.708802135032787	2.2262835790655746	-4.828354693883607
O	-1.6991687170327867	-0.31358512193442534	-13.338071423883607
O	2.056366124967213	-1.0414681809344253	-13.688016823883606
O	5.896420584967213	-4.299450590934425	-9.587004463883607
O	8.648392154967214	-6.433170070934425	-8.042892423883607
O	7.1899655749672124	-0.09246272893442531	-14.228648723883607
O	-0.20164350703278655	7.028330109065575	-2.224420923883607
O	3.049199614967213	5.459076209065574	-0.877505551883607
O	5.172273604967213	4.361051509065574	-3.950763943883607
O	2.2712765849672136	5.824693049065575	-5.938455643883606
O	2.9998792449672136	9.157663029065574	-4.321348543883607
O	6.739301654967213	8.773672889065574	-4.935363203883607
O	-0.02327432903278659	11.102472399065574	-0.347008076983607
O	2.484798874967214	9.676141939065575	2.134567396116393
O	5.286210764967213	9.382214079065575	-0.41200393788360695
O	7.923734844967214	11.508356599065575	-2.125296153883607
O	12.232152814967213	-2.6944602709344254	7.729159506116394
O	10.701454714967213	-0.33363062993442527	5.1667214461163935
O	3.1519893449672134	6.216085399065575	9.143660006116393
O	5.487224014967214	3.808312389065575	10.914058776116393
O	3.178910204967213	1.533301059065575	12.949661276116393
O	2.4435161049672134	-0.8200684909344252	10.044706276116393
O	6.169103504967214	-1.6432422509344256	9.448367076116394
O	6.972126494967213	-2.1671126509344254	13.090854676116393
O	10.764288714967213	7.089889999065575	5.666127586116393
O	7.857225744967213	9.373006829065575	4.920939066116394
O	-6.288272545032787	-2.6817522709344255	13.706750676116393
O	-1.9689031950327867	4.105727859065575	9.735309576116393
O	-0.006868388032786554	4.284050369065575	6.471405676116394
O	-2.7108213750327863	4.030205079065575	3.7933587761163934
O	-5.807221405032787	4.815283509065575	5.905283946116393
O	-6.494001105032787	8.289571369065575	4.507004306116394
O	-7.1962612850327865	6.559330359065575	1.115309616116393
O	-10.715145185032787	5.395051769065574	2.079395556116393
O	-10.145677065032787	10.191067409065575	-0.49849446988360696
