102

O	-3.4466347390579726	3.6553946690289854	3.9301404040000008
O	-5.0859994090579725	-0.5996827709710144	2.7241584640000007
O	-4.688069519057972	3.192094519028985	3.603761494000001
O	-4.631344219057972	0.006027199028985519	3.837151264000001
O	-2.8669199490579724	4.0998734090289854	2.731573914000001
O	-4.1786939790579725	-1.1426593309710145	1.855212994000001
O	-4.889277819057972	2.6357044090289854	2.328901824000001
O	-3.2839940990579723	0.3161827590289855	4.136428114000001
O	-2.4295298490579724	2.9011122490289853	0.31371792000000104
O	1.4391733609420276	1.8963653950289856	0.921185377000001
O	0.36325228094202755	1.0140790420289856	0.740055161000001
O	0.5358095509420275	3.0540544290289855	0.6214239380000011
O	-0.016717349057972397	1.2390527047289857	-0.690720411999999
O	0.19732494094202746	3.3150383890289854	2.043483854000001
O	0.02365639094202754	-2.0590787509710147	4.420971634000001
O	0.5663744109420277	-0.6218315909710144	4.549070384000001
O	-0.10674645905797253	-0.10554853097101446	-1.2434447659999988
O	-0.24053140905797243	2.1644041840289856	2.585340214000001
O	0.11528379094202745	-2.6088312909710147	2.951869234000001
O	1.1938005809420273	-0.3913098409710145	3.233963504000001
O	-2.1388730510579723	0.3830954340289856	-0.679357090999999
O	-2.1835789650579724	1.5750602170289856	0.17096951600000102
O	-1.8807861550579723	-1.6322849709710143	1.740280324000001
O	-1.1899474260579725	-0.5112289409710145	-0.463348419999999
O	-0.9045443550579725	1.5929230400289855	3.514489534000001
O	-3.0163589590579725	1.3240595620289857	1.131693874000001
O	-0.6341648250579724	-1.5790970509710143	2.209519474000001
O	-0.17166473905797242	-0.35920488097101444	2.6073815540000007
O	-1.2160586570579723	0.38452220602898557	2.962041854000001
O	-2.8479319890579724	3.2581902590289857	1.6109487540000011
O	-2.8872879190579726	-1.0449462409710144	2.286029924000001
O	-3.7492418990579726	2.2638811290289853	1.6117289240000012
O	-2.4737315090579726	-0.04992028097101442	3.1212494040000007
O	-4.983034479057972	6.049529069028986	10.135052714000002
O	-8.295768719057973	6.613544129028986	12.019536314000002
O	-7.314858219057973	-4.490426530971014	9.408835584000002
O	-6.261640399057972	-0.8894046809710143	9.566031174000003
O	-4.711699399057972	-0.4354328109710144	12.981698414000002
O	-2.1861378420579722	-3.231418750971014	12.363227814000002
O	-0.4222332890579725	-0.7337788809710144	9.973230914000002
O	-0.40951231905797236	2.1831738460289856	12.510381114000001
O	9.179718650942029	-1.0156987509710145	5.438678814000001
O	6.683680500942028	0.5432295780289855	3.045062634000001
O	4.085047230942028	3.1857106190289857	3.5696076640000007
O	4.223769010942027	5.533072809028986	0.49771923500000104
O	7.072491070942029	7.401986529028986	2.050369594000001
O	4.575689260942028	9.064106469028985	4.422349634000001
O	4.164477390942027	6.313946949028986	7.0613412140000005
O	5.599602530942027	3.0448458890289856	8.322955564000003
O	7.188605700942029	1.3774932130289856	11.359235914000001
O	9.781572450942027	-1.3627333209710144	11.858046114000002
O	7.893556470942029	-2.604813490971014	14.934752714000002
O	4.6592592809420275	-3.891270890971014	13.391798214000001
O	7.302208110942027	-7.402781640971015	10.540655914000002
O	7.323549850942028	-3.7472731109710145	0.16550465000000103
O	5.481737970942028	-0.7451065909710144	-1.383443625999999
O	7.769691800942027	2.3533236690289856	-0.939751490999999
O	10.128329950942028	-0.13850881097101442	0.661874450000001
O	7.459739530942027	-6.508171510971014	-3.361069465999999
O	4.626409360942027	-4.463320430971014	-4.9027994459999995
O	6.793894090942027	-1.4460363009710144	-5.616254725999999
O	9.360997450942028	-0.23467193097101435	-8.165560935999999
O	6.375006170942028	4.070096749028986	-9.944573235999998
O	3.9445135409420273	7.966883389028986	-6.908723545999999
O	7.5927355309420275	7.244347909028986	-5.960615335999999
O	-2.1325575830579724	16.210876539028988	2.425448014000001
O	-5.678629029057973	8.607265489028986	-5.047604445999999
O	-2.3458508940579725	6.804677759028986	-4.7911308859999995
O	-0.3345924990579725	10.076940429028985	-4.567842515999999
O	1.7891713909420277	11.202419239028984	-1.614750395999999
O	8.641820050942028	11.522292139028984	-1.743536215999999
O	6.514545940942028	-9.414049160971015	-7.8710848659999995
O	3.0168730509420274	-8.091798180971015	-7.200715955999999
O	-0.39071523905797245	-8.985426860971016	-5.713313725999999
O	-3.1633717090579725	-3.8589777909710143	-5.496939035999999
O	-5.789951929057972	-1.2021114409710145	-6.096431645999999
O	-8.672898169057973	-2.1656876309710142	-3.7876221759999993
O	-7.229433949057972	-0.4892615009710144	-0.791282539999999
O	-6.930179049057973	2.9410657690289854	-2.406288285999999
O	-10.410165139057971	2.844581509028986	-3.918979965999999
O	-11.953281849057973	1.9054173390289857	-0.5406600239999989
O	-10.289785849057973	4.903586309028985	1.064829074000001
O	-10.686779589057972	7.522479599028986	-1.619280525999999
O	-6.729218929057973	7.303325349028985	-10.783394285999998
O	-5.3668444590579725	1.5266745890289855	-10.028737745999997
O	-3.2353724190579722	-1.5906659909710144	-9.588940245999998
O	-1.0828097110579724	1.9869004660289855	-13.383695585999998
O	0.45131914094202763	2.2708056790289852	-9.807865495999998
O	2.1332250609420274	-1.0055629409710145	-9.144695525999998
O	5.623537740942028	0.17945588902898546	-13.609469985999999
O	7.145047350942027	-2.977877690971014	-12.082396685999997
O	-11.392152099057972	-7.070745230971014	4.9045116040000005
O	-14.438294549057971	-7.663762970971015	2.6148147440000007
O	-14.232141149057972	-10.161621060971015	-0.26439012199999895
O	-10.965222329057973	-6.2251742709710145	-2.158497095999999
O	-5.639700689057973	-9.992044360971015	-2.514948065999999
O	-4.7105737090579725	-6.626205890971014	-1.000426061999999
O	-1.6822733710579725	-4.362174840971014	-1.2284465159999989
O	0.6593016509420275	-5.681757070971014	1.568679204000001
O	-1.0246477380579724	-8.901016760971014	2.371067444000001
O	1.7451000309420275	-11.125036260971015	0.9806141940000009
O	4.106103970942028	-9.822248560971016	3.7782477940000008
