13

O	-4.293678674307327	62.30626075231414	75.64928639516815
O	-4.023744945899432	63.60015666991651	76.08368225009363
O	-3.2333539179139357	61.93901430531282	74.65022091739147
O	-2.9319295495644866	63.12506286370416	73.95879301390586
O	-1.5557747204622683	63.1597441178094	73.84322932755775
O	-2.2505350405876428	61.599329682313275	72.20413304956432
O	-1.1752188576622598	61.947372550838594	73.00054984699143
O	-0.4138010984743015	62.338737791767876	70.78891345131254
O	-2.60255626855524	62.72402725335738	71.47051414045181
O	1.219298384222468	65.34456438841494	70.08472678083827
O	-1.6519294216558438	62.75725685085612	70.27590953836696
O	0.29966914359670577	63.485418260968586	71.07698406991454
O	0.7248495411869368	64.09322614104501	69.76986933435329
