78

O	0.906796337492064	2.1158624257904757	2.542560470898413
O	-0.17819005550793598	1.276376206790476	2.1984571408984133
O	-0.009256222507936007	0.256157726790476	1.247735360898413
O	1.265836757492064	0.12541669779047598	0.6605583708984131
O	2.222448337492064	1.116460111790476	0.932232680898413
O	1.5435253574920638	2.325505195790476	1.288883830898413
O	-1.031431454907936	0.28922612579047596	0.34671961989841305
O	-0.865877508507936	-0.418315156209524	-0.754639354101587
O	0.3082880174920639	-0.9380517642095241	-1.2901069591015868
O	1.3775201874920642	-0.49541755420952405	-0.5899706451015869
O	-1.746466387507936	-0.148467211209524	-1.9089533991015868
O	-0.7596595035079361	0.899051180790476	-2.556701469101587
O	0.16181656749206397	0.067455795790476	-3.443784409101587
O	0.33074238749206386	-1.246068014209524	-2.735613719101587
O	2.583073437492064	-0.8095902142095239	-1.239521069101587
O	6.953091897492065	-8.231025694209524	4.859859940898413
O	6.359820427492064	-4.715784954209524	6.204025930898413
O	7.266320947492064	-4.469927624209523	9.930975040898414
O	7.779985587492064	-0.6946568342095241	10.027895240898413
O	4.0705477174920635	-3.5173996142095234	14.195406440898413
O	0.3815223874920639	-3.898345754209524	15.000071940898414
O	-0.6571784125079361	-0.8486034042095241	12.964673640898413
O	-3.512114052507936	-1.692003314209524	10.599120840898413
O	-2.563362562507936	1.023580834790476	8.116619910898415
O	0.44733581749206386	-1.005582484209524	7.092608880898413
O	-0.45585970650793606	-4.570349674209524	8.096896080898414
O	-3.588956502507936	-4.545141114209524	5.916543360898412
O	-1.173439384507936	-4.905759774209524	2.9848070808984133
O	0.924965757492064	-7.810886854209524	4.394105270898413
O	-2.4959355925079363	-6.617190834209524	-7.499019509101587
O	0.24150946749206392	-4.039989204209524	-7.090224549101587
O	3.1888461174920644	-3.871902294209524	-4.734976139101588
O	6.178734287492064	-2.5101008142095242	-6.679495809101588
O	6.766594697492064	-5.999780734209524	-8.161025139101588
O	8.271408337492064	-6.955844724209523	-4.778373939101587
O	5.094742397492064	-7.692826864209524	-2.787140389101587
O	1.350898397492064	-8.242700754209524	-3.0314859491015866
O	-1.426442726507936	-10.776033174209523	-2.3833809891015867
O	-4.764171892507936	-11.538221874209524	-4.022638269101587
O	-6.306051932507936	-12.367593274209524	-0.629779101101587
O	-6.248916942507936	-8.973112334209524	1.0811441808984132
O	-9.458637382507936	-7.669144994209525	2.676538000898413
O	-9.183656752507936	-4.591212084209523	0.4723675588984131
O	-9.249719842507936	-6.857147014209524	-2.621116659101587
O	7.208395727492064	-11.090467974209524	-7.075106909101588
O	10.729056567492064	-10.191754374209523	-5.952781779101588
O	-3.087791762507936	-0.6638731642095239	-9.232628609101587
O	0.5821542674920639	0.40919244099047597	-8.810249139101586
O	2.755547957492064	-2.363434874209524	-10.413420859101587
O	-0.603719404507936	-3.9686849742095234	-11.245712559101586
O	-4.751494812507936	2.8819230957904756	-11.380753359101586
O	-1.711081854507936	4.872432605790476	-10.286708259101585
O	0.699333567492064	3.020798105790476	-12.576678059101587
O	1.0008719174920642	9.507249455790475	-4.573543579101587
O	4.329670097492064	10.294596655790476	-2.953761549101587
O	3.552964207492064	10.601087725790476	0.7781363408984131
O	3.8328838174920636	6.835584795790476	1.3933625108984131
O	7.424077697492065	6.6237547257904765	0.0659690998984131
O	8.626271707492064	9.694243905790476	1.8982752108984133
O	7.235474047492064	8.433479735790476	5.219292430898412
O	9.125198767492064	5.193301395790476	4.788682240898413
O	12.397727267492064	6.414656925790476	3.392820540898413
O	7.817502387492064	11.960878125790476	-5.793923309101587
O	3.3057380874920637	8.165295065790476	-11.161276459101586
O	-11.328636732507936	8.855894265790477	3.6447304508984133
O	-8.116553802507935	7.029585685790476	7.558544530898413
O	-5.635378342507936	5.892449875790477	10.217048940898414
O	-2.645347912507936	7.5950702657904765	8.530215090898414
O	-1.728525999507936	11.204257625790476	9.523342870898414
O	-0.03526876250793598	12.200998225790476	3.797731750898413
O	-2.3617067725079357	8.012126835790475	-0.37509196170158693
O	-0.958903733507936	5.664577445790476	-2.994800719101587
O	-3.496008302507936	2.871795355790476	-2.9357251691015867
O	-6.330012922507937	4.345116035790476	-1.0245352511015868
O	-8.684489672507937	4.601592145790476	-3.999665279101587
O	-8.704662402507935	0.7375264957904759	-4.0848746891015875
O	-11.063149922507936	0.38648317679047595	-1.115256066101587
O	-13.572015532507935	2.556954395790476	-3.016661349101587
