18

O	1.2726135786438144	69.28675105824756	64.56723254377495
O	1.025615631394258	68.92676135250106	63.282377614588675
O	0.14209649081184006	69.59213514559804	64.95728587654615
O	1.7710482426544756	68.48881632918949	65.54968000663519
O	4.613246677835253	68.84513394873986	64.66191596491115
O	2.562008631498094	67.43015824620039	65.03117586763021
O	2.8994845050959484	67.98446632707298	63.852067504004175
O	2.0275863013951128	68.15494765936955	62.892078142452775
O	2.3169488742156776	68.59485802964377	61.58130259790437
O	3.591154431138365	67.8178474002212	61.64674463590659
O	3.9329577061798475	69.29179497846067	61.58016522586684
O	5.088284214969811	66.15729526445638	64.64129621162967
O	3.764411264434327	66.10631895383142	63.699954207738934
O	4.192283313351667	67.0746166782908	62.74477126709454
O	4.278898839326187	68.0612471209618	63.63471081461891
O	4.608490973859226	68.68665270752145	62.46926070548166
O	3.8036953407024123	69.96601243190332	62.66561627342096
O	4.917530185427987	70.58059570308332	63.406185261534354
