24

O	5.472898163393506	66.02735914039438	65.567388370847
O	4.135141992263424	65.67731401763976	65.42800839536342
O	3.357682005805422	66.78491792578271	65.06203762412339
O	3.87228343067762	67.85391424448426	64.42411009563928
O	5.162361325784901	67.79708218730993	63.90839164721346
O	5.942740438478049	66.76496742446935	64.47411711294437
O	3.5368734178126795	69.1255699595965	64.91768948642773
O	3.734774762538589	70.05561045179753	63.938874667357
O	4.820106082699363	69.92783323530487	63.057996304613944
O	5.666682068503576	68.91734939890536	63.39678591692103
O	2.6996051201908435	69.40225800820761	65.99458524392152
O	3.6553292942675686	71.43119654405874	64.57166952196599
O	4.970525568209585	71.13735051190139	65.41178445044736
O	5.9063747054877	71.5888034058293	64.29081980779634
O	5.4645898140114	71.30205410293836	62.88210947544835
O	2.4169798029600313	68.35489557502022	66.93494333402987
O	3.7793551802019354	68.22655599463438	67.63752926909302
O	3.4367454642596615	67.5476536375571	68.93199539276182
O	3.6381582740542537	66.08982154311228	68.66183494412752
O	2.296796941130691	65.4584308641391	68.4736968660221
O	1.7677561604881529	65.31337377400162	69.85236995202632
O	1.6197998182015223	63.9569743029281	70.44682748683368
O	1.9580633536034515	63.80691249978571	71.89566003817244
O	0.8716919872013693	63.43065410013001	72.75389685777331
