37

O	-0.5930004426652946	61.443149997644895	74.93912493192488
O	0.5396563759088031	62.42952810475337	74.9152218854913
O	1.590267401029008	62.13708329987404	73.90297206251753
O	1.9239102614335946	60.71889128394552	73.70359432239565
O	0.7155251509072182	59.92525282423339	73.38412352298648
O	-0.505884723558002	60.80316001095033	73.59573593447706
O	3.047878209098807	60.05309767425857	73.59337629973143
O	3.088397354549908	58.754637233541956	74.40506582218465
O	1.7592787758181623	58.303712290324356	74.84615068491816
O	0.8389644246225623	58.75167869275741	73.86551149314529
O	1.4053061388796029	58.065335164639414	76.06593851253193
O	1.3945402265210745	62.67452842809485	72.60516568303422
O	0.15802024490728162	63.35212961590075	72.5803794302981
O	-0.46747967215887254	63.20805370294687	71.2551476691698
O	-0.24805107682288785	61.906921365353256	70.5544887660882
O	1.2217625242841073	61.642646204604695	70.57136349893318
O	1.9517030662346504	62.7584117725283	69.93779669567644
O	0.9670522418671053	63.80518557298847	69.49641472567545
O	1.7325622930388276	64.58494816568637	68.42755885800484
O	3.0759453214919086	64.73196982110673	69.05970560890933
O	2.601644251488607	65.50107571726657	70.32513852890916
O	3.2005418360461584	66.86730786398161	69.92943646219616
O	2.7677878305693095	67.12778332701306	68.55774219049015
O	3.648238102024705	67.90223545714346	67.77326202474455
O	3.7073050551723505	69.27665636313563	68.11861301118888
O	4.387406927146026	70.19008479549078	67.30638648617703
O	4.64354544030199	69.84755699307394	66.00664019186094
O	4.437321025037263	68.6025894487074	65.58540874814449
O	3.7145990868000998	67.76851088747723	66.38723200761217
O	3.698964445733752	69.5362075189844	69.4520200389351
O	4.813039565298849	70.22691204271881	69.94616955994768
O	5.761351898826512	70.83332510137585	69.1259626047101
O	5.354719239042047	71.05326771119886	67.83951300679126
O	5.6333990382589505	68.00576754972093	64.79922917852076
O	6.117502917529592	66.9273851378905	65.70654329661062
O	5.125546692966424	65.89290647005268	66.15418041461776
O	3.739144078850728	66.36529639450794	65.99982343413227
