73

O	0.01924258691147518	2.0153074920570493	2.7880539995737705
O	0.40883167691147526	-0.12322799194295087	1.0884513795737707
O	-1.8713799270885247	1.1098764540570492	1.7722203795737705
O	-2.4867770430885248	1.200384176057049	2.9793620695737704
O	-3.6261832330885246	0.4009965680570492	3.14172319957377
O	-1.6977300580885246	1.2052957060570493	4.089452539573771
O	-0.6500200080885248	2.119115512057049	3.994719849573771
O	0.7011772269114753	-0.8854836579429508	-0.028502116426229462
O	-0.7635676160885247	-0.8678325079429507	1.6117933395737705
O	0.04821718691147536	1.1208817500570492	0.5160884115737705
O	1.1760603869114754	2.1451776820570494	0.4764712655737705
O	-0.7094239470885247	1.785179692057049	1.6595519195737705
O	-4.471539423088524	11.260494052057048	3.85019265957377
O	-2.704078143088525	9.425296812057049	6.6705355695737705
O	-2.5265117430885247	11.561876052057048	9.86916725957377
O	7.5766197869114755	6.411666752057049	8.22282989957377
O	4.000471096911475	7.29245551205705	7.401986729573771
O	4.193332376911475	10.69316735205705	5.721855139573771
O	6.540810646911475	9.365413662057048	3.0232692295737706
O	3.439945866911475	7.728240792057049	1.5172341195737706
O	1.1372133469114751	10.76198115205705	1.6383805695737705
O	1.5934383669114753	2.648685292057049	-7.668820440426229
O	-0.24908862808852472	0.7944705690570492	-4.978028070426229
O	-2.444214813088525	2.105038882057049	-2.2337104404262296
O	-5.276427183088525	-0.3067781979429508	-1.6318824604262296
O	-7.104091743088524	1.441223135057049	-4.566287310426229
O	-7.902335963088524	4.281391522057049	-2.1445114604262296
O	-4.577063483088525	6.181345712057049	-2.1535241704262296
O	-1.2785738860885247	6.589527102057049	-3.9827766704262295
O	0.8773370469114754	9.051474722057048	-5.932093080426229
O	3.4000745169114754	8.74388669205705	-8.75862753042623
O	5.497390136911475	11.516095252057049	-7.190578450426229
O	6.687211796911475	9.861580552057049	-3.9782196904262297
O	9.129030506911475	6.113831842057049	-6.667331830426229
O	-4.987721503088524	6.755303212057049	-11.97164534042623
O	-8.469324693088524	6.094223032057049	-6.539340080426229
O	-11.266530793088524	5.9819077020570495	-3.9539102504262296
O	-9.336611493088524	3.860568862057049	-12.42698804042623
O	3.1556698869114754	-3.063089207942951	-5.787687150426229
O	0.055478186911475325	-3.830560197942951	-3.6644895804262294
O	-3.060262403088525	-2.6632481479429506	-5.591858050426229
O	-0.5063917300885248	-1.8127024179429507	-8.30005272042623
O	0.5044283869114752	-5.461493967942951	-8.38293957042623
O	-3.1469078830885246	-6.571724057942951	-8.36215096042623
O	5.017315706911475	-7.157632387942951	-6.001990230426229
O	2.9599747869114754	-8.14658208794295	-2.9569917404262296
O	-0.3527961110885247	-8.176235327942951	-4.830770710426229
O	-2.4216889330885247	-10.399667347942952	-7.086605800426229
O	-5.724977103088524	-9.893387047942952	-9.02607096042623
O	-14.747098093088525	4.30017765205705	5.155504749573771
O	-8.732901543088524	-4.666564517942951	8.48789579957377
O	-7.1722405930885245	-4.8563471879429505	5.002260829573771
O	-11.092161133088524	-0.9453066079429508	1.1348552995737706
O	2.9908858569114756	-8.238642797942951	4.942158969573771
O	0.5008956469114754	-7.990703687942951	7.795049169573772
O	2.2639646969114753	-5.858835767942951	10.43658425957377
O	1.2636316569114752	-2.5173749979429507	8.88146509957377
O	-2.483770883088525	-3.2690558679429507	8.97498962957377
O	-2.4142847230885245	-4.657787917942951	12.55738495957377
O	-3.2359669030885247	0.6667040015770491	12.32419135957377
O	-3.0919082930885247	-11.15746874794295	7.8613139595737715
O	-4.389967283088525	-11.12898614794295	2.0783169995737705
O	-1.1726824116885248	-11.36086034794295	0.11774751757377055
O	-3.732256463088525	-15.407499847942951	-2.9717674204262297
O	9.376049306911476	1.5001747070570493	12.26053365957377
O	6.801541236911476	-5.136404117942951	12.31227425957377
O	6.866363936911475	-4.365659357942951	5.997629429573771
O	4.322560516911476	-4.212909727942951	3.2293363295737705
O	5.831519746911475	-1.6950237179429508	0.7882391495737705
O	9.435094506911476	-1.7450447479429507	1.9883245695737704
O	10.958985006911476	-3.737402697942951	-0.8711118124262295
O	10.048225906911476	-0.7742691879429509	-3.1685283904262294
O	13.646915506911474	-1.7829541879429507	-6.4602167604262295
