77

O	0.2322133167241378	0.9372628033758622	-2.424299398697414
O	-0.2887155452758622	1.7474769773758623	-1.539056122697414
O	-0.4165037052758622	3.136873547375862	-2.0634328486974143
O	-0.8238118456758622	3.422798497375862	-3.329868448697414
O	-0.4173717372758622	2.3912970873758623	-4.1317914086974135
O	-0.5502194882758622	0.9973431693758622	-3.598527398697414
O	1.1028545167241377	2.522538007375862	-4.096385448697414
O	1.0416218867241378	3.417374047375862	-1.947412668697414
O	1.5673150167241379	0.6777497203758622	-2.713868958697414
O	1.4487506367241378	-0.3146881036241378	-3.846300058697414
O	0.1818234767241378	-1.0594851026241376	-3.601308238697414
O	0.3007101767241378	-2.3862940726241377	-3.002628668697414
O	1.7849569767241378	-2.613423502624138	-2.958047588697414
O	2.108474736724138	-1.8867685326241377	-1.641529542697414
O	1.599464226724138	-3.0434260426241377	-0.731825770797414
O	0.12592499172413785	-2.814403572624138	-0.727113018597414
O	-0.025400279275862192	-1.3773033026241377	-0.513375651697414
O	0.9430106467241377	-0.7394007226241378	0.27467568730258607
O	0.8570458067241378	-1.1415908026241377	1.484895641302586
O	-9.987514453275862	-6.108236612624138	-1.0262351396974139
O	-6.6065868632758615	-6.9558295026241375	-2.645084818697414
O	-6.777696953275862	-5.712597542624138	-6.233016988697415
O	-3.7344484132758624	-4.265194692624138	-7.996318338697414
O	-2.7736235332758623	-6.207785512624138	-11.138939368697413
O	0.9139943267241377	-5.236813842624138	-11.292148668697413
O	0.3613396267241378	-3.190513672624138	-14.512018068697413
O	-2.556144333275862	1.9122899273758622	-11.178123668697413
O	-7.1808558932758615	3.180034327375862	-7.4903535386974145
O	-8.842823493275862	-0.2575821516241378	-7.856278638697415
O	-12.46147787327586	-0.8122155826241378	-6.817715008697414
O	-6.270131323275862	5.555133587375862	2.309469631302586
O	-4.9083085432758615	2.2977327773758622	1.2296868713025861
O	-2.8059023632758624	0.9898961303758622	4.2210092413025855
O	-5.909704713275863	-0.3534117186241378	5.901998171302585
O	-5.964143543275862	-3.140606402624138	3.287214211302586
O	-7.678588913275862	-1.3823651026241377	0.3525713913025861
O	-9.636879693275862	1.7031605473758624	-0.652966355247414
O	-12.991578373275862	2.873845797375862	-2.0447172286974142
O	-10.301223193275861	-3.107871892624138	5.288740211302587
O	-8.000946413275862	-6.151748142624138	5.346428881302586
O	-8.894332813275861	-5.532638972624138	11.339926231302586
O	-2.2123721632758624	7.4842610373758625	3.834666791302586
O	0.7889912467241378	11.724528567375863	4.226828721302587
O	3.288651106724138	5.616836827375862	11.941481431302586
O	5.225338686724138	2.263838487375862	12.223265631302587
O	2.8061219067241376	0.5722592145758623	9.750877331302586
O	-0.4221018142758622	1.9329757873758622	11.329296131302586
O	-3.469034193275862	-12.031851632624138	3.333420701302586
O	0.14964817672413777	-11.071623132624136	2.646191341302586
O	1.503664276724138	-14.410044132624137	3.954399251302586
O	9.485428526724139	-5.953933362624138	4.136640761302585
O	8.036385356724137	-3.0476435826241377	2.245730351302586
O	5.655305006724138	-0.5041514626241378	3.7646497013025857
O	4.019484886724138	-3.076660782624138	6.1060856313025855
O	0.4190218767241378	-4.3240867626241375	5.969230361302586
O	-1.1400554132758622	-7.400071602624138	7.521979541302587
O	-4.327415783275862	-6.217124222624138	9.217829031302587
O	-4.220685713275863	-2.844175912624138	10.941512831302587
O	8.749838116724138	6.289483937375862	-0.800471786697414
O	9.136592926724138	5.836418127375862	-4.581441218697414
O	6.020791796724138	3.981630167375862	-5.019186538697413
O	6.957750256724138	1.2128091393758622	-2.368986758697414
O	10.247094426724138	0.6835270083758622	-3.898615078697414
O	8.831348956724138	0.2909676453758622	-7.436185918697413
O	6.485829416724139	-2.362660312624138	-6.212477088697414
O	8.668324656724138	-4.286033742624138	-3.816237188697414
O	12.404886826724137	-3.6788680426241376	-3.945558228697414
O	8.396302916724139	1.1679479833758624	-14.139271968697413
O	13.417816026724138	-4.290379352624138	3.312485011302586
O	12.860266126724138	-0.6849806926241379	4.577966031302585
O	7.366651066724138	5.749908377375862	7.304209191302586
O	4.228775596724137	10.230341887375863	-5.455586548697413
O	2.449441206724138	9.064651697375863	-2.366885118697414
O	-1.2287972362758621	9.752999187375863	-3.207826718697414
O	-0.7473369092758622	12.459191467375863	-5.900456768697413
O	-1.6195462832758623	15.580854567375862	-3.939551258697414
O	-5.2048281232758615	14.192175867375862	-3.643136598697414
