33

O	2.49339076815453	66.3499073770603	68.62129194732528
O	6.375923718417143	69.02558253845788	68.74084654595065
O	3.3434872118085344	66.71607050886179	69.62408361675249
O	5.050985352950396	69.21135359303864	68.5912593626847
O	2.9852790563971867	65.13699466774531	68.11426049812361
O	7.120353454350365	68.6937437727119	67.64139199042913
O	4.695201406751377	66.34130013635264	69.53611876146023
O	4.2849117948913475	68.9208545492549	67.43806507748712
O	5.419203398683635	64.37750099664065	67.1275752972608
O	4.540546666453999	64.781585481372	63.20200838850632
O	5.486742871351273	65.52006687724553	63.92878311564898
O	4.3151975510515515	63.90281474115695	64.39496553580967
O	6.537890391334975	64.50071768757118	64.24203210553853
O	3.1697803197383725	64.6931195600036	64.91301623100918
O	4.6157623524788	70.23533559085938	63.587602570272544
O	3.5190862344569913	69.15313834649277	63.534856439056114
O	7.782476170104214	65.154375255337	63.860849788810796
O	3.559787723357662	65.9766995005409	65.0110077265389
O	6.0339064831951195	69.67474274171053	63.20880423427961
O	4.214399318412421	68.01403024684667	62.90614153192546
O	7.597349545772194	65.54193668176313	65.98264869286399
O	6.253410861486405	65.21895127886721	66.46777057819519
O	6.895474674267323	68.547007841298	65.30446639163921
O	7.717247263969724	66.16327685228867	64.82226228950074
O	3.3701547077708938	67.12527196317683	65.53602483743484
O	5.893119570629507	66.18293728225369	67.25544837417472
O	6.180139087664708	68.57536599568873	64.1799354277449
O	5.02948365359193	67.84337998851963	64.15700012686055
O	4.591545212740047	67.7202963872346	65.40709328875207
O	4.332198992227969	65.03118858027078	67.74116054481507
O	6.395849501146165	68.65588661522895	66.4853030905795
O	5.161287365202327	65.93706000150134	68.28247399054429
O	5.060334072682558	68.38208763698316	66.47390989327958
