93

O	-3.3706621705199993	-1.6741421346680014	1.1163094825000004
O	-0.11459619351999972	-1.5281988546680014	5.2879631284999995
O	-2.48301050052	-0.6636514366680013	1.0967669865000003
O	1.9545422094800002	-1.3458039746680015	4.4616264185
O	0.2893348414800003	-2.298644434668001	3.1772184185000003
O	-1.1772112155199999	-0.9927260446680014	0.6608658615000004
O	4.27673995948	-3.516649614668001	1.9089964985000003
O	-0.47602837121999975	0.05275150633199868	1.2739089685000005
O	-1.1054217085199998	0.5374155493319988	2.2931255285000005
O	-2.3491681705199996	-0.011515714668001331	2.3231836685000005
O	-3.06450512052	-0.5489816546680013	3.3733106385000005
O	-2.77138555052	-1.930505994668001	3.3365247085000003
O	-1.7678336605199998	-2.6655791446680013	4.0156830885
O	-0.7391505585199998	-3.182746194668001	3.1354514285000006
O	-1.4260093705199997	-3.864486514668001	2.2174294085
O	-2.8538988605199993	-3.765650444668001	2.0311529985
O	-3.4882969605199996	-2.4889647246680013	2.2462754985
O	-0.13711580051999972	-1.865218534668001	0.27538759620000036
O	1.0850475294800004	-1.2182358946680014	-0.09748244949999965
O	0.20061668848000025	-0.28309006066800135	-0.9091583514999997
O	1.5121309294800003	-0.05831417466800132	-1.5619048714999997
O	0.15162317348000032	1.8334083553319989	0.11665150850000033
O	2.97282970948	-0.08147669066800134	-1.2362154714999996
O	2.5025532094800003	-1.7536083146680013	-0.11539074649999967
O	3.38699246948	-0.6749280996680013	-0.032204364499999666
O	2.66203209948	-1.1002014346680014	3.2396073185000005
O	3.42339381948	-0.040683290668001304	0.9924577885000003
O	-0.05289601751999973	0.6297348893319987	0.11578195450000034
O	2.08383638948	-2.6967024146680014	0.6122996535000004
O	3.21122117948	-3.3676766746680014	2.6714631685000003
O	2.27351695948	-3.563202434668001	3.7234483485000003
O	2.38711679948	-2.649103784668001	4.9600662085
O	6.24865161948	-4.674721034668001	0.9129231445000003
O	3.3419967794800005	-2.525040244668001	-1.0504023514999996
O	5.2572101594800005	-2.605854054668001	1.6212280885000003
O	6.78519641948	-3.7599238746680013	-0.13001526549999967
O	-2.88143555052	-0.26114411166800133	4.7988357485
O	-3.4396619405199997	1.0203129423319988	5.2849078385
O	4.37588478948	-2.0574101146680013	-1.9763508414999995
O	6.08514804948	-2.6024090146680012	0.44495425550000034
O	4.72330770948	-4.489105414668002	0.9968783425000004
O	2.25500376948	-2.308729514668001	2.5309584285000004
O	0.5449619924800003	-1.3722537546680011	4.2241967085
O	-7.05820391052	-9.054704334668001	-4.4550724015
O	-5.50056125052	-7.950408514668002	-1.2233391814999997
O	-2.79620890052	-10.479111854668002	-0.1990605954999997
O	0.38958647948000025	-9.739255814668	1.5780987185000004
O	1.0284386394800002	-11.307997254668	4.9937550985
O	3.4870707994800005	-8.687952474668002	6.5609175885
O	6.26878245948	-11.265820454668	6.8633621685
O	4.45402349948	-11.119737554668001	-5.3898585515
O	1.2610379394800002	-12.821152054668001	-4.0283944415
O	-1.2325880285199997	-14.646480054668002	-6.1554266615
O	0.4531623114800003	-3.612414414668001	-8.4925900215
O	-1.0314928505199998	-0.04849171766800131	-7.9123397715
O	-5.0401719505199996	-3.009979654668001	-6.3350646015
O	-3.0729867305199994	-6.238711554668002	-6.7897359115
O	-1.1324960775199997	-8.277379864668001	-9.3566715515
O	-9.19566519052	-3.111525564668001	-6.6825387315
O	-12.83467280052	-2.2042691146680014	-6.5390337915
O	-0.10758399451999973	11.332313445331998	-8.557508751499999
O	-1.4195668105199997	7.896569255331999	-7.4748596015
O	-12.00522240052	-2.519901644668001	3.7987207385000006
O	-10.43790740052	-1.3711187146680013	0.5059540785000003
O	-8.00236264052	0.9501045243319987	1.9170725085000004
O	-10.57588930052	2.664986795331999	4.2602561085
O	-11.63836540052	5.023187145331999	1.5502318385000005
O	-8.393342840519999	6.946913455331999	1.0469164835000002
O	-5.6003282605199995	11.068748845332	3.7530490485000003
O	-3.14254108052	9.427598235331999	6.0792417485
O	-0.6586987315199997	8.501364975331999	3.4083911985000004
O	1.7627071194800001	6.179624245331999	1.7791318485000003
O	1.9138696394800003	5.788958415331999	-2.0624676614999995
O	-2.0053385505199994	6.306280155331999	-2.5548550414999998
O	-4.47131584052	3.541265215331999	-3.7330620414999998
O	-8.176044810519999	3.417425465331999	-3.5019774814999995
O	-9.51544011052	2.2459561153319987	-6.8323386715000005
O	9.96676639948	0.15075384073199868	-0.3185064904999997
O	7.20691694948	2.668930955331999	0.6840331515000003
O	8.69433235948	3.818413025331999	3.8003463385000003
O	9.69261339948	0.4239431723319987	5.2062102784999995
O	6.05917609948	-0.35681644066800133	5.1567476684999995
O	4.25050048948	2.7519664553319987	6.0753778385
O	6.36593775948	5.130077025331999	7.7620171685
O	7.26332599948	5.0622507353319985	11.486218328500001
O	11.65358289948	2.0083802853319987	9.4549512085
O	12.23717739948	-1.7500531946680011	9.969604718500001
O	13.22207569948	-4.7917637446680015	7.9988634585
O	2.7288328994800004	10.679221345332	4.9016576185
O	4.62127491948	11.285355545332	1.6195140685000005
O	-0.5448453965199997	13.829593445331998	1.9197359285000004
O	10.61219779948	-0.7276326936680013	-6.8515559615
O	9.99645129948	-4.007503434668001	-8.6841190315
