39

O	2.761149727313964	67.16680618174826	65.15726594219696
O	2.1161129674465613	66.98531933560331	68.60620006927407
O	3.5547505742683425	63.89277827240684	65.62302782977122
O	3.5090893878703855	67.52242614019193	64.16557275641493
O	1.5009756272948742	62.1540229079451	70.76868329274632
O	2.5832884241795107	61.479415496478	67.52880704461198
O	4.907590466497614	67.04575445167275	64.18455778845771
O	5.363038818677062	67.66864992292841	65.3285328668732
O	5.046506729382359	65.65004790637647	64.7690022112205
O	3.7145489999207326	65.17256291214397	65.114124892441
O	3.0272007065703557	66.05833438242593	66.03916977295563
O	1.9150695259676602	62.57790614686738	67.01453925499685
O	0.6916935757833209	62.658004974384745	67.70225767131879
O	0.46269929698404155	63.89134720742439	68.14345165634737
O	1.072329702229729	66.10840283423441	68.66394799500009
O	2.161657070038016	67.69524639257588	67.40715975335762
O	3.417658029085481	67.23045036773632	66.85146921793402
O	2.46558597704511	63.71119778502906	66.41209416653436
O	2.096931245019242	65.0557982808841	66.669548067686
O	1.2986602741414914	64.96119883534736	67.8259420615509
O	1.9345928706138251	60.27764150678338	67.78196414364626
O	3.2338367049791383	67.4099434030364	69.27759678366105
O	4.568973395981673	67.04341567208672	68.87645165778338
O	5.072740826669216	66.04216777719722	68.01722790344611
O	5.178812351758985	64.63259212560455	67.95746393288196
O	4.2806226292695095	63.96265612012722	68.8781427441628
O	3.737698419971296	64.997247415421	69.72022213213282
O	2.674339213404598	64.41557372456094	70.58858485225235
O	2.570657068587858	62.99065132886042	70.3502826642591
O	0.16230561923617692	62.61700499621642	70.94448447455801
O	-0.024011618504084176	63.84902086274585	70.92224730877858
O	-0.69488651687649	61.494440833928046	71.44683548320391
O	-1.8219567792595797	61.7877325467075	72.19687982657776
O	-2.0966322941742845	61.42103039460907	73.4629245766395
O	-1.1126204774553488	60.640880701726644	73.97100373066698
O	-0.049894412328981286	60.11311539773919	73.29433907329644
O	0.12112063061242839	60.52564720905868	71.94771096764175
O	1.367167320768771	60.817264513130326	71.19609413958511
O	2.1322085417741365	59.93482291554352	70.87338894832612
