12

O	2.3378647085881856	68.0689733608873	64.91983040216725
O	3.130180286710382	67.92912414943606	63.7510361470959
O	3.8005449295498943	68.94756199046435	63.12457389007531
O	3.4110110373777065	66.6497478757469	63.57946906066469
O	3.952822042543837	66.09194535981435	64.68413164324292
O	5.252711302783797	65.74655365088488	64.59068150199502
O	3.1306481911810975	66.06097141068963	65.75550562705344
O	2.4073738056130045	67.20033536889228	65.9846662169955
O	5.180141421639867	68.90964045436009	62.77603360685376
O	3.1879180860855465	69.76739642647277	62.184455399697924
O	4.020490645474703	69.88363336540655	64.27001614066742
O	4.622331298805665	68.90073183180672	65.2864618023774
