77

O	1.3158219607166664	0.43004672438888913	2.239210893796296
O	0.5176924307166664	0.05231868438888912	1.0664680417962962
O	0.5416710607166664	-7.557897719611111	1.8253209537962962
O	0.6910569907166664	1.606377290388889	2.917019233796296
O	1.4493645207166663	-4.19593591961111	3.381525003796296
O	2.5536516907166664	-4.227478689611111	0.6069892067962962
O	-0.7436663112833337	1.4165155803888891	3.3128933237962963
O	0.3655680627166663	-6.437012049611111	0.9923363377962962
O	-0.9609225722833337	0.09708745038888913	3.9979688237962963
O	0.7714471207166662	-6.17049947961111	3.750116203796296
O	0.2843028067166663	-0.7220672026111109	4.009819073796296
O	-0.6977428772833337	-1.8131216596111108	0.8360057557962962
O	0.1347672067166663	-2.192424119611111	3.940271383796296
O	1.5724087107166662	-3.383216239611111	0.3399445407962962
O	1.2882172207166662	-2.803756799611111	3.266713213796296
O	0.5588781207166662	-5.066426439611111	2.9864605137962963
O	-0.12067988728333373	-5.43024528961111	1.7303686337962962
O	1.6723491807166662	-5.84473920961111	4.722846753796296
O	2.4256965707166662	-4.906172919611111	3.997736053796296
O	-0.9139768602833338	0.4658419893888891	1.1418314727962962
O	1.543159280716666	-2.007314419611111	0.10491540579629621
O	0.5549469007166663	-1.249838139611111	0.5476233287962962
O	-1.5104945292833338	-0.8276042496111109	0.8582990857962962
O	-13.543517969283334	-2.528348639611111	-7.866326336203703
O	-10.502517349283334	-4.344039149611111	-9.270052816203703
O	-6.5850161692833336	-5.883526009611111	-4.648768906203704
O	-5.016790529283334	-6.185155189611111	-1.303849546203704
O	-7.363145199283334	-4.906303069611111	1.4858915687962964
O	-6.1611540492833345	-2.8773584996111112	4.547641433796296
O	-7.270621969283333	-4.3419919896111105	7.913593943796296
O	-4.619049999283334	-2.599782009611111	10.154480403796297
O	-7.2029172992833335	-0.6378625686111109	11.976579133796298
O	-7.981480659283333	3.564269890388889	6.834887583796296
O	-9.614493209283335	3.793555350388889	1.2046557637962962
O	-10.608359869283333	0.1140800683888891	0.9501467837962962
O	-12.803225369283334	-1.1684643886111108	-1.8926032562037038
O	-2.716625559283334	3.487873700388889	-4.341860846203704
O	0.9199841407166662	2.653795660388889	-5.123640756203704
O	-0.21749730228333375	0.7332715073888891	-8.256112246203703
O	-1.2778357102833338	-2.068432449611111	-5.863586566203704
O	-4.688027639283334	-0.7711863066111109	-4.776989056203704
O	-7.329290349283333	1.8103661503888893	-5.359590456203704
O	-10.993362469283333	2.263075730388889	-6.452414366203704
O	-3.5222860692833335	-2.861583249611111	-10.138891066203703
O	-1.1438883162833338	-5.350314359611111	-8.490444486203703
O	0.05385835771666625	-8.269579109611112	-10.535767366203704
O	-0.05957479328333376	9.241144420388888	-5.707124666203704
O	11.683793430716666	5.9138804603888895	-7.1828453262037035
O	8.684797740716666	3.641031560388889	-6.461738826203704
O	6.7993718807166665	4.3185073903888895	-9.731525666203703
O	-2.6116003892833337	-11.018819959611111	-3.466044816203704
O	2.103326750716666	-13.619726559611111	-2.030584876203704
O	2.263623150716666	-10.136493869611112	-3.554773646203704
O	4.837092580716666	-8.587474109611112	-1.3867133462037038
O	7.179365520716667	-11.48794765961111	-1.209828466203704
O	11.699267030716666	-1.3932707896111107	2.760608453796296
O	8.871450970716666	1.0977599803888891	3.065483113796296
O	7.384143480716666	3.058036610388889	0.15696566479629626
O	8.233285110716666	0.3259656483888891	-2.442130586203704
O	5.537929310716667	-1.6898017296111107	-4.329754296203704
O	5.777070580716666	-5.005724299611111	-6.156389316203704
O	4.050089410716666	-4.52276494961111	-9.525611466203703
O	4.502451370716667	-1.1449150966111108	-11.194414866203703
O	1.5025038507166664	7.257115180388889	6.508467493796296
O	4.441166790716666	5.029654110388889	5.529252153796296
O	6.262857940716666	5.296882880388889	8.783472263796297
O	3.1018050907166663	4.531871800388889	10.820224733796296
O	2.5891221707166663	1.4228117403888891	8.962543163796298
O	6.195898350716666	0.2392136583888891	8.570523103796296
O	8.850698290716666	1.6440898203888892	10.698045123796296
O	5.586043440716667	4.52054988038889	15.275716833796297
O	2.039903800716666	3.854671900388889	16.547089733796295
O	-1.3965412252833338	5.18222704038889	15.797425233796297
O	13.972977530716665	1.0515916503888891	5.517851603796296
O	-0.42537048398333377	11.567791140388888	1.8996746037962962
O	-3.8741835292833335	11.592624240388888	0.27904849279629623
O	-5.595504599283334	14.19315684038889	2.460109853796296
