73

O	-1.4607829365409843	-0.8966388022786878	-2.116626460967213
O	-0.42326609554098427	-1.4473924822786877	-1.364021643967213
O	0.9267307784590157	-1.1628100922786877	-1.451587971967213
O	-0.8886940945409842	-2.051930642278688	-0.2397815559672129
O	-1.5417915555409842	-3.143784152278688	-0.8373168959672129
O	-1.0776575985409842	-4.438752452278688	-0.8082401129672129
O	-2.673625501540984	-2.681774982278688	-1.423062222967213
O	-2.4309195415409843	-1.8258660722786877	-2.4929022009672126
O	1.8934401084590158	-1.9403781322786877	-0.8131921209672128
O	1.2707765184590156	-1.4747910022786879	-2.861696880967213
O	0.6496973884590158	0.12034666572131217	-1.284563199967213
O	-0.6373027465409842	0.6320595637213122	-0.6161176710672129
O	-4.702164481540985	-11.760213152278688	0.700800929032787
O	-5.273630661540984	-10.180485752278686	-2.732967790967213
O	-6.860048211540984	-12.659445852278687	-5.198984970967213
O	-0.7871163465409843	-11.759118352278687	-12.077643120967211
O	1.434396368459016	-6.943150382278688	-10.571315720967212
O	-0.7366388045409842	-7.827803652278688	-7.5987820509672135
O	0.8398047084590157	-11.002294352278687	-6.2088358909672134
O	4.202703688459016	-9.270053732278686	-5.6805112209672135
O	2.5365037184590156	-7.607310312278688	-2.680346530967213
O	1.0285414184590158	-10.769387552278687	-1.113358533967213
O	6.085150078459016	-1.4039310322786878	5.2344126390327865
O	2.784301558459016	0.04148438572131219	4.230461059032787
O	-0.45897432254098425	-1.6482863922786877	3.2751641190327874
O	-3.2864923715409846	0.4928470497213122	4.624757809032787
O	-2.7245847515409842	-0.9852675422786878	8.131085069032787
O	-4.513610201540985	-4.109958512278688	6.843928119032787
O	-1.6786272515409841	-5.842303632278688	5.020994039032787
O	2.0339095584590154	-5.837529072278688	4.327016579032787
O	5.195980988459016	-7.999584122278688	4.832133179032787
O	8.861166998459016	-7.219250652278688	5.436978769032787
O	9.876916158459014	-10.086356452278688	3.138923009032787
O	8.667419948459015	-8.848326752278687	-0.2432782449672129
O	11.734296658459016	-4.649318882278688	0.028874679032787065
O	4.041136978459016	-5.213818422278688	12.993609679032788
O	-2.068219491540984	-5.401420162278688	10.827414379032788
O	-5.837851951540984	-5.746229872278688	10.521684979032788
O	0.5834033584590157	-2.494721132278688	15.840867779032786
O	5.486523808459016	4.075526887721312	2.3872647790327868
O	1.7157057384590158	4.497302317721312	2.6762142190327873
O	0.5973243184590158	3.426034857721312	6.2068813990327865
O	4.353321918459016	3.022341787721312	6.746477569032787
O	4.772834098459016	6.690299057721312	5.895673419032787
O	1.822526648459016	7.670046357721312	8.121458399032788
O	6.633987598459016	8.246716007721313	1.0968660290327872
O	3.0397150684590164	8.749748267721312	-0.056533387967212856
O	1.6062189684590156	8.896016587721313	3.4742166690327867
O	1.1222072584590157	11.302621847721312	6.3511684290327866
O	-0.19054447054098422	10.926759347721314	9.973533279032788
O	-14.303458741540984	-5.423697552278688	5.509678549032787
O	-12.715450841540985	3.265000487721312	-1.427713304967213
O	-9.418455251540985	4.050709277721312	0.3104105090327871
O	-9.622757141540985	0.4353569967213122	5.965826409032787
O	-1.8092117075409844	7.768017317721312	-6.210452190967213
O	-5.473303381540984	7.082895927721312	-6.893863770967213
O	-5.463805341540984	4.660258637721312	-9.857486010967213
O	-4.850911841540984	1.5240246277213123	-7.702561400967213
O	-7.950500951540984	2.113700847721312	-5.560205200967213
O	-10.255575801540985	2.979116887721312	-8.480112660967214
O	-8.680955001540985	10.052593997721313	-4.944588370967213
O	-6.143540431540984	10.727872047721313	0.3785251690327871
O	-2.4491749715409843	11.368023647721312	-0.11492966396721294
O	-3.010251501540984	15.681633147721312	3.5822569790327865
O	-0.22226874354098425	-2.518497712278688	-15.185875720967212
O	-3.013320121540984	3.935737177721312	-14.110362120967212
O	1.0249232484590156	4.0167627177213125	-9.196414570967212
O	0.7666074384590158	4.110114307721312	-5.421797780967213
O	3.671259128459016	1.9240936777213122	-4.283218240967213
O	5.793286548459016	2.044484247721312	-7.489100980967213
O	8.505372598459015	4.419642587721312	-6.338289410967213
O	9.453327758459015	1.6984994977213121	-3.7599766409672126
O	14.230670758459015	3.311478167721312	-3.546053110967213
