35

O	5.984161551350029	67.02795244638915	64.62725461321025
O	4.706128278415111	67.35714933762591	64.31342429453306
O	4.179646900016207	67.45194509166762	62.90774071984187
O	5.343373560187568	67.81281224791292	62.15417647723255
O	6.525461576109613	68.46170193215349	62.69331668259876
O	7.0162919405588955	67.7916776992069	63.90421196333245
O	6.208085565821765	66.24162773708204	65.6852159767385
O	5.255009187609854	65.64160716198502	66.37013144300779
O	4.02168761437599	66.23352109829158	66.33015466075675
O	3.8344775233421653	67.21979009862848	65.32958710299386
O	2.5064993217731817	67.40969439707814	64.96506267095674
O	3.0435825226669597	65.21107934290934	66.50699629444127
O	3.0400129197720114	64.31985112820675	67.57537350154584
O	4.229692798625206	64.30211240827146	68.16869123084935
O	5.25947315044157	64.53634882279036	67.22481735242894
O	1.8267090035248268	68.52276608849819	68.52068996326194
O	1.7737077412336846	67.11083140613297	68.68732354352909
O	0.7421824455042834	66.58410434077715	67.83792901548244
O	0.9284499559012662	67.53569260183588	66.62203109953488
O	1.5747590305813315	66.69441884909752	65.70916449119743
O	5.5594534640861255	69.85288032039531	66.05768037093463
O	4.206503710665477	70.15941436864733	66.16679588602265
O	3.4768522938580952	70.44103166064194	64.94839528251345
O	4.409470915018702	70.42810887107355	63.85808653512343
O	5.5337484307840965	71.36420304554353	64.06971667901148
O	6.332947632876636	70.72317147140768	65.16103693139279
O	6.162525860082271	69.05708550433951	66.91539567284835
O	5.584418279713912	68.52936931624403	67.96526028760213
O	4.327229594793708	68.97771751152234	68.15920449910364
O	3.5420752139664575	69.43237648025637	67.06981646447859
O	2.193947446152496	69.15299924698294	67.28327612840141
O	3.8357423223511824	68.88062873950734	69.46392019576892
O	4.135225223632146	67.76957051046247	70.29375935429277
O	4.680813462407443	66.82851281670617	69.4853328013707
O	5.730170200653829	67.39764794562876	68.74271153408145
