95

O	-3.2586814107241375	2.577883715379311	6.897127980689655
O	-3.2495111207241374	2.0218432083793108	5.511285710689656
O	-1.8935926047241374	2.213874455379311	4.941421280689656
O	-0.7397901607241373	1.5993322733793107	5.672387380689655
O	-1.4612268757241373	0.8174550093793107	6.740203400689655
O	-2.2400626577241374	1.7859031173793107	7.652830070689656
O	-0.02401707072413739	0.4755866853793107	4.980742570689656
O	-0.8116073147241374	-0.48518083462068917	4.535804750689655
O	-2.192289293724137	-0.5521885146206893	4.889378260689655
O	-2.287022270724137	-0.08010579462068934	6.258280940689655
O	-3.2919209707241373	-0.8912948546206894	4.246277200689655
O	-1.9014475217241373	1.8689386733793107	3.5576892806896554
O	-0.4670870107241374	1.999056517379311	3.284223390689655
O	-0.23598585072413725	1.5394974093793108	1.9288169506896553
O	-1.3948604667241373	1.4668875943793107	1.0084288706896554
O	-2.5089450577241372	0.7418465143793107	1.6464189506896552
O	-2.886435530724137	-0.5696862646206893	1.035595030689655
O	-1.9238034107241373	-1.596735604620689	1.5266773406896554
O	-0.5528742907241373	-1.0676033246206893	1.2784347506896552
O	-0.4076788807241374	-0.9346281046206892	-0.2503972013103447
O	-1.7066621032241374	-1.3000087846206891	-0.8881672683103448
O	-2.3113397647241376	-0.27023438462068916	-1.7303473993103449
O	-1.7204074915241374	-0.1549375846206893	-2.849744439310345
O	-1.8318626886241374	-1.1518825346206893	-3.7858564293103445
O	-3.046285470724137	-1.7763311246206894	-3.8781709993103446
O	-3.7632079007241375	-1.958467814620689	-5.075256829310344
O	-2.945351250724137	-1.9225337146206891	-6.189801539310345
O	-1.7055714749241373	-1.582075954620689	-6.196306789310345
O	-1.3611603347241372	-0.8436095746206893	-5.0456661193103445
O	-3.2983778507241373	-2.6602846246206893	-2.7941227793103445
O	-3.8067185107241377	-3.921949814620689	-3.1363894193103445
O	-4.209479300724137	-4.288247764620689	-4.412625359310345
O	-4.545582240724137	-3.0731493346206893	-5.099610749310345
O	-0.6961294107241374	-2.603502914620689	-6.669905539310345
O	-0.09204002072413742	-2.9567689346206887	-5.262652819310345
O	0.8013160792758625	-1.8047886546206893	-4.807955929310345
O	4.494927586273789e-05	-0.6063957346206892	-5.317847239310344
O	-4.679458500724137	11.12544550537931	-0.8578700383103448
O	-5.119265410724138	8.48586646537931	1.8076215306896555
O	-8.102519750724138	6.257329345379311	0.8643277706896552
O	-8.377198930724138	2.511964635379311	1.333387740689655
O	-11.312291790724139	1.3471468623793108	3.5239501206896557
O	-9.881823000724138	-2.044770334620689	4.779338320689655
O	-12.406522110724138	-4.044095344620689	2.8005631506896553
O	-15.446373810724138	-1.757998594620689	2.305853540689655
O	-9.045350530724138	-2.823670804620689	-3.1153049393103447
O	-11.559942390724139	-0.25511891462068914	-4.1927306093103445
O	-7.419158360724137	1.3600022053793108	-6.714348349310344
O	-9.132979720724137	4.166821875379311	-4.745394349310344
O	-9.819502950724138	7.596394325379311	-6.278143059310344
O	0.5866454092758626	3.5670597953793104	-5.1680374493103445
O	3.7712141092758626	3.989401175379311	-3.0508688693103445
O	4.141373829275863	7.809491705379311	-3.6963129193103446
O	1.3137013792758625	8.32853399537931	-1.2906511353103447
O	-1.6583079877241373	7.450992065379311	-3.5493109993103444
O	-2.7242185077241374	6.864338865379311	-7.131398529310345
O	-5.031354350724137	8.26673784537931	-9.866375789310345
O	1.4978949192758628	12.35701820537931	-3.8437633593103446
O	1.8801294792758625	12.31990420537931	-0.07301324731034475
O	3.0874249892758625	15.40822410537931	1.6990357206896554
O	4.981659149275863	0.3897928963793108	-8.370074779310345
O	14.078723489275863	0.6027509633793108	-4.359115299310345
O	11.171328189275862	2.6273150553793108	-0.11081735531034476
O	11.503061189275861	4.964417095379311	-3.132714179310345
O	0.7215191492758628	11.14440650537931	7.4690326306896555
O	1.8605693492758626	7.7696431653793105	8.769192900689655
O	7.650995459275863	-1.6057655046206893	9.251411490689655
O	5.760144379275863	-2.6840605646206894	6.140147150689655
O	6.526868999275863	-1.4248224246206893	2.6205480306896556
O	7.730843589275863	2.032874847379311	3.8975580206896554
O	6.093194899275863	5.374794985379311	3.0058714306896555
O	6.275447599275863	8.757947265379311	4.603819580689655
O	6.807226569275863	11.28188800537931	1.7710821006896555
O	8.939092689275862	10.10383756537931	-1.1156612933103447
O	1.5391668192758627	-10.56739909462069	-0.7575710553103447
O	-0.28787810072413733	-7.24630957462069	-0.7841261903103447
O	1.9899300992758626	-5.943893704620689	2.0633215406896555
O	1.8908862392758625	-8.96879719462069	4.244755700689655
O	-1.9244635487241373	-9.29897409462069	4.023576870689656
O	-2.3257747477241373	-5.822300234620689	5.240866200689656
O	0.47097442927586264	-5.516796634620689	7.844938750689656
O	1.9877994292758625	-8.71164828462069	9.131334520689654
O	-2.2381010867241375	-13.07324759462069	7.268620140689656
O	-8.048700900724137	-12.04965889462069	3.3891532906896553
O	7.590839429275863	-11.09410089462069	13.526641350689655
O	8.669398989275862	-5.756675364620689	9.918955350689654
O	10.236056789275862	-6.530175724620689	6.482173870689655
O	11.587287889275862	-4.405929774620689	-1.9487678193103446
O	-8.021158270724138	-11.93901519462069	-4.006781159310345
O	-7.377346310724137	-15.30998979462069	-2.232986949310345
O	-0.06325610072413723	-9.73711479462069	-6.870199729310345
O	1.8117452592758625	-6.483165104620689	-6.968770689310345
O	-0.06712883072413733	-4.526873234620689	-9.704672879310346
O	-2.0415375037241374	-7.304502714620688	-11.318825549310345
O	-0.04153068072413735	-7.33547114462069	-14.522470249310345
