38

O	2.4291851405948552	66.54457480084835	69.92639736309393
O	1.4399452579477223	66.26780420124808	70.89247980562517
O	1.1320614218180514	64.90060537530309	71.34760664834224
O	1.9579256235716795	64.03390697551116	70.55095468957829
O	3.027284258964319	64.42826176752307	69.65141130692243
O	3.3906262253382913	63.40786418545549	68.65629477208765
O	2.414691567555743	62.319212435582074	68.98431424358505
O	2.2429632496160234	61.74155391569378	70.24763833777776
O	-0.464361870684211	64.95667807653153	68.46261293646188
O	0.37980107908580873	66.05565772444794	68.33240254573361
O	1.3798182546785722	66.1759786588867	67.43662031879023
O	2.422128711597868	67.01554673668636	67.74264347126028
O	3.6240672920354733	66.84083087664635	67.14019892460448
O	4.59142412731884	67.98190691031722	67.26848732287061
O	3.8197500841486676	69.05812535197381	66.6010651740113
O	-0.594026627146379	60.938792756620174	67.98681188887893
O	-0.09361655910318323	61.049978298739425	69.23875397193635
O	-0.93158554816359	61.712304556125915	70.12844188988188
O	-0.46774244767449935	61.59609956958397	71.43448315075594
O	-1.4156401754074717	61.17247161971442	72.39285447039022
O	-0.8524329729098843	61.229146415017254	73.77891234597472
O	-0.5638282129501451	62.66857017745246	73.93674715456785
O	0.05888743184898071	63.96231332808958	67.78931495515111
O	0.8858257543245686	64.02105680938551	66.74724504841527
O	2.4426181803595117	67.60927143488946	69.0163002768318
O	1.2701502417584443	61.55706401339277	71.6426238160447
O	1.5948982483469971	65.19162170836195	66.54266272341046
O	3.4201990204243433	66.47385576874645	65.81111051691768
O	4.106445292961181	67.27942003854841	64.82449232273964
O	3.7217940128740477	68.67392655731001	65.16970331296379
O	-1.755243957623745	61.63770057922271	67.83319394350328
O	-2.7223165177760578	61.1200210474133	68.7349009222013
O	-2.304002373179874	61.36635899967462	70.01130937993412
O	-2.641330638106407	61.763496974536984	72.24046129298839
O	-2.9037387509403425	63.04405928544034	73.06744555491657
O	-1.4177212246162794	63.489521869952384	73.06752190251474
O	2.7982928250843946	65.27677019801602	65.91613372773827
O	-2.9644164601070795	62.11460306585645	70.96266825764795
