85

O	-0.38781825737500053	0.4878122605624995	3.0002471353593747
O	0.8856562076249995	0.7716589015624995	2.814571715359375
O	1.1411737576249994	0.3572753425624995	1.4491001053593746
O	0.42307364762499955	-0.8623960404375004	1.2561646053593747
O	-1.1194663543750005	-0.38662214043750054	-0.16648857164062536
O	0.07572608262499947	0.8423067465624994	-1.8767763446406254
O	0.9585735376249994	1.8680013655624994	-2.0994771346406256
O	0.7378031076249995	2.9570189395624995	-1.2578923816406253
O	0.8354279676249995	3.7942025695624992	0.8231282353593747
O	0.8147718376249994	3.4908618495624992	2.1496884353593746
O	-0.14446513637500058	2.8879127295624993	2.914975515359375
O	-1.2261316743750006	2.0478544535624996	2.3817019053593746
O	-0.13732733737500058	0.5222577245624994	-0.5403599166406253
O	-0.19935361137500057	1.4862688405624995	0.4701444863593746
O	0.20208586162499942	2.7602328595624996	0.016702198359374643
O	0.7179156676249995	-0.24348133043750053	-3.8971024046406253
O	-0.27071353537500054	0.044435679562499386	-2.9440563646406255
O	2.1911147576249994	1.0194746545624995	0.7817771753593747
O	1.9064917176249994	3.9374655195624992	2.870747735359375
O	-1.0603531333750005	-0.48519337043750066	1.2098669553593746
O	-0.9580115343750005	0.9216209825624995	1.5961764553593747
O	10.921480427625	4.344982769562499	1.5979541853593746
O	9.369926727624998	5.1352220595624996	4.984275245359374
O	6.189103247625	7.180615359562499	5.380953895359374
O	6.737156487625	10.333931339562499	7.512891785359375
O	-3.1594695823750003	5.398856039562499	10.612600995359374
O	0.03642202062499944	5.753174059562499	8.674163835359375
O	2.7591741076249994	4.320114999562499	10.872876195359375
O	0.9634534576249995	0.9601520795624994	11.150769095359374
O	2.2721325376249997	0.3149399565624994	7.660346755359375
O	5.895958257625	1.3362940445624993	8.156838925359374
O	8.630628427624998	-1.2485658104375004	8.872149195359373
O	2.2083751276249997	-8.1663944704375	1.2345361653593747
O	1.4175091076249995	-5.1949846504375	-0.9205210616406254
O	2.9393786276249996	-1.8369231804375006	-1.1141017636406254
O	3.1608308376249994	-0.7032079804375007	-4.734566064640625
O	6.340220897625	-2.8071178004375	-5.143356454640625
O	8.155782417624998	0.003681879562499324	-3.2667845446406254
O	7.3549072476249995	-0.9405284404375007	0.32600922135937466
O	5.9253354876249995	-3.6181235604375006	2.6110667453593748
O	6.789775817624999	-5.924189180437501	5.528151815359374
O	5.617974667625	-9.376092200437501	6.582595065359374
O	5.805946877625	-8.3329615204375	10.245783495359374
O	3.0374101676249996	-5.750586740437501	10.470289295359374
O	-0.5515909533750005	-9.2479436004375	9.024479525359375
O	10.575877627625	-10.093510000437501	-1.1486803776406254
O	11.022643427624999	-3.9200519204375004	-3.1297486046406253
O	12.109310827624999	-0.6341627604375006	-4.709522554640626
O	11.523700627624999	-9.4447218004375	-6.267133634640626
O	-3.3122894923750006	-7.2039420604375	-1.4016750346406253
O	-2.3593249923750004	-4.3250134104375	-3.7345624946406253
O	0.9989808176249994	-5.2510322504375	-5.411787184640626
O	0.6082655276249994	-8.5017208504375	-3.4716714346406254
O	-2.6214226923750004	-9.1172585004375	-5.341653434640626
O	-1.0115603663750006	-8.177139750437501	-8.674182264640626
O	-7.380112202375001	-8.285468070437501	-3.0247679646406254
O	-7.487923032375001	-4.8443318304375005	-4.657144324640626
O	-4.868084912375	-5.679913700437501	-7.285052634640626
O	-4.518558122375	-7.398107100437501	-10.646092904640625
O	13.877034927625	6.7548131295625	-5.958324704640626
O	10.870034427624999	8.9623633795625	-6.770187664640626
O	-0.20243275937500055	9.7116756295625	-8.318747764640625
O	-0.5523801123750005	5.944373669562499	-8.092062974640625
O	2.7003009076249995	5.3489143395625	-10.017829564640627
O	5.788914627624999	3.7386336395624995	-8.523057704640626
O	-9.627475042375002	2.6304111495624993	-3.4385999346406253
O	-8.579632742375	6.1141447295625	-4.539313244640626
O	-8.895673992375002	8.250792989562498	-1.3764027546406252
O	-5.471298702375001	7.2666431295625	0.02312498335937463
O	-3.5499071523750003	8.4363650195625	-3.065779614640625
O	-5.435749122375	11.7070722995625	-3.371763104640625
O	-1.1080220113750006	12.062884699562499	-0.20968452764062534
O	-8.421860732375	7.025094949562499	-9.241111024640626
O	-6.082280922375	1.8872122595624994	-11.081945104640626
O	-7.855481212375	-0.9522452104375008	-9.318164594640626
O	-8.861689112375002	8.400145329562498	9.045333165359374
O	-11.416116772375002	11.1276726795625	8.136637555359375
O	-11.859714272375001	8.744537379562498	2.5826160453593747
O	-9.764134602375002	2.7370211095624994	2.1247505553593746
O	-7.177903502375001	0.8667719755624994	0.039800140359374625
O	-5.756846862375	-1.7038296404375006	2.471224245359375
O	-8.499583102375	-1.6310021804375006	5.126236605359375
O	-10.168920462375	-4.933799380437501	4.325665665359375
O	-6.885506642375001	-6.639844120437501	5.392835845359374
O	-9.161000542375001	-10.9147944004375	6.639022775359375
