71

O	3.1827625183673476	-2.4320365594693882	2.101263160551021
O	2.2791422483673474	-1.4807832994693881	3.2889907905510207
O	1.1451582083673475	-0.8158224194693882	2.6548442605510205
O	1.1134121383673474	-0.24991255746938817	1.4427463305510206
O	0.025441355367347485	0.5484934835306118	1.2980561205510206
O	-0.15033311863265253	1.3369273605306118	0.07990613215102065
O	-1.3407881216326527	1.3690600005306117	-0.49927819444897936
O	-1.6569510846326525	2.0684697205306115	-1.6086104894489794
O	-2.7396890116326524	1.370371050530612	-2.3674837494489793
O	-3.4338450916326524	0.7181221845306118	-1.4291517794489794
O	-2.8862181816326524	-0.14754391046938825	-0.5953638254489794
O	-1.9710852116326525	-1.1814174994693882	-0.9590022804489794
O	-1.0415180166326525	-1.632370509469388	-0.11938195444897937
O	-1.2992787126326526	-2.2404814494693883	1.0637563705510207
O	-0.1434680296326526	-3.054289539469388	1.3719207805510205
O	0.24311422336734745	-3.726549409469388	2.447859290551021
O	-0.3120194406326526	-3.5703916494693884	3.660614950551021
O	0.4578746483673475	-4.429665839469388	4.614116400551021
O	1.7481342383673473	-4.563757049469388	4.159258560551021
O	2.5952642283673475	-4.248336459469388	5.234411500551021
O	2.7197499083673478	-5.493673579469388	6.068137270551021
O	1.5946001383673474	-6.298259749469389	6.028221410551021
O	3.367852148367347	-8.266223089469388	-6.577012789448979
O	1.8326535783673477	-7.995386469469388	-3.1414929294489795
O	-1.9802563416326526	-8.500883109469388	-3.5227061594489792
O	-4.698616171632652	-6.778366969469388	-1.4984583094489794
O	-6.919355421632653	-8.656005179469387	0.8321352165510206
O	-7.795136351632653	-5.9918078794693885	3.5157193905510207
O	-11.394228221632654	-5.827270069469388	2.3584731305510207
O	-12.231333821632653	-9.131658359469387	0.5397344125510206
O	-9.709165691632652	-2.0595894394693883	-2.9888830194489793
O	-6.342841671632653	-2.002490609469388	-7.856334979448979
O	-5.305452131632653	-5.680370079469388	-7.707740749448979
O	-3.8019430816326523	-7.545753529469388	-10.66630909944898
O	1.7977845783673476	1.755959970530612	-6.953614029448979
O	4.794355488367347	3.050882980530612	-4.807570249448979
O	7.078417548367347	0.8521202225306117	-6.712793299448979
O	5.7212862083673475	-2.2257292794693884	-5.040568479448979
O	2.563473548367347	-2.904411599469388	-7.0706416194489785
O	0.5966479183673474	-1.9058502794693881	-10.12531519944898
O	7.998677688367348	-3.745707469469388	-8.91599394944898
O	8.975138928367347	-4.8409867894693885	-5.417239909448979
O	12.249521478367347	-6.624635739469388	-4.881281629448979
O	9.313711678367348	7.707809600530612	-0.3581257384489793
O	8.446023298367347	-10.855067029469389	3.8408918905510205
O	8.798209888367348	-7.702373679469388	1.6984517605510205
O	7.426800528367346	-5.322413759469388	4.302171490551021
O	5.804400338367347	3.9734207605306118	9.32223642055102
O	3.149406668367347	4.905702520530612	6.817956070551021
O	3.890903798367347	6.189234320530612	3.295742500551021
O	7.267639838367347	4.260376910530612	3.0136450005510205
O	8.044524558367348	1.3952050805306118	0.5592497125510206
O	10.580773478367346	-1.3598106694693881	0.7689856625510206
O	12.149998378367346	-1.5185138894693881	-2.6973425994489793
O	12.483008078367348	1.7484336005306118	-4.611659389448979
O	-5.934360121632653	6.252401490530612	2.3607316505510205
O	-2.6677374016326523	5.9039588505306115	4.431873030551021
O	-4.201330221632652	6.335256030530612	7.675878350551021
O	-7.103356771632653	3.925147960530612	6.999790160551021
O	-4.753833321632653	1.2107573425306117	6.333349920551021
O	-1.9979683716326526	1.828202580530612	8.80668629055102
O	-2.748054161632653	4.089936110530612	11.71976000055102
O	-9.069612301632652	4.593664180530612	11.64137410055102
O	-11.685824021632653	2.2074794605306116	10.19914690055102
O	-13.501890221632653	1.7548739705306118	6.940516730551021
O	4.036525268367347	6.907918020530611	11.98777600055102
O	3.8576448783673474	9.916740810530612	9.57017251055102
O	-4.998250371632653	9.040301070530612	-3.5130102594489796
O	-5.685049331632653	7.404215350530611	-6.841172659448979
O	-9.198959001632653	8.773299200530612	-7.531802659448979
O	-8.500825261632652	11.458006570530612	-10.09537859944898
