99

O	-1.1460490589531254	-2.6851573709593746	1.7982647360000001
O	-1.9632910269531254	-2.2084951709593743	0.8260827459999999
O	-3.4397139069531253	-1.9809619009593744	1.000780426
O	-3.7982313269531254	-2.9535021509593746	1.9897064260000001
O	-3.058015476953125	-4.168793850959374	2.279893676
O	-1.6249456659531254	-3.9083722209593743	2.4659199960000002
O	0.08417151304687476	-2.1749357309593744	1.916425566
O	0.5154582730468746	-1.1308863609593744	1.2371309959999999
O	-0.10535153695312527	-0.8933578459593745	0.0407958679999999
O	-1.3211997006531253	-1.5873764209593744	-0.18047558800000008
O	-2.1667156309531252	-0.9684887409593746	-1.094011936
O	-0.03438520695312519	0.5077808390406254	-0.21439786700000008
O	1.1512237930468747	1.2358305690406255	-0.21211331600000005
O	2.110685093046875	0.5579667360406254	0.4104727759999999
O	1.5652292330468747	-0.23391038695937452	1.4504827260000002
O	0.5165696630468748	-1.4714123909593744	-3.719002744
O	1.0032717530468749	-0.2927938749593745	-3.088039274
O	0.005984503046874812	0.7350006730406254	-3.197644974
O	-1.2631654224531252	-0.14878954395937452	-3.033947494
O	-1.6455597429531252	0.15688836104062548	-1.722796094
O	-0.7181864919531252	-4.731258420959374	-0.6177477677000001
O	-1.1751277259531252	-4.191863820959375	-1.8163304839999999
O	-2.6016188669531255	-3.9974827409593745	-1.9697532340000001
O	-3.251153376953125	-4.532108810959374	-0.807429036
O	-2.898723966953125	-5.947637770959375	-0.5684084760000001
O	-1.4717121099531254	-5.8906472609593745	-0.12006711200000009
O	0.46798326304687476	-4.434577700959374	-0.13026124900000002
O	1.342403413046875	-3.6672075009593743	-0.7314607470000001
O	0.9600477030468748	-3.2987306009593746	-1.9712924840000001
O	-0.4133615709531253	-3.2124373709593743	-2.3122454340000003
O	-0.6271477279531252	-2.1995210009593746	-3.244640764
O	1.9863363630468749	-2.9314035409593746	-2.845976104
O	3.119436593046875	-2.2016559109593743	-2.402889554
O	2.820658073046875	-1.7560320309593744	-1.158317196
O	2.3791750230468747	-2.8311722709593745	-0.3672945120000001
O	-2.0603922579531253	6.921177899040625	-7.687684234
O	-1.5748799339531252	3.7412521290406255	-9.755410734
O	1.0985876130468748	1.1680785390406256	-9.006701104
O	3.617105783046875	0.5218250860406255	-11.702448064
O	6.4509899030468745	-0.8655137589593745	-9.569159184
O	6.1475782230468745	-4.329845310959374	-11.260517364
O	4.465842453046875	-3.8985989009593744	-14.696971164
O	0.8269577430468749	-9.633957260959374	-7.194664624
O	0.6444755930468746	-5.972127140959374	-7.763663524
O	-1.8366063939531254	-5.183760660959375	-10.528501934
O	-4.564290686953125	-7.007289240959374	-8.555917874
O	-4.785113046953125	-3.8686668909593744	-6.366327884
O	-4.966871246953126	-1.2640585209593744	-9.214813094
O	-8.248226096953125	0.2670005700406255	-10.378685754
O	-9.838353326953126	-2.2833529409593742	-12.763762564
O	-7.940555736953125	0.07295924944062546	2.404598096
O	-5.0851370369531255	1.7053134590406256	0.5806988859999999
O	-3.8497003069531255	4.338296059040625	3.191009306
O	-6.524737476953125	6.871673269040626	2.303377986
O	-4.598065776953126	7.379471279040626	-1.01908875
O	-6.123993206953125	4.5923696390406255	-3.174928684
O	-8.510324596953126	1.6824688890406256	-3.256682714
O	-11.474320086953124	0.36403473104062545	-5.258745384
O	-11.273884266953125	-5.557107320959375	-7.022957814
O	-9.060161796953125	9.251208079040625	-1.5585347550000002
O	-5.813612286953125	11.236499799040626	-1.9582192539999999
O	-8.549432536953125	14.576522899040626	2.349371516
O	-5.795475306953125	-1.0244027209593745	6.557087536
O	-7.269557406953125	2.5418614490406255	6.222509376
O	-4.771183456953125	-4.571450660959375	10.317343536
O	-2.414433276953125	4.626660619040625	13.997390836
O	-0.2566102069531253	7.247952229040625	9.632147936
O	-4.073513196953125	7.599490769040625	9.975530836
O	1.0026803530468746	13.959166899040625	-4.229563764
O	3.9733066230468745	12.230427599040626	-2.598557424
O	7.772582653046874	4.587710079040625	4.589951136
O	4.336125813046874	3.9650579590406254	5.931324906
O	3.267038023046875	7.6153939790406255	5.648961386
O	0.6627454430468747	9.094098899040626	3.303161156
O	-3.684038266953125	13.114277399040626	2.531369576
O	-5.381993386953125	11.509008599040625	5.502708106
O	2.661957363046875	-6.483811980959374	8.466093296
O	5.950137773046874	-4.659460920959375	7.653819036
O	7.512993223046874	-6.678367410959375	4.740274156
O	5.550090243046875	-5.057022660959374	2.0940589960000002
O	6.6603655630468745	-1.3967966309593745	2.999563526
O	10.104465013046873	-2.3347387009593743	3.058430396
O	10.181276413046874	-4.026473770959375	-0.3411691380000001
O	8.791171813046876	-0.8345186309593745	-1.886213744
O	10.645365013046874	1.8183452790406256	-0.06654620700000002
O	13.690450813046876	0.7256310080406254	1.881692826
O	11.383970213046876	-8.760029740959375	-5.087845654
O	15.589791413046875	1.2926864890406256	7.3626966760000006
O	10.466842113046873	3.5731065890406257	9.773185136
O	2.4728270530468746	1.0958428790406256	12.645220336
O	-0.13772587695312533	-1.6494248109593745	13.086791836
O	5.483188443046875	-12.859184600959374	-3.654771694
O	8.892358013046874	-14.146997700959375	-2.375572954
O	1.6607951230468747	-9.867957700959375	4.089308236
O	-0.2662725469531253	-6.5437429109593745	4.574109506
O	-3.481858136953125	-7.121648390959375	2.647351426
O	-3.339653056953125	-10.922506800959374	2.259158036
O	-5.8764581669531255	-12.126503000959374	4.841289306
O	-8.536631426953125	-10.357552600959375	2.723042196
