93

O	-1.1619718015178564	-7.599185274357143	2.653814932030357
O	-0.48554429651785647	-6.440356404357142	3.329082342030357
O	0.2059058314821436	-5.504646674357142	2.401558102030357
O	0.8953518414821435	-6.116343944357142	1.255770912030357
O	-0.024164308517856448	-6.974399114357142	0.4745222020303571
O	-1.3213925725178564	-7.120665184357142	1.251148232030357
O	2.0709807414821437	-5.945359324357142	0.7013396360303571
O	2.7959991314821435	-7.249887364357142	0.35632351303035714
O	1.9097943514821434	-8.424232294357143	0.35566764203035706
O	0.6247030114821437	-7.955515414357142	-0.016018194969642907
O	2.076476551482144	-9.500715264357144	1.050940312030357
O	-0.5707432595178564	-4.445956604357142	1.865415102030357
O	-1.8945901755178565	-4.577186354357142	2.3333333520303574
O	-2.840390698517856	-4.128373764357142	1.297825812030357
O	-2.4558163785178566	-4.405889144357142	-0.11889751067964291
O	-1.0617421515178564	-3.9020938743571425	-0.3011761839696429
O	-0.9857362995178565	-2.4670960343571426	0.0366953910303571
O	-2.3436689745178563	-1.9892910943571427	0.4700681730303571
O	-2.2711244035178564	-0.47664265435714237	0.2624141640303571
O	-0.9190376495178564	-0.15782826635714253	0.8065847610303571
O	-1.1704315645178565	-0.6857099143571425	2.247399782030357
O	-1.2131292815178565	0.6971909971428575	2.9312204420303574
O	-2.134543273517856	1.5183996226428575	2.1480976420303572
O	-1.8643956795178565	2.9030575656428574	2.137117152030357
O	-2.1433059425178564	3.5777422956428575	3.353175792030357
O	-2.1049588665178565	4.974313315642858	3.4218844020303574
O	-2.1965323975178563	5.690625615642858	2.259652222030357
O	-2.1150981365178563	5.076598165642858	1.082262152030357
O	-2.2203782095178566	3.7166489656428574	1.062542482030357
O	-1.7940657615178563	2.9029574856428573	4.479278552030356
O	-0.8670489195178565	3.5434501256428574	5.311641942030357
O	-0.49409935851785647	4.876311885642858	5.156204872030357
O	-1.3510463769178565	5.630836005642858	4.404531672030357
O	-1.1213371615178565	5.747056235642858	0.09849266203035709
O	-0.04283757851785652	4.726290735642857	-0.025445001469642917
O	-0.4388966235178564	3.3373572556428575	-0.4359365069696429
O	-1.8719243325178565	3.0888845656428576	-0.2040239498696429
O	-10.105934418517856	-4.222804454357142	-0.15042707466964292
O	-10.157499958517857	-2.5825861243571424	3.2951002320303573
O	-7.0435764385178565	-1.7191309243571427	5.358746242030357
O	-7.163564738517856	-3.5472060343571425	8.763710322030358
O	-3.4305201385178563	-3.4539372543571427	9.531239342030357
O	-3.937652658517856	-1.1917164243571423	12.543673422030357
O	-7.571020118517856	-1.5713021243571426	13.789219722030357
O	-4.9971638385178565	4.109708085642858	8.485741962030357
O	-8.712523388517857	4.183428565642858	8.713456712030357
O	-8.186309068517856	6.128774585642858	3.8294900220303574
O	-10.790191208517856	3.3662012156428576	4.161643402030357
O	-14.272534528517856	3.678692725642857	2.6689369420303573
O	-5.378824848517857	4.004403885642858	-4.489511617969643
O	-3.1235670585178568	1.7472032786428575	-6.670966867969643
O	-6.183019748517856	1.0070346366428575	-8.776812827969643
O	-7.339644768517856	-1.3409158443571427	-6.0464864379696435
O	-8.953834338517856	1.0611672456428576	-3.593759537969643
O	-10.180591088517856	4.637269695642858	-3.122127167969643
O	-11.213901658517857	-0.4106988543571425	-8.762379187969643
O	-9.860416958517856	-3.899257014357143	-8.279328767969643
O	2.855646191482144	-0.6950064343571424	-11.259058677969643
O	0.37361933148214366	1.2872382766428574	-13.418268577969643
O	-7.549683688517856	-10.506938964357143	-5.294144117969643
O	-3.9383675485178564	-10.499551064357144	-4.222298117969643
O	6.745488921482144	-7.914497614357143	-4.200720017969643
O	5.700552821482144	-4.654832484357142	-2.675285207969643
O	4.207260251482144	-1.7338382843571427	-4.694438667969643
O	2.534700311482143	-4.123989034357142	-7.232048917969643
O	-1.2553738215178565	-4.372415224357142	-7.662430437969643
O	-3.350847228517856	-7.072001124357143	-9.244098927969643
O	-5.836899358517856	-5.306476904357142	-11.480415977969644
O	-4.569738088517856	-2.2645802343571426	-13.323661277969643
O	8.419722621482144	4.417422095642857	-0.3449775289696429
O	8.085770851482144	4.3866102156428575	3.4702964520303574
O	4.530055001482144	3.4195693456428575	3.290517962030357
O	5.125016561482144	0.2619561296428575	1.280208182030357
O	8.028934691482144	-0.8061486643571424	3.379616602030357
O	6.115420151482144	-0.4365586843571424	6.678668972030357
O	3.322538271482144	-2.5633880943571428	5.270566442030357
O	5.439699501482144	-5.169833094357142	3.5569829620303572
O	9.190740071482145	-5.4156749943571425	4.186249332030357
O	9.961050671482143	-2.1397173543571424	9.501191942030356
O	7.452193051482144	-1.4148116043571424	12.282978022030356
O	5.043762021482144	1.2177852206428574	13.232880922030358
O	15.379498471482142	-8.899055524357143	1.540976822030357
O	13.906848871482143	-5.480583064357142	0.8621027920303571
O	10.776603471482144	-7.2445269143571425	-2.791219317969643
O	11.322508571482144	-3.7958939543571426	-4.409057167969643
O	8.187560201482144	3.3786792856428574	-8.425051457969642
O	7.397854661482144	7.1017820556428575	-8.381108087969643
O	6.6479411414821445	7.5725273356428575	13.230436522030356
O	4.703103101482144	10.045356815642856	3.0923866020303574
O	3.1136636414821437	9.058783565642857	-0.22490436696964292
O	-0.40355854851785633	10.645305435642857	0.1086279650303571
O	0.37302950148214364	13.363107235642858	2.6672374320303573
O	0.5659763214821434	16.369867435642856	0.4021020920303571
