79

O	1.5075262942655736	1.4678540488360656	-0.9427121407213112
O	2.5185969142655735	0.6080444588360655	-1.5406304817213112
O	3.5990021142655735	0.22306990983606556	-0.5404247287213112
O	3.823960604265574	-1.2536995801639343	-0.8898315757213111
O	2.428361604265574	-1.8452953201639346	-0.6745249957213112
O	1.9399647742655737	-1.2734438201639344	0.6256876802786888
O	0.46582633426557374	-1.0907236201639345	0.7201443662786888
O	-0.1086256357344263	0.03401354983606564	1.4166157082786888
O	-1.0547260417344262	1.0826393139360655	1.0243337682786888
O	-0.7400197147344263	2.4976769298360653	1.2004975482786888
O	-0.7934673077344263	3.5924152698360654	0.18087960927868882
O	-2.1895157057344266	3.6634693798360654	-0.1573556473213112
O	0.3364936642655738	0.9991935878360656	-1.5834891817213113
O	2.083782024265574	1.9578278888360656	0.19208203027868884
O	1.0876817442655735	2.6650247898360657	-1.5901000417213114
O	-2.2671594657344265	4.0251204498360655	-1.5144405417213112
O	-2.5530298657344264	2.2934448798360654	-0.3517664117213112
O	-3.0653136557344265	4.520661259836066	0.5485699442786889
O	-4.811715245734426	5.870422699836065	-7.8292961317213114
O	-1.4727768437344264	7.741511539836066	-7.345686491721311
O	0.015675332265573716	8.350677489836066	-3.859026961721311
O	0.48541119426557366	11.948266379836067	-2.843523291721311
O	0.3585728242655737	11.489301679836064	0.9654956582786888
O	4.075235294265574	12.476372979836064	1.2399479782786886
O	5.061746204265574	14.617621579836065	-1.8343838617213113
O	9.484910884265574	5.961165739836066	0.8223180182786888
O	6.213567184265574	6.480818099836066	-0.8699491587213112
O	7.015782554265574	7.635570399836066	-4.424449751721311
O	9.142520384265573	4.509912459836066	-5.103747051721311
O	5.922193904265574	2.666628549836066	-5.567727011721311
O	4.028316994265574	5.166281099836065	-7.819617961721311
O	3.7941595842655733	4.500252029836066	-11.54496079172131
O	7.1876664742655745	5.546963289836065	-13.00418489172131
O	0.8860338042655738	-6.319572980163935	-5.376153471721311
O	-0.9990160459344263	-3.1902497401639343	-4.486240031721311
O	-4.349129305734426	-4.258538150163934	-2.918701831721311
O	-5.746137785734426	-4.829750510163935	-6.407176391721311
O	-6.046156905734426	-1.0427928201639345	-6.736059861721311
O	-2.4934486457344263	-0.19103820016393436	-7.8510481617213115
O	0.8716830942655738	-1.5382790801639343	-8.874267711721311
O	3.385586114265574	-1.4957066201639346	-11.744570091721311
O	8.363827104265575	-1.3155021901639343	-13.909748491721311
O	9.289248684265575	-0.26694130016393447	-10.35604669172131
O	-6.322564925734426	-2.8774923001639348	-11.20980399172131
O	-9.117957945734426	-0.8199213001639345	-9.67972386172131
O	0.4078009642655738	-8.667128440163935	-1.2017108957213112
O	-2.4490587257344263	-8.842751790163934	-3.737740581721311
O	2.532214234265574	-11.468687220163936	2.642303248278689
O	-0.7243813657344262	-12.496539120163934	0.9508905282786889
O	-7.438316085734426	-12.898627620163936	2.967032338278689
O	-8.848656005734426	-10.174471020163935	-1.3128275317213112
O	-13.129145415734426	4.831600089836066	-6.297458061721311
O	-12.763894815734426	4.921783719836066	-2.496581061721311
O	-8.510484915734427	0.32207216583606557	6.894527148278689
O	-7.135224005734426	-2.6217751201639343	4.909689218278689
O	-10.165912935734426	-2.7691919101639346	2.564342398278689
O	-10.197260495734426	-2.0608563201639343	-1.1962643657213112
O	2.5319043542655737	-6.0075163001639345	8.27768732827869
O	0.11458372426557362	-3.5794894301639344	9.93076350827869
O	2.1944338842655737	-0.3885510001639345	10.47421020827869
O	1.7733686042655736	0.9263479218360655	7.033231118278689
O	-2.120168695734426	0.7962921348360655	7.337079878278689
O	-2.2384868457344265	2.5532270798360654	10.52992950827869
O	0.09576667426557361	5.374427759836066	9.41081816827869
O	-2.1393755757344266	6.086482059836065	6.442489478278689
O	-5.5651800757344265	5.6936085998360655	7.9698898182786895
O	-5.859561405734426	5.581500629836065	11.750387108278689
O	-8.192316365734428	1.9017138568360656	15.660134908278689
O	-9.381628055734426	-2.7743091601639343	11.86115680827869
O	-5.248519045734426	-9.320692520163934	7.477910998278689
O	-2.0851672557344263	-11.212278020163936	6.609105898278689
O	10.359097084265574	5.259289969836066	7.304440178278689
O	10.269986684265573	5.900259309836065	11.09324350827869
O	6.958849944265574	-2.9649812901639345	6.725399818278689
O	4.455678314265573	-4.530661630163935	4.353581698278689
O	6.406620004265574	-4.692871370163934	1.0817164682786888
O	9.946541084265574	-4.276665570163934	2.388008758278689
O	11.163160084265574	-7.8598647401639345	1.9850885282786888
O	10.759498484265574	-7.356676530163935	-1.8141437817213113
