85

O	1.4999123586029413	0.28851629286911684	-3.8031576182794113
O	0.1870433786029414	2.001355522869117	-4.3228994382794115
O	-0.5423801733970586	-0.07921911613088317	-4.050404838279412
O	-1.8465641783970586	1.8653659228691168	-1.7697150032794116
O	-2.4206893913970586	1.8676096728691167	0.2130220917205885
O	-2.0555782613970583	0.9767437508691168	-0.6185904872794115
O	-2.4094147813970586	0.07169252786911684	-1.4711991902794113
O	0.3927528786029414	1.0897885058691168	-2.0961329382794114
O	0.32539467860294147	0.8747649485691168	-3.4431430582794116
O	-0.1491675513970585	0.27036023886911675	-1.0941674602794114
O	-0.7666343143970585	0.5654093868691168	0.06140708172058851
O	0.054833208602941386	1.4451895608691168	0.7641573317205885
O	1.2070956086029412	1.9937207728691169	0.11613758172058852
O	1.2638492086029411	1.3074028128691169	-1.1127391912794113
O	-1.1234185953970586	2.866239912869117	-1.5720100212794113
O	-3.1198301213970585	2.4445856228691167	-1.8505057992794114
O	-2.2598137313970588	1.7737266938691167	-3.0259623682794112
O	-12.256260381397059	1.1796593798691168	-7.172187688279411
O	-10.390331301397058	4.474286692869117	-7.6012430982794115
O	-4.471013961397058	6.123190432869117	-11.214630858279412
O	-6.363338121397058	3.647627892869117	-13.405258358279411
O	-3.895693091397059	0.2719365568691168	-10.286823688279412
O	-7.631549581397058	-0.5220019771308833	-10.713841748279412
O	2.1431778186029415	-10.531563817130884	-3.1173448082794115
O	0.3723387386029414	-7.374031057130883	-4.304711738279411
O	-0.2138609633970585	-4.500425287130883	-1.9824473682794115
O	-3.190431271397059	-2.429714317130883	-1.6524599352794114
O	-3.5298882113970587	-1.590030367130883	2.1832766817205886
O	-5.441480961397058	-4.8703444671308835	2.5735503517205887
O	-8.490493571397058	-3.1636311171308833	0.8986585317205886
O	-7.563608621397059	-3.4790208071308832	-2.8383844182794116
O	-5.143218281397059	-5.022179077130883	-5.325433908279412
O	-4.949335821397058	-7.397312117130883	-8.313535538279412
O	-2.3548740413970584	-9.866398117130885	-9.565833438279412
O	-3.1855914013970588	-8.954082887130884	-13.171555458279412
O	-1.9353080783970587	-5.364872027130883	-13.348425458279412
O	-4.058639381397058	-13.372558817130884	-5.019478038279412
O	-9.130162441397058	-7.895124377130883	0.6226468117205886
O	-10.311068611397058	-9.281126617130884	7.049742501720589
O	-6.799820031397058	-13.043562517130884	3.5088384817205887
O	5.547220498602941	-7.743023257130884	-2.0730062282794117
O	4.9622424086029415	-4.042175147130883	-1.8055540312794114
O	2.9477354786029415	-2.016233747130883	0.7000681617205886
O	0.4512082986029414	-4.341571407130883	2.427756541720589
O	2.1578164686029413	-6.983925037130883	0.3267664717205885
O	5.390001308602942	-6.067283167130883	2.0264999017205882
O	3.7360897786029414	-6.061373627130883	5.445334301720588
O	2.2951554086029415	-9.518750317130884	4.501884811720588
O	9.060214818602942	-3.097318737130883	-0.4291552772794114
O	7.828193658602942	-0.0856196711308832	1.4077286917205887
O	5.927199768602942	-2.054859927130883	4.055581501720589
O	6.621122998602941	-3.8388997871308828	7.322516361720588
O	4.4441899886029415	-6.034688337130883	9.621044141720589
O	3.3207020186029417	-0.5919974371308832	10.370354441720588
O	-1.9382239663970586	0.7666095967691168	9.535173141720588
O	-1.1707122343970586	-2.951615977130883	9.059159341720589
O	-14.733749481397059	3.581666032869117	4.909265361720588
O	-5.089163331397058	9.401925972869115	6.121736041720588
O	-3.0946218713970586	6.204364812869117	5.7184912717205885
O	-5.6272068913970585	4.111176272869117	7.769263211720588
O	-7.703034081397059	1.2279303498691168	6.326386481720588
O	-10.223140051397058	-4.209491337130883	7.4686470717205875
O	-6.698287041397058	-5.3846506871308835	8.180208741720588
O	6.244559908602942	7.615525812869117	0.4433585517205887
O	3.7256907186029413	10.150888342869116	1.7384913217205884
O	2.8586773386029414	12.262632382869118	-1.3242333462794114
O	0.2027819886029415	9.930713982869118	-2.6432411382794117
O	-1.8551026523970586	9.982561792869117	0.6190318817205887
O	-1.3122536083970586	12.115504182869117	9.854297041720589
O	3.4540389386029413	10.778580802869119	6.490909721720588
O	6.2722158986029415	8.714391552869117	4.973256281720588
O	5.523574708602942	7.632549702869117	10.436508241720588
O	3.8162958386029415	5.090997372869117	8.143082551720589
O	6.575883988602942	3.431584822869117	6.185252931720588
O	8.339593088602943	1.2612862468691168	11.147235841720589
O	10.522370418602941	-0.5187345371308831	8.55219792172059
O	2.1177138786029412	12.641007882869118	-11.694454758279411
O	5.014967848602942	14.179788582869115	-5.367202528279412
O	9.396664718602942	9.304376032869119	-5.8856402782794115
O	5.956960758602942	7.908555362869117	-5.138562028279412
O	4.813891038602942	5.037327512869116	-3.045854748279411
O	4.610011378602942	2.127981212869117	-5.556884548279411
O	6.721224138602942	3.4837011128691167	-8.290965528279411
O	9.780017818602941	1.287501815869117	-7.694335038279411
O	7.599719468602942	-1.7276385971308832	-8.73151661827941
