25

O	5.722666114166355	65.47904481833075	67.2878702728114
O	5.408448083053516	65.7237538119249	68.69434049071015
O	4.997098538106659	66.54692654646578	66.65688346612154
O	5.5352595651023595	67.7921825620595	67.02810967001072
O	5.4321290204883	68.90587339843471	66.09665143480365
O	4.65820529238588	64.60718968958334	69.05515699479183
O	4.745166072384592	68.5322984714804	65.04738952668663
O	4.616076390258183	67.19489824187902	64.52303472868817
O	4.667007342345111	66.18623412671151	65.36534404786687
O	4.306367739951066	63.27788711237291	69.10894824381289
O	4.4142489314729465	64.7973724000446	65.09549910875552
O	4.510435939633581	63.90577730788173	65.96010135679329
O	3.8000001095183618	62.77395535526218	66.35577336284396
O	3.1196968527227984	63.059280690502476	69.932755187532
O	2.5777356113049588	64.36070172371863	70.3764779626022
O	2.8156775533606506	65.58538290559605	69.76491698960044
O	2.4626458107669977	66.1210811001831	68.5631147351545
O	2.720153585329207	67.53321586846373	68.64788338148772
O	2.3941810354396815	68.34299837133163	67.49124581943532
O	2.0131610879930135	67.53018871388016	66.55592524203374
O	1.665366313653112	66.16748679825457	66.52665009422928
O	2.078769755436644	65.34275282691088	67.45984827962333
O	1.4170355262720804	64.09994781901372	67.8433915178433
O	0.5529099815281588	63.834001782831464	68.70470772950502
O	0.12217369914974174	62.662602841180224	69.25139715703195
