32

O	6.26192183813852	67.61600385813148	68.56865203288639
O	6.565744673115146	67.60531107668784	67.18150619809687
O	6.15689978090656	71.81827773547093	66.9107518719992
O	5.11919770652575	67.1487126566755	69.11269018070318
O	5.2680674997918455	70.72498824488825	66.95261606804848
O	2.550931449319769	65.06260929999102	66.88854919212481
O	7.304041172479901	70.89115390747537	65.39356527538288
O	4.1472134480710405	67.64013571274847	62.06513625781263
O	4.313310151698772	66.66828905036257	63.29624657610586
O	1.5984465786176072	68.50805133886816	67.53578237254874
O	2.973888795237794	69.03744890449404	67.55052211079911
O	5.337143293893117	68.54976299756868	62.110410657870986
O	3.3890424716441965	67.42208462845927	64.17631788001167
O	6.85162225290761	72.12953481579507	65.71911476494124
O	5.889279627243253	66.86981493152292	66.29339215119143
O	5.405368110355326	68.63124823839071	63.618336709651786
O	2.0063032039408633	66.23456479186454	67.25335683852096
O	4.1434654175158485	68.73097711726847	64.239769043345
O	4.1607758012228535	69.28068416380886	65.46289560812005
O	6.446215380968755	69.0863206865471	64.17763309834113
O	1.3968303392787007	67.3870899019114	66.69106194278619
O	3.1060175152193983	69.02608152852446	66.22799110469167
O	4.525698856802056	64.48191221058975	65.63407149209966
O	2.431528665728952	67.21592471873385	69.38577801794155
O	6.473612732451873	66.10032259640947	65.3181310653985
O	3.860338586450712	65.4279780685428	66.21044971195819
O	2.803829801828934	66.50665331029614	68.4605896421153
O	6.2993998814899115	69.9852264269621	65.12336399070342
O	5.0907238265802155	70.1652961451561	65.72033869176511
O	4.220548656426463	66.70143777207215	68.12619034417392
O	4.769006383969515	66.29096557671872	66.90456818628711
O	7.069838846729872	73.70936791362637	65.10196306211687
