55

O	0.155162342809524	3.1746178136190477	6.779945266357143
O	0.212288869809524	2.0044862736190474	7.530451336357143
O	0.5488462318095241	2.8238689636190477	5.373076896357143
O	0.04825501480952399	1.5300652936190475	5.146977636357144
O	1.0497750218095239	0.8435247976190475	4.488206286357143
O	0.08330271980952397	2.224336223619048	2.825824616357143
O	1.253206461809524	1.5688713236190475	3.162587806357143
O	0.521821601809524	0.4789368956190475	1.1873970733571433
O	-0.932296282190476	1.2780212076190476	2.8154886263571433
O	0.504687421809524	-3.0126389663809525	1.106831968357143
O	-0.852140626190476	0.5949178066190475	1.4521029223571431
O	0.8900288618095239	-0.7945564663809526	1.5740993318121432
O	0.3245879218095239	-1.7542385063809527	0.5651173463571431
O	-13.673979308190477	1.6554434936190476	0.040959396357143074
O	-9.932988918190476	1.0109696216190476	0.4180408163571432
O	-6.701274618190476	1.1574345766190475	2.450850047357143
O	-6.578286078190476	-1.9601686863809524	4.636969836357143
O	-3.450768658190476	-3.901128736380952	5.454370946357143
O	-2.592388458190476	-4.033323136380952	9.140609546357144
O	1.165595041809524	-4.624099406380953	8.816098536357144
O	0.8153035818095239	-8.188901146380951	10.246466566357142
O	-6.030643488190476	-9.982086396380952	0.5829961003571431
O	-8.017500618190475	-7.558727326380952	2.7727412663571434
O	-11.701019108190476	-6.855181616380953	2.1424990303571434
O	-4.227489978190476	-4.316259226380952	-6.092913293642857
O	-2.121700538190476	-1.4371147763809524	-7.493141163642857
O	-5.506869478190477	1.2772011446190477	-4.490719053642857
O	-7.0796213981904765	-1.9558864663809525	-3.2129634736428567
O	-7.939317638190476	4.749840153619047	-4.725238623642857
O	-9.114163968190477	8.329016193619047	-5.094050033642857
O	3.2891922018095237	2.4982792236190474	-11.747152533642858
O	-7.907283308190476	6.874537923619048	2.649224826357143
O	-6.131751128190476	8.240202303619048	5.751238916357143
O	-3.9819238981904763	10.691703103619048	3.749554616357143
O	-3.9327026581904763	8.892859553619047	0.36720946635714324
O	-0.23562287919047603	8.027451033619048	0.4913700863571431
O	0.864683531809524	11.548802503619047	1.3674607953571432
O	10.175436791809524	8.409593013619048	-1.3690859036428569
O	9.497844291809525	5.175781423619048	-3.2179945836428567
O	8.210290421809525	1.6148199136190475	-3.2828188336428568
O	5.9063629218095235	0.1550508796190475	-5.930625913642857
O	4.256374061809524	3.5607769436190475	-6.667767253642857
O	0.562930671809524	4.226281473619048	-5.920120303642857
O	-1.256330142190476	7.5534459836190475	-5.611446133642857
O	-4.366424568190476	7.270228663619047	-7.775555803642858
O	6.539377081809524	-8.288952636380952	-1.4322988736428568
O	7.459645371809524	-4.602954896380952	-1.984331943642857
O	9.371374391809525	-6.528865406380952	2.786663476357143
O	6.8177574318095235	-3.7684219963809524	3.182370996357143
O	8.896391841809525	-0.7402583863809524	2.3797392823571433
O	12.675873491809524	-1.0768480463809524	2.2782465953571434
O	15.017932591809524	-0.9520304263809525	5.294688426357143
O	11.771334691809525	-8.413019116380951	7.7826148063571425
O	9.105213311809523	-11.062495896380952	7.778572176357143
O	0.08113711080952402	-12.672995396380951	-6.513332833642856
