12

O	3.4163050397594925	67.59665254443149	65.64214493089614
O	5.002607111218781	66.81944518057414	63.52239089022658
O	3.14163964271913	65.42210109779201	64.85343603394712
O	3.112566144332367	65.02179247546772	66.1507424959842
O	3.3664277092540154	63.66164890380298	66.37253501272848
O	3.7274772144163277	65.81767995824397	67.06909297913192
O	3.3527509964821767	67.1546818196142	66.95186007611903
O	5.501700662996882	66.63459418780334	62.245355076231654
O	5.287631110193862	65.48599054064859	64.10848204170426
O	3.6220466158776192	67.01941654721358	63.27843310924234
O	3.199419701229509	68.48254919706858	63.220026788535705
O	3.0178927098699395	66.74978718439253	64.65142935918708
