99

O	-1.9851351553442624	2.767925396632786	2.474872117547541
O	-1.9193816663442624	3.4289913366327864	3.6064289875475413
O	-0.6922982383442624	3.0322184966327863	4.370906197547542
O	0.34631603265573774	3.1899241366327864	3.3061134175475413
O	0.9993215726557376	1.3377333036327863	1.7042908375475414
O	0.7666844326557376	-0.14179645536721364	-0.33275831745245876
O	-0.0762218473442624	-0.6513660433672137	-1.341645802452459
O	-1.3782544869442623	-0.6524418633672135	-1.0529351814524588
O	-3.0694408873442622	-0.5486082483672137	0.5342384505475413
O	-3.1849798473442625	-0.6409385033672137	1.884328037547541
O	-3.3601666873442624	0.6776161106327864	2.3724945975475413
O	-2.1954870983442625	0.9478297456327863	3.176124877547541
O	0.3035277426557377	0.7848692506327863	0.6150714895475412
O	-1.0795890933442625	0.9255254266327864	0.8850375775475413
O	-1.7715794983442623	-0.08192291536721363	0.16642795354754125
O	2.3720391126557376	-1.7080910533672138	-1.0309966834524587
O	1.7309536926557376	-1.0891196033672137	0.014457859547541224
O	-0.5435153423442624	1.6436586566327864	4.603340567547542
O	-2.9635629873442624	-1.5111694333672137	2.885894997547541
O	-1.8726444933442623	-1.1419939833672137	3.785612057547541
O	-0.5898206343442624	-1.1847836633672137	2.945401907547541
O	-0.6999266033442624	-2.0529281933672134	1.9133989575475412
O	-1.8183129453442624	-2.9630174933672135	1.6170868175475412
O	-0.6212053743442624	-3.4000107833672137	0.7620446275475412
O	-0.8243743943442624	-3.4955538533672135	-0.6260372104524587
O	-2.1209820213442625	-3.638386643367214	-1.1510761184524587
O	-2.1228459273442626	-4.968401423367213	-1.8319440524524588
O	-3.3330519773442626	-5.701673433367214	-1.7802785324524586
O	-3.5277559773442624	-6.117745543367214	-3.139741382452459
O	-2.452350094344262	-6.598245673367213	-3.891901292452459
O	-1.2294407443442623	-5.940683573367213	-3.7025224424524588
O	-1.2166662823442624	-4.881608043367214	-2.830901222452459
O	0.007945862655737601	-3.852963693367214	-1.9442194824524588
O	-3.047710937344262	-3.1198523933672138	-0.5056880584524588
O	1.0723703226557375	-4.843738633367213	-1.6750640324524588
O	0.37943059265573753	-3.1067756233672137	-3.139868252452459
O	0.14289755265573767	2.0666807166327863	2.407405787547541
O	-1.2105246993442624	1.5651625066327863	2.2409873875475412
O	-7.214441617344262	3.4233404966327865	-8.357999662452459
O	-7.362963827344263	0.018899170632786344	-6.722089332452459
O	-10.036539647344263	0.20807433163278635	-3.974190492452459
O	-9.631689207344262	-1.7018325033672137	-0.6666932894524588
O	-12.461303497344263	-4.192283533367213	0.06681005454754124
O	-10.575109737344263	-6.516967513367213	2.520644027547541
O	-12.787866797344263	-5.467091323367214	5.428877597547541
O	-16.15540539734426	-4.208346993367213	3.983918117547541
O	-9.567571277344262	0.43153178003278636	6.0454554775475415
O	-12.264799697344262	2.4605752666327865	4.290772257547542
O	-8.185672627344262	5.468712296632786	3.0542915375475412
O	-10.477796427344263	4.717336486632787	0.04611647454754125
O	-11.455579197344262	7.387924106632786	-2.471565192452459
O	1.1406690826557377	8.548438556632785	-0.12597322685245876
O	-0.2246012373442623	5.335339356632787	-1.2670260824524586
O	2.737621642655738	3.286147926632786	-2.896078212452459
O	2.229222892655738	5.079962616632786	-6.089687572452458
O	-0.8568776963442624	2.7971861266327864	-6.565355742452458
O	-3.512000577344262	4.808243606632786	-4.660212932452459
O	-4.257092357344263	7.950174756632787	-2.674375002452459
O	-6.584644737344263	10.952712176632787	-2.543560132452459
O	-1.2034721423442623	6.609193176632786	-9.632497202452459
O	-1.0546451853442624	2.9981503866327865	-10.795757552452459
O	0.7321995926557374	7.631768586632786	-13.589280952452459
O	3.6752757626557373	5.275444166632786	-13.94226325245246
O	4.908335692655738	6.820543146632787	2.3572250275475413
O	5.244515652655737	7.250940316632786	-1.4758913624524586
O	7.879220812655737	6.959746126632787	6.639035287547541
O	9.372860902655738	7.088126436632786	3.123605547547541
O	13.382814602655737	2.8197876266327864	-0.7849458804524587
O	9.873537502655736	-0.3041684563672137	-3.603407932452459
O	9.961006902655738	3.3189455366327865	-4.7725257424524585
O	-2.4627989373442625	-4.354725903367214	-12.189289352452459
O	-1.0007120273442625	-6.6949093933672135	-9.559484882452459
O	6.113534342655738	-10.497317323367215	-2.4369471424524587
O	4.8009417826557375	-7.985800633367214	0.028586735547541237
O	5.9588282726557384	-4.390661113367214	0.054911014547541215
O	6.313748082655737	-4.231202183367214	-3.8501769824524588
O	4.040566652655738	-2.1466967133672137	-6.161641222452459
O	3.5595761526557372	-2.5430655533672137	-9.899901162452458
O	3.8296375326557377	0.9532774526327864	-11.322834352452459
O	6.354832762655738	3.2381327866327863	-9.693888322452459
O	5.595762012655738	-3.5547733533672137	8.78690039754754
O	2.4551749726557377	-4.861807323367213	10.60928954754754
O	-0.009493357344262376	-3.5731466333672137	7.985435057547542
O	1.9024454426557376	-5.566053603367214	5.226997787547542
O	1.9508898226557378	-8.742379803367214	7.044268677547541
O	-1.7704298223442625	-8.568365863367214	7.985347377547542
O	-2.7542440473442626	-8.276185913367215	4.436957557547542
O	-0.2662591073442624	-10.543556123367214	2.7148746675475413
O	1.5437702526557375	-13.032786823367214	4.771052517547542
O	7.122430392655737	-14.529722823367214	5.640136137547541
O	7.6959468426557365	-12.648169623367215	0.9138051575475413
O	9.758876902655738	-9.880601723367214	2.6522882175475413
O	11.544345702655738	-1.1755036733672137	3.541762307547541
O	0.9084100726557378	1.3274330266327863	12.009385347547541
O	2.2361625026557377	2.5889899666327865	8.662482277547541
O	0.051337412655737547	5.588976536632787	8.01210673754754
O	-1.1055561143442625	6.313511106632786	11.59863424754754
O	1.0853180826557378	9.263342806632785	12.60944614754754
O	-0.7202507353442623	11.267214176632786	9.88412084754754
