88

O	-1.4040864154516128	-0.663524899419355	-1.7679741910158067
O	-1.557639740451613	0.46274441658064497	-0.8288910500158067
O	-1.249393381451613	0.306779562580645	0.5619413669841933
O	0.01298796354838716	0.919694722180645	0.9457092769841935
O	0.8084292695483871	1.193462141580645	-0.37102979601580666
O	0.5100645495483872	0.07878234358064495	-1.2448661089158066
O	0.31406279954838723	-0.614838169419355	-3.5572544730158064
O	1.7513387195483872	-0.683925909419355	-3.6508146230158065
O	1.8308906495483872	-1.3556367294193552	-2.4080331630158067
O	1.107777429548387	-1.6958557094193552	-1.2456536312158066
O	2.177053009548387	-1.0727186294193551	-0.32875825201580666
O	-3.063177510451613	0.781635952580645	-0.8985539460158066
O	-3.745294780451613	-0.5344137094193551	-0.5421157510158067
O	-0.9591012854516129	1.584340650580645	-1.6537788770158066
O	-1.2521124964516128	1.608994004580645	-3.0239716130158065
O	0.404418229548387	1.8199797195806449	-1.8003556630158066
O	-0.5262759324516129	2.466724570580645	-3.9102785330158065
O	1.3696946995483872	2.3610463105806447	-2.6322308630158067
O	0.8900450195483872	2.371522880580645	-3.919428603015807
O	3.039562599548387	0.0011975385806449745	-0.8924612980158066
O	3.6439553995483873	-0.12302929941935514	-2.1731450360158067
O	5.059421469548387	0.2184972795806449	-2.465358523015807
O	5.095018579548387	0.44056716358064496	-3.9341680130158068
O	-0.18488322445161287	-0.3023046094193551	-2.3520776530158063
O	6.228869669548387	0.14451154558064494	-4.704084073015807
O	2.740292069548387	2.4726929605806447	-2.593746843015807
O	5.838880029548387	-7.803568099419355	-5.083588413015806
O	2.807770699548387	-7.152808409419356	-7.410175053015807
O	1.6500738995483868	-3.663035869419355	-8.435344253015806
O	1.7793605595483868	-2.779530779419355	-12.081534433015806
O	2.015539909548387	1.035614740580645	-11.739579133015805
O	-1.4606468594516129	1.3919926325806449	-13.465952433015806
O	-2.271219270451613	-1.781083189419355	-15.493775833015805
O	-7.826001850451613	1.648014030580645	-7.739280333015807
O	-4.631230910451613	-0.23040533941935504	-7.690105593015807
O	-5.388755410451613	-3.7764035694193554	-8.714497373015806
O	-7.967805500451613	-4.174576359419355	-5.914552493015806
O	-5.052756670451613	-4.621081159419355	-3.5868777230158067
O	-3.009130340451613	-7.126379439419354	-5.628675733015807
O	-3.141371500451613	-10.842212809419355	-4.829530703015807
O	-6.401196580451613	-12.158395109419356	-6.327767393015807
O	-3.928593460451613	-7.152233839419354	6.714940356984193
O	-1.543380947451613	-4.287848099419355	6.007814666984193
O	0.8915609995483872	-3.834050989419355	3.3256249469841928
O	4.169691439548387	-2.365874139419355	4.846018506984193
O	5.192813629548387	-5.847833709419355	5.665277316984193
O	6.078404989548387	-6.483178709419355	2.024640226984193
O	2.567878739548387	-7.314144179419355	0.6046306669841934
O	-1.020580335451613	-8.003701049419355	1.4275856569841936
O	-3.638787830451613	-10.802482309419355	1.1497316269841933
O	-8.648401480451612	-12.663236309419355	0.2811323369841934
O	-9.200355600451614	-9.137817109419355	-1.0447905450158066
O	-11.593684700451613	-7.7245678794193555	3.384030116984193
O	5.716577599548387	-10.761857309419355	3.999962276984193
O	8.929267719548386	-9.553536709419355	2.353474596984193
O	-4.574926410451613	-1.4816170494193552	9.162166366984193
O	-1.140691564451613	-0.04282875741935499	8.198450546984194
O	1.490384669548387	-2.704892299419355	8.947860166984194
O	-3.431529420451613	4.062483440580645	10.516447266984194
O	-0.4541031794516129	2.261408770580645	12.063659866984194
O	6.249134719548387	3.961475520580645	13.291771166984194
O	7.790160129548386	-0.5140943094193551	11.057565266984193
O	14.008675999548387	-6.727022329419355	-2.7723155730158067
O	14.002597999548387	-2.915198139419355	-3.035954833015807
O	9.414380999548387	7.009888410580645	0.19206776698419348
O	7.449194249548388	5.218687290580645	2.9033746869841934
O	10.358420799548387	2.826185610580645	3.705392206984193
O	10.327721999548388	-0.9733329994193551	3.2482622769841933
O	-2.314906770451613	9.413610520580646	4.838680946984193
O	0.5326554895483872	10.816784180580646	2.7456225869841937
O	-1.0385969234516128	11.383104490580646	-0.7286065490158067
O	-0.6527806354516129	7.868789010580645	-1.8535378280158066
O	3.182270579548387	7.899244030580645	-1.1863036220358065
O	3.814277549548387	11.048476290580645	-3.010106553015807
O	1.8781497695483869	10.032669330580646	-6.161294773015807
O	3.960227229548387	6.789170590580645	-6.435507433015807
O	7.357592789548386	7.975398700580645	-5.5124526530158064
O	10.029628799548387	15.687598890580645	-1.7336837840158066
O	4.882311949548387	8.322791380580645	9.210786466984194
O	1.431508649548387	7.721505360580645	10.650613566984195
O	-8.449255820451613	8.239359760580644	-7.479100053015807
O	-8.142854300451612	12.013374790580645	-8.244859773015806
O	-6.310219570451613	7.905016500580645	1.2357768569841936
O	-4.198910700451613	5.487375810580645	3.2579312069841935
O	-6.349205770451613	2.2930965005806447	3.3660629669841935
O	-9.551594370451612	3.708849950580645	2.148307526984193
O	-11.348702400451613	3.601402650580645	5.517963116984193
O	-11.114937500451614	-0.22254082941935494	5.2961247369841935
