92

O	-0.5474379336666667	2.212363146162963	-3.2715121309259256
O	-1.4939140836666667	3.134576786162963	-2.7793559609259257
O	-2.721643933666667	2.7181641261629625	-2.0790378609259257
O	-2.636594263666667	1.286833356162963	-1.9698091109259257
O	-1.6647366936666668	0.4170005881629629	-2.607857470925926
O	-1.535864253666667	-0.909177523837037	-1.9848574409259259
O	-2.505402053666667	-0.7935761938370371	-0.8482657599259258
O	-3.8517942836666665	-0.43029979183703704	-0.9683739049259257
O	-0.4997686736666668	2.3837304561629633	0.3347402240740743
O	0.32033263133333323	2.452706856162963	-0.7877561919259257
O	1.1134201013333334	1.462376216162963	-1.2429427089259257
O	1.4370268043333332	1.4570839661629629	-2.5771790109259256
O	1.8213653263333334	0.30005502176296295	-3.170213020925926
O	2.4718214463333332	0.44018336016296294	-4.5161560209259255
O	3.6512233763333333	1.2632948961629629	-4.154662210925926
O	-2.688690803666667	-0.19998551383703705	2.552764959074074
O	-3.571631223666667	0.14941834126296294	1.5891962790740743
O	-3.858644033666667	1.508954326162963	1.5479865490740743
O	-4.928740333666666	1.769472556162963	0.6986209290740741
O	-5.961529323666666	2.572647486162963	1.2321968490740742
O	-6.981026063666667	2.913344406162963	0.19002468207407425
O	-6.1809714436666665	3.6792957161629634	-0.7863853229259257
O	-0.5986891536666666	1.125980577162963	0.6871054290740743
O	0.26380109833333326	0.13805089486296293	0.4562526960740743
O	0.8317867923333333	2.414186506162963	-3.4095069209259257
O	-5.070245403666666	0.7428443851629629	-0.7124525009259257
O	1.1833699693333333	0.30056627636296296	-0.5649435409259257
O	2.6088215863333333	-0.4296455128370371	-2.2813042709259257
O	3.8994687163333333	-0.8485711438370371	-2.783314730925926
O	4.509347486333334	0.40697981616296297	-3.2965547709259257
O	-2.155420013666667	0.887309519162963	3.1803859290740744
O	-3.2047188036666667	1.6184462661629628	3.7974013390740744
O	-4.0227452936666666	2.1136641261629627	2.822475909074074
O	-5.499379613666666	3.635967206162963	1.9606339290740742
O	-5.330635323666667	4.9754844061629635	1.2057697990740743
O	-5.010088593666667	4.303046106162963	-0.1550246509259257
O	1.7514446563333332	-0.7112243098370371	-1.2731231189259258
O	-4.298276133666667	3.4422163061629627	2.5772586090740743
O	10.376088596333332	7.2840331361629636	9.208118429074075
O	2.300538636333333	5.482630366162963	8.380102479074075
O	-0.2593704966666668	6.234304226162963	5.998244699074074
O	0.8628722083333333	8.536257906162962	3.1141844890740744
O	-0.061886019666666736	8.268062756162964	-0.6271219729259256
O	-1.757837793666667	11.345170966162963	-2.222447810925926
O	-3.6214672836666666	9.615070556162964	-5.247145820925926
O	-1.466725423666667	11.401480866162963	-7.747579920925926
O	-0.26036993266666675	14.661673366162963	-6.033173710925926
O	3.934069596333333	7.682509626162963	-6.461202510925926
O	5.653725366333334	10.198001116162963	-4.145430230925926
O	7.537533586333334	5.8201697261629635	-2.0054696209259255
O	6.240855646333333	8.237347586162963	0.5805104080740744
O	8.148827496333332	8.947747586162963	3.7334007390740744
O	8.348607356333334	-3.705443293837037	2.0533019290740744
O	5.020494356333334	-1.9581596238370371	2.2755054890740745
O	2.3856609663333335	-4.7109937638370365	3.0991823590740744
O	3.355091636333333	-4.268204033837037	6.743167769074074
O	1.5009022583333334	-0.916855063837037	6.637631899074075
O	4.1653942163333335	1.479919306162963	5.278581269074074
O	7.642118816333333	1.811143456162963	4.134717869074074
O	10.808921746333333	3.748440166162963	4.868662089074074
O	4.175037806333333	-0.8189943438370371	10.540503329074076
O	0.35750878333333325	-0.5010239088370371	10.617399629074075
O	-1.3369216136666666	-0.861678713837037	13.957291029074074
O	7.109268936333334	-7.440147183837037	-0.7475170479259257
O	1.4189126893333333	-15.221830633837037	1.0611971290740743
O	-1.944429653666667	-11.247600133837038	2.770180919074074
O	1.0985013213333332	-11.799196133837038	5.041791949074074
O	-9.481875713666668	4.388672916162963	10.641361029074075
O	-6.880807963666666	1.724774606162963	9.733204229074076
O	-8.650389493666667	0.19532319136296294	6.744146079074074
O	-10.893177153666667	-6.775127433837037	-1.4981699309259258
O	-7.636743483666666	-5.813035913837036	-3.1563860309259257
O	-4.249352833666666	-6.890844813837037	-1.9177379609259257
O	-5.2983091736666665	-7.348143943837037	1.7577486090740742
O	-3.8268025636666665	-5.390912433837037	4.711359519074074
O	-5.187561373666666	-4.508941693837037	8.088813979074075
O	-2.335103113666667	-5.130628023837037	10.535717629074075
O	0.02382511333333326	-7.978254893837036	9.705554629074076
O	-0.5480872536666667	-1.7211580338370371	-9.262057630925925
O	-3.493241183666667	-3.166198753837037	-7.171622330925926
O	-5.834009133666666	-3.047207813837037	-10.010292300925926
O	-5.0168924236666665	0.623684294162963	-10.891536370925925
O	-5.805923113666666	1.6476350661629628	-7.482640590925926
O	-8.742427763666667	-0.681373973837037	-6.741184520925926
O	-10.548272553666667	-2.3309338538370374	-9.407053690925926
O	-8.611426903666667	1.016473335162963	-14.409120570925925
O	-3.677761983666667	6.0055027161629635	-14.800682770925924
O	-12.130805853666667	-8.272670103837036	-5.368800770925926
O	5.321812996333334	-4.5283416038370365	-8.117064220925926
O	8.497057356333332	-2.962961463837037	-6.703061840925926
O	10.222028516333333	-1.9011488838370372	-9.930688930925925
O	13.052323246333332	-4.458018373837037	-9.906392490925924
