84

O	-1.4975943025454541	-3.158703834469696	0.1498002962287881
O	-0.9511252145454541	-2.410629024469696	-0.841768348771212
O	-1.9401342605454541	-4.120353964469697	-0.4849101433712119
O	-0.8377260744554541	-3.715334254469696	1.2010264662287882
O	-0.8465900187454541	-1.177113684469696	2.798066526228788
O	0.3435506194545459	-3.000929114469696	1.5318322762287884
O	0.01349551045454589	-1.805272824469696	1.0094209362287883
O	-0.058404519545454114	-1.609671054469696	-0.28186534877121194
O	-0.2577589535454541	-0.365005870469696	-0.9194002497712119
O	0.5847243694545459	0.265683363530304	0.14082657522878805
O	-0.8313723080454541	0.783118523530304	0.2847529982287881
O	1.835098939454546	-1.314347734469696	3.288243816228788
O	1.9467595694545459	-1.458140424469696	1.6732458262287881
O	1.1790502894545458	-0.303205358469696	1.341889706228788
O	0.06904603745454585	-0.7502571844696959	1.9258156462287883
O	-0.3337551705454541	0.44214850453030397	1.402406686228788
O	-1.680727666545454	-0.0013900864696959614	0.843880556228788
O	-2.3289571505454543	0.25510531553030397	2.1403340762287884
O	2.166100429454546	-11.786644054469697	-3.7120688037712117
O	-1.5117618265454542	-11.832714354469697	-2.629105803771212
O	-2.575555120545454	-11.248516754469696	0.9988350862287881
O	-4.550446030545454	-14.121097154469696	2.492927726228788
O	-11.869904080545455	-9.391840414469696	5.544230316228788
O	-12.271114380545455	-6.131027154469695	3.615896546228788
O	-9.605403380545454	-4.370272864469696	5.655645206228788
O	-6.967574140545453	-6.452586584469696	3.8971520262287878
O	-8.656598380545454	-7.546562754469697	0.656289796228788
O	-9.294729730545454	-3.933798264469696	-0.4306417237712119
O	-5.643991420545454	-3.7639924144696963	-1.250600478771212
O	-5.419907900545454	-7.143598094469697	-3.278684963771212
O	-5.371724560545454	-7.1067142044696965	-7.067054763771212
O	-9.021317600545455	-6.659839824469696	-8.084438613771212
O	0.8626636494545459	3.298055275530304	-5.987445313771213
O	2.8183313694545458	1.960125865530304	-3.0569476937712117
O	3.349628629454546	-1.6164323044696962	-2.037006593771212
O	6.854606009454546	-1.984722404469696	-0.6219599893712119
O	7.922399889454546	-2.552283404469696	-4.249076933771212
O	6.4256900694545465	-6.090477944469695	-3.9120214037712118
O	2.726949579454546	-5.351556894469695	-4.511566283771212
O	0.22039555945454592	-2.738400604469696	-5.666842863771212
O	-2.4115835005454542	-2.009675754469696	-8.351397603771211
O	-3.651050070545454	1.1487888615303041	-10.055329943771213
O	-7.205786980545454	-0.22005822046969603	-10.074142853771212
O	-8.027372280545453	-0.290009978469696	-6.362427443771212
O	-9.345098370545454	3.567942705530304	-2.962394693771212
O	-7.348091670545454	4.866671505530304	-5.974638613771212
O	1.490192679454546	1.073398952530304	-13.110495753771213
O	4.939508369454545	-0.6002292444696959	-12.853154153771213
O	6.888766149454545	-5.138237614469697	-8.633218873771213
O	8.623352409454546	-8.057473034469696	-6.9109157937712125
O	10.431383219454545	-5.238080024469696	-11.513392853771212
O	10.139151119454546	-1.029184784469696	-12.281268253771213
O	2.466969409454546	8.575465905530304	-4.337479063771212
O	2.286280779454546	6.769822165530304	-0.9872213137712119
O	4.702396329454546	4.264291815530304	0.7075894762287881
O	7.088804109454546	2.878622725530304	-2.0483256237712117
O	5.129182509454546	5.256932455530304	-4.303028563771212
O	6.2886705594545464	8.113937135530303	-2.111033393771212
O	9.850112519454546	6.772348955530305	-2.047250693771212
O	3.023802029454546	10.432796005530303	1.4861100162287881
O	4.525821339454545	8.174769455530305	4.173107026228788
O	7.650682429454545	7.3673925155303035	2.168653426228788
O	11.024572919454545	8.816483445530304	1.2934667162287883
O	9.596782719454545	-6.8193947644696955	9.631548146228788
O	9.330371819454545	-3.884280804469696	7.227556846228787
O	2.819470329454546	4.003642545530305	10.672439846228787
O	4.081756539454545	0.9117953975303039	12.512551146228788
O	0.8974328594545458	-0.8709846744696961	13.700123646228787
O	0.23564965945454586	-2.678069514469696	10.406116546228787
O	3.7080417994545463	-4.380115854469697	10.308488046228788
O	3.5584500694545462	-5.462258394469696	13.891674946228788
O	11.050164719454546	3.217141325530304	8.834515916228789
O	8.954381469454546	6.207997875530303	7.851639196228788
O	-9.258634050545455	-2.518734534469696	11.970794346228788
O	-2.673834110545454	3.217662855530304	9.922361846228787
O	-0.07263565854545417	3.270278985530304	7.215534436228788
O	-2.130797720545454	3.819099695530304	4.022239346228788
O	-5.318027430545454	5.265228295530305	5.5980328362287874
O	-4.8227897405454545	8.880512805530303	4.602186276228788
O	-5.185043430545454	7.781271835530305	0.9296083262287881
O	-8.988043050545455	7.413418635530304	1.061970636228788
O	-9.136714200545455	11.053101145530304	2.1770425962287883
O	-6.799725820545454	12.188184745530304	-0.6115143942712119
O	-8.993659410545455	10.452683755530304	-3.2022361837712117
