26

O	2.57806969952917	68.79131246078872	66.24923561104593
O	3.9701258100712655	68.41365347723976	65.94347129210196
O	4.275490998052571	67.58511036393294	64.81474454170616
O	4.598228975872349	66.21331529187172	65.17608640166515
O	4.107928882731141	65.998696394698	66.64408565412492
O	2.880643181285768	66.75738346342024	66.7593514284643
O	1.444865553550012	67.96110797903951	68.29436150747783
O	0.9360073324359819	66.70656561626886	68.7908244552561
O	0.7973471286259475	66.20645161419293	67.4745079942945
O	1.1495899538068386	66.42649665411523	66.12644529851481
O	1.7402081608879145	65.01056326426571	65.9898803256002
O	4.655755916785418	69.76710565629894	65.67651200030785
O	3.831238478209532	70.39453196706404	64.55810863488847
O	4.468978514203222	68.07616733273551	67.33412416151884
O	4.051746391845255	68.89801564745098	68.38976339681389
O	4.228789021030825	66.87400967748549	67.99239612059996
O	4.2587892514754	68.50158466559519	69.74919567862528
O	4.109669861964048	66.27606268812359	69.2352951879676
O	3.765217869558238	67.23462556160094	70.15701186809369
O	2.221107365479953	64.33312547534075	67.22470575859171
O	1.4497076344636122	64.3237565999562	68.41874448489455
O	1.2320593542528013	63.12153686079852	69.26306092223916
O	0.8563422663437605	63.66288676303428	70.59488690889684
O	2.3226361605674013	67.88360752323571	67.28313058960421
O	-0.02301453024060507	62.98602043432876	71.45198757979557
O	3.829141401052375	65.00658312451435	69.68497125481963
