21

O	3.370233732463288	69.51061904953883	64.2333075487396
O	2.2176111929710265	68.9312863966028	64.50278194251887
O	2.3271336818438786	67.62712022918262	63.87934702030876
O	2.996745905502995	67.82984635708851	62.633950800368304
O	4.899099871525081	66.84866504718282	62.853188454003266
O	4.30105744560957	64.70636778814217	63.810655501974296
O	3.5773599260699425	64.09211942764173	64.80061791234495
O	3.6200914068703556	64.78956950272713	66.00672784474634
O	2.998407706776162	66.60838401905959	67.16710579361668
O	2.6318332192286635	67.9161056941135	67.07940517780223
O	3.3032435167073633	69.00296824869893	66.59228555359074
O	4.438523559370914	68.9297913588669	65.66176660313793
O	4.115230245026672	66.08047592063899	63.705170446090726
O	3.951417271402599	66.91156520166334	64.8172584621934
O	3.7681388589080442	66.17823389949022	66.0082169440484
O	4.181750266124128	62.772325886142085	62.4256254235341
O	4.882162621719592	63.91255289898184	62.84739022926256
O	1.54507322633293	66.59850235290517	64.44195757275737
O	1.4113829118029346	68.2229847557011	67.65173369991581
O	4.454384939253504	68.15040482735056	62.97674965635941
O	4.332613198615741	68.27756760137682	64.428588741302
