67

O	-1.365790273042553	-0.5651431994872356	-0.14385906300000034
O	-1.547857590042553	0.8003911435127645	0.1669543379999997
O	-2.962950319042553	1.4908613485127646	-0.8306707240000004
O	-4.253115596042553	0.4781613605127645	-0.11387616000000028
O	-3.646985796042553	-0.7170687594872354	0.5652240469999997
O	-2.6982009750425533	-1.1771672394872355	-0.21512212300000028
O	-5.121496686042553	1.1552405055127646	0.8567574659999997
O	-6.204485546042553	0.5246023145127645	1.2613216359999997
O	-5.849566666042553	-0.8666937194872355	1.5683577659999997
O	-4.750658256042553	-1.4291235294872353	1.1358906869999996
O	-1.812189391042553	1.0000964495127644	1.5498407959999996
O	-1.367568472042553	0.005235500512764446	2.4309074159999997
O	-0.13719537604255305	-0.5322662594872354	1.9758171059999996
O	-0.25585524604255294	-0.9717534394872354	0.6232370929999997
O	-7.562239036042554	0.9728183785127645	1.1543366939999997
O	-8.554846756042553	-0.09666450948723537	0.9969421709999997
O	-7.8944644060425535	2.1545410455127643	0.3512132982999997
O	-2.298970183042553	-0.3929159094872354	3.421670716
O	-1.337959313042553	-0.9694632494872353	4.3626084359999995
O	-3.524263406042553	0.2920877505127646	3.6366924359999997
O	-4.774730986042552	-10.175115379487236	-4.014232414
O	-5.758150036042553	-7.331038489487235	-1.6849561840000005
O	-4.5276066160425525	-8.158505809487236	1.8351008459999996
O	-3.1861272560425533	-5.812094419487235	4.357491415999999
O	-5.055521236042553	-5.497412949487235	7.704077635999999
O	-4.159808056042554	-1.9034780194872354	8.899114056
O	-1.883348906042553	-3.1551462894872353	11.691053285999999
O	-3.2820102160425533	-6.605479239487235	12.647055186
O	2.983665513957447	-5.007925849487235	7.4480144059999995
O	4.270923433957448	-8.617987209487236	3.054219566
O	0.9144325239574469	-10.395805479487237	3.037540106
O	0.398571123957447	-13.749589579487235	1.3130150149999997
O	3.918842153957447	-4.951950699487235	-5.016319844000001
O	2.569495613957447	-2.067038749487235	-7.173528794000001
O	1.174659813957447	-4.6466810794872355	-9.622251994
O	-1.6583762310425532	-5.225080919487235	-7.163784284000001
O	0.00043659395744688467	-7.5611427094872345	-4.648238324
O	3.022937153957447	-9.801460679487237	-4.054144064000001
O	-4.648677886042552	-6.718152199487235	-9.748296214
O	-7.499975226042553	-6.962241119487236	-12.212957614
O	2.400299093957447	4.613440160512765	-11.451372514000001
O	-10.492134086042553	-2.5600535194872354	-6.820102134000001
O	-9.403113286042553	0.7490935265127645	-5.253567344
O	-3.9732168360425533	10.154505200512764	-4.654807874
O	-1.2301582230425532	8.102765660512764	-3.013498024
O	1.188953493957447	5.823393320512765	-4.850759364000001
O	-1.307095889042553	5.060349960512765	-7.6544671740000005
O	-2.618322838042553	1.5713385415127645	-8.405158454
O	-5.7123800160425535	0.4961215045127645	-10.304585114
O	-4.576378366042553	-2.2561978694872353	-12.698334714000001
O	5.353826723957447	3.8355099305127647	3.4663213959999997
O	3.0178988039574466	5.811564410512765	1.2240024899999997
O	2.5487909139574474	8.778238470512765	3.462901196
O	2.0608519139574466	6.6924312305127645	6.601906806
O	-0.758305106042553	4.956272720512764	4.924477025999999
O	-2.514030094042553	7.608025840512765	2.999973286
O	-1.701390977042553	11.158825930512764	3.972156346
O	1.166601413957447	10.670811710512764	9.614353836
O	0.8951919639574468	7.891910930512765	12.227484786
O	2.6318465839574468	4.6537941505127645	13.001706286
O	3.1431713939574473	5.459583250512765	16.703862286
O	-2.192192766042553	13.686407620512764	-2.904212844
O	1.4051586339574471	13.236488020512764	-4.210041094
O	11.826150843957448	2.2530651495127643	3.7412706659999997
O	10.736605343957448	1.2172681964127645	0.2646068689999997
O	11.435771843957447	-2.549907489487236	0.21905648799999972
O	13.847968243957448	-2.7717196894872353	3.1488550959999997
