69

O	-1.133007915422449	-0.41590196431224524	-1.219685685877551
O	0.23993387657755094	1.7055139936877548	-0.6461906538775511
O	-3.7936924834224492	1.5300663026877548	-4.149715185877551
O	-4.498945373422449	0.7546314396877548	-5.133875245877551
O	-4.218841433422449	1.8943894556877547	-2.9083729358775514
O	3.6078396265775505	-2.243813174312245	-1.8362162578775512
O	-3.440827283422449	1.5150498436877549	-1.818333801877551
O	-2.074646504422449	1.645379146687755	-2.0377978658775513
O	-1.5140884654224491	1.4828958636877547	-3.2658841358775508
O	-2.421004048422449	1.485552209687755	-4.276377295877551
O	-1.2890725314224492	0.9831875956877548	-0.9974798508775511
O	0.1570282765775508	-0.5211655843122451	-1.778272470877551
O	1.0220018965775508	0.013853829687754837	-0.7902860893775511
O	2.339402496577551	-0.4332027043122453	-0.8062607116775511
O	2.6986027365775507	-1.2044967443122452	-1.9319253058775512
O	2.045474306577551	-0.6303092743122451	-3.072340545877551
O	0.666411966577551	-0.9523286043122452	-3.0288735158775513
O	-4.042032803422449	1.0785908076877548	-6.485275025877551
O	-4.227729913422449	-0.6925164843122451	-5.075727835877552
O	-2.301078274422449	-0.9159144343122452	-1.8970413558775512
O	-5.632206203422449	-10.278490574312245	-1.9728715458775512
O	-5.2906239734224485	-6.9650342043122455	-3.7249251858775514
O	-2.4782368074224492	-7.164511644312245	-6.3590799858775515
O	-0.01691117342244919	-4.289631124312246	-7.045084275877551
O	-0.0735501534224492	-3.1576142343122457	-10.69309139587755
O	1.428154326577551	0.3261272246877548	-10.167381965877551
O	4.48901767657755	-0.5872586443122452	-12.17673810587755
O	7.046603266577552	-4.226174794312246	-7.129086335877552
O	5.8511014865775515	-8.817724984312246	-3.6084581958775512
O	2.7473171365775513	-9.923404474312246	-5.5293708058775515
O	1.319071306577551	-13.440092074312245	-5.131413725877551
O	1.7486846165775507	-6.609642434312246	3.959641984122449
O	-0.3039336634224492	-4.141820604312246	6.040173914122449
O	-2.7907268834224492	-6.908981174312245	6.827258584122449
O	-4.165826793422449	-6.513797884312245	3.3140293041224487
O	-1.6246984267224491	-8.523510364312246	1.321664354122449
O	1.218580486577551	-10.979924274312246	1.5612949041224489
O	-8.07118972342245	-8.035151204312246	3.827639074122449
O	-11.74554772342245	-8.361407484312245	4.646157864122449
O	-1.3184477174224492	3.515582635687755	14.45691559412245
O	-2.227634550422449	1.4283979206877548	11.37453199412245
O	-13.751382123422449	-1.7507282143122451	-3.3128791358775507
O	-11.74486372342245	-2.563244704312245	-0.15290370887755111
O	-9.961979933422448	0.8371924275877548	-0.09120601087755109
O	-13.206482823422448	2.8034807356877547	-0.31837294187755116
O	-4.357682513422449	9.108926555687754	3.997088424122449
O	-1.225084390422449	7.076961245687754	3.4043540741224483
O	-0.07080161342244917	4.173372845687755	5.547262984122448
O	-3.635772603422449	3.228510915687755	6.6199276241224485
O	-5.274393663422449	-0.07216951231224522	5.613374134122449
O	-8.939906433422449	-1.0291106543122452	5.676513174122449
O	-9.18560935342245	-4.344642034312246	7.504191594122449
O	7.519738446577552	3.397188615687755	-0.24892886287755112
O	4.301533256577551	5.048737355687755	0.9632949741224488
O	5.07330341657755	8.455230455687754	-0.3887042568775511
O	5.955830366577551	7.099514945687755	-3.8401726558775513
O	2.6017919365775506	5.386573705687755	-4.048749265877551
O	0.3759047465775507	7.979683895687755	-2.521175935877551
O	1.682847536577551	11.514410425687755	-2.095890395877551
O	1.7110221465775508	14.169938225687755	-4.843592975877551
O	6.823537246577551	11.747286925687755	-5.769272665877551
O	7.7041772965775515	9.625083935687755	-8.824807545877551
O	9.600814576577552	6.454232455687754	-9.49115007587755
O	-1.8603823304224492	12.656331425687755	4.234673174122449
O	0.6855360165775508	11.428761725687755	6.846126734122449
O	13.176399076577551	0.8370987590877548	1.9426098041224489
O	10.485221476577552	-0.7079943343122452	4.110939894122449
O	10.93392347657755	-4.457359454312245	3.554681524122449
O	14.473763976577553	-4.449204274312246	2.140962274122449
