37

O	50.4089684016855	54.43513036917308	21.766295276109656
O	49.99729946337061	53.67396754960109	17.63645444673265
O	51.10573618927438	55.33050915389728	18.75806936600023
O	50.92509197680073	54.155641246477856	18.509141757742047
O	50.41853967699701	55.71382581088619	21.956698301368043
O	51.32744872584565	55.59158530958924	23.013462693086467
O	51.468979656567576	53.20999330920789	19.499821955650045
O	51.108436608043526	54.44787700540171	23.657893725367348
O	50.778321133283654	53.58843955225266	22.720223600625623
O	50.43946798962255	52.17640392936166	19.70080668959107
O	48.2458847825915	50.46639038968605	19.312304870407868
O	51.14634529323193	52.208488331472	22.926233634723918
O	45.15349177515315	54.0477490638369	17.970927851061493
O	50.24909775461616	51.364489082034225	22.744459309746233
O	47.14357557382003	53.66096306079895	19.161058068223927
O	52.45441637533366	51.79376207987285	22.62280517050549
O	46.04484102872123	52.00018007391802	17.746189364712755
O	48.43231389437279	53.77929983529326	19.66051194623734
O	49.0913483390322	52.68952560142179	19.288592262712427
O	50.494688729175465	56.940713473584076	21.275679823666437
O	48.29965258244589	51.80122102039989	18.605000974384538
O	51.93618611077756	57.30791435285798	21.07220043422275
O	46.02156308040282	54.35768864106204	19.01212736613169
O	52.75600524218767	56.207908677363044	21.53572920666567
O	47.078148394845684	52.390192652257014	18.50086569008386
O	45.230357387128066	52.92418170526599	17.192466502225244
O	49.526433743283064	57.45986127323827	20.3170614990506
O	48.15460099180273	57.26296654200344	20.02190593564989
O	47.55679535911588	57.218945108874095	18.69021667021067
O	46.482338157784305	57.79102403998119	18.072875253643343
O	46.00762212637521	56.937554998111246	17.02088516090523
O	47.08924068326216	56.24170958498115	16.60031135247208
O	48.038570447190594	56.61512141627839	17.552585323987937
O	47.181411854737696	55.02414254539469	15.895166279383877
O	48.120750199165855	54.0601683969833	16.23430386868136
O	49.21424026516216	54.622372147908365	16.88581814113214
O	49.145163936306304	55.85332593458517	17.52902373021666
