88

O	0.4859319157758619	7.892727723362069	1.1602467154827587
O	0.3900740057758618	5.280329583362069	0.7562103454827587
O	-0.3013096242241382	4.142616473362069	0.4799749224827587
O	-1.6231220132241382	4.156318793362068	0.6954556354827586
O	-2.289356488224138	5.333003063362069	0.6058435254827588
O	-1.628427673224138	6.340592453362069	1.3096888354827587
O	-0.2880704042241382	6.359937843362069	1.1852038854827587
O	-2.484840244224138	3.2183700633620687	1.3275713854827587
O	-3.7831253042241384	3.2188566433620687	1.6990983154827586
O	-4.134124814224138	1.9186574203620688	1.4750936354827586
O	-2.958303544224138	1.2775911223620686	1.3100424854827586
O	-1.934036914224138	2.0345177273620685	1.5404612354827587
O	-5.3080246442241386	1.2585399333620688	1.3521290054827586
O	-5.234756864224138	-0.10670050663793118	1.0376720054827586
O	-4.157135774224138	-0.3634327166379312	0.15847280848275874
O	-2.941738934224138	0.18463372636206876	0.6641265454827587
O	-2.084895239224138	0.16362240336206868	-0.6523086715172413
O	-0.9087454562241382	1.0197358227620688	-0.5617871705172413
O	0.21014565577586186	0.8567649133620687	0.17232922648275867
O	1.4086479057758619	1.2340882843620686	-0.6724656245172413
O	1.642258125775862	0.16929936636206877	-1.5900852345172414
O	-0.011798714224138251	-0.34854079663793125	0.9557483554827586
O	2.596875925775862	1.1329107773620688	0.21421356548275866
O	1.1316029457758618	-1.0821718566379315	1.2317770454827586
O	1.1468018657758619	-2.370781436637931	0.8753062554827586
O	0.12441264577586186	-2.5117767466379313	0.03388099548275869
O	-0.6493097732241382	-1.4330624966379313	0.3409623874827587
O	0.36458096577586185	-3.2043266766379315	-1.2419223045172414
O	-0.5828454252241382	-3.039070386637931	-2.0245523545172412
O	1.6271917757758618	-3.078818036637931	-1.9428622345172413
O	7.519380975775862	-5.499553586637932	-6.794975944517241
O	6.161550865775862	-7.249835166637932	-3.7672146645172413
O	2.812108715775862	-6.757140296637932	-2.2293911645172413
O	0.9670632457758617	-9.99233788663793	-1.5396664645172413
O	-1.1885031772241381	-8.665260416637931	1.2704557754827586
O	1.9459972857758616	-7.304105816637931	2.9492740654827587
O	1.901838655775862	-4.513723846637931	12.76803153548276
O	5.450943795775862	-3.6844840066379314	11.957698335482759
O	7.216561715775862	-0.4152651566379313	11.47226483548276
O	4.978205475775861	7.110681003362068	10.03232883548276
O	2.058241075775862	9.025864783362069	8.74645300548276
O	-0.4470776842241382	7.883283903362068	6.1653282154827584
O	-3.2602757542241383	7.1206783333620685	8.720291775482758
O	0.5556536257758617	3.348726903362069	8.128867865482759
O	-2.8193048742241382	2.585038843362069	6.817542385482758
O	-3.946020504224138	1.3598870003620687	10.17281673548276
O	-1.5224878322241382	-1.6920061166379314	10.08296153548276
O	-3.641336194224138	-2.9111682466379314	7.245241615482758
O	-6.651559064224139	-2.342761346637931	9.42657870548276
O	-5.517019204224138	-4.808735056637931	12.04069723548276
O	-4.673713484224138	-7.900472396637931	9.98502373548276
O	-6.682985914224139	-7.644271276637931	6.777444335482758
O	-10.184618934224138	-8.561185136637931	8.17317112548276
O	0.8853810257758619	-7.665360386637931	-6.755540624517241
O	-2.3060440412241383	-7.064922326637931	-4.889309804517241
O	-5.598096314224138	-5.299183666637931	-4.954462874517241
O	-8.263427994224138	-8.133810466637932	-5.605975084517241
O	-9.261834314224139	-5.491311116637931	-1.1140949955172412
O	-12.213456834224138	-3.172820706637931	6.180921595482759
O	-3.333078284224138	-3.118057506637931	-8.61597822451724
O	-5.738633184224138	-0.3485774866379312	-9.25550808451724
O	-6.153962584224138	1.8942032443620689	-6.283967454517241
O	-5.601523434224139	5.6883475433620685	-6.703744124517241
O	-8.536800414224137	6.686153873362069	-4.5653714545172415
O	-10.917431594224139	4.332565403362069	-6.343940954517241
O	-11.189033764224138	4.744421973362069	-10.13610154451724
O	-10.193925544224138	0.18965823036206875	-12.568559164517241
O	-1.5097911662241381	1.8090430463620688	-9.860072034517241
O	-1.086236854224138	1.7662402503620687	-6.099483994517241
O	-2.3670923742241383	3.734940933362069	-3.1899531445172413
O	-1.2486822342241382	7.404908803362069	-2.640058354517241
O	0.21287772577586184	9.09520304336207	-5.469780304517242
O	-0.5972093192241381	12.420241213362068	-3.631509764517241
O	3.6955291157758614	3.5073332533620687	-8.61092241451724
O	5.237359045775862	6.905854623362068	-9.134098004517242
O	7.892853725775861	9.21612509336207	-7.6111438045172415
O	7.9682445157758615	7.584710053362069	-4.138222394517241
O	6.367255965775861	10.484838553362067	-2.2260089845172413
O	4.911532945775861	12.517193013362068	-5.0590300245172415
O	7.494833495775861	1.6745549233620687	-8.837091054517241
O	10.25638306577586	3.537027453362069	-6.954746964517241
O	8.085569395775861	5.093575023362069	4.871705335482758
O	12.86516706577586	-5.130518856637932	-3.966198774517241
O	11.28049516577586	-5.865533046637931	-0.6479817225172413
O	7.8521809757758625	-4.267481206637931	-1.0699835735172414
O	6.275635885775862	-5.236718006637931	2.276061845482759
O	5.099916755775862	-4.439156846637931	7.7484230854827585
O	8.702401565775862	-3.545542936637931	7.260504425482758
