85

O	-2.3849961958833337	-3.113317408136667	-0.74317153159
O	-1.043032493883334	-3.1993841481366667	-1.2178997335900001
O	-0.266209255883334	-3.6249959381366668	-0.07452778359000012
O	-1.0680269538833338	-3.022540698136667	1.0067734554099999
O	-2.462105115883334	-3.030207028136667	0.66021921541
O	-0.7848195868833339	-2.112391998136667	-2.15137737459
O	0.519595354116666	-1.4396409281366669	-2.23972611459
O	1.374104754116666	-2.246663648136667	-1.3951124105900001
O	1.1037538241166662	-3.069339338136667	-0.23183107859000007
O	-3.167447545883334	-1.7583881781366668	0.4155660754099999
O	-1.996847890883334	-0.9955981581366669	-0.03737940459000011
O	-1.129132360883334	-0.9381551281366669	1.24474512541
O	-2.402597835883334	0.12291664086333315	2.07357505541
O	-2.085784056883334	1.3403269488633331	0.70387760541
O	-0.7060248828833339	1.2792343518633331	0.7468711054099999
O	-0.11261290588333384	-0.054590512136666824	0.67197690541
O	-2.517386435883334	1.0311573538633332	-0.6464939725900001
O	-3.7544434258833337	1.0875305598633331	0.19163554540999983
O	-4.649452765883334	1.5240860718633331	-0.7576169609900001
O	-4.560577935883334	0.045567911863333144	-1.85814621459
O	-2.7168401058833336	0.5051649578633332	-1.93140308459
O	-4.019810425883334	2.746128631863333	-1.2058317625900001
O	-2.646950455883334	3.157686361863333	-1.29510239159
O	-2.203738208883334	4.235581211863333	-0.4794087725900001
O	-2.025996446883334	3.103865001863333	-2.57434656459
O	0.03942844411666613	10.464161451863333	-0.9068398461900001
O	-2.590205355883334	8.287590741863333	-2.4163574845899998
O	-4.7076924658833335	10.104772461863332	-4.98837792459
O	-5.703134205883334	7.0069625318633335	-6.95578668459
O	-2.015487081883334	6.045132001863333	-7.1505342045899996
O	6.753451824116665	-1.9232043381366668	-9.89469086459
O	10.522196454116665	-2.106375038136667	-9.88244809459
O	10.958781354116665	-5.078000818136666	-7.63485580459
O	9.090840754116666	-6.372588898136667	-4.57818737459
O	5.927088324116665	-8.218629428136667	-5.18317966459
O	3.2353019941166665	-10.185554948136668	-3.5355231945899996
O	-0.09231929588333387	-9.008223678136668	-2.31129063459
O	-2.241243314883334	-10.303976148136668	-5.22317997459
O	0.3982702341166662	-9.097995568136668	-7.789580884589999
O	0.41288610411666604	-5.682465748136666	-6.24673158459
O	-3.414489735883334	-5.493851368136666	-5.81289932459
O	-3.757909155883334	-6.345641158136666	-9.43736276459
O	-2.095195893883334	-3.0742851281366668	-10.72890065459
O	-5.095928525883334	-1.359161998136667	-9.201713774589999
O	-7.239493805883335	-3.7972590981366667	-11.10004387459
O	-5.962324035883334	-2.621326968136667	-14.46770567459
O	-9.107195135883334	1.7411329218633331	-11.648159474589999
O	-5.847244925883334	10.674374251863332	0.58057216541
O	-8.224293075883335	8.309392961863333	-1.09353759159
O	-11.085369775883334	5.9951748118633335	-0.5302372225900001
O	-9.513023325883335	6.475977601863334	4.0085798854100005
O	-11.381545745883335	3.685197501863333	5.66153768541
O	-10.517299075883335	0.3314278410633332	4.3028525254100005
O	-9.313239045883334	-2.5086632281366668	6.62840173541
O	-11.306564795883334	-5.211143218136667	4.95125001541
O	-7.193449125883333	3.505588111863333	7.99073165541
O	-5.772178275883334	1.839821241863333	4.9783344754100005
O	-5.618671115883334	-1.523444508136667	3.1412774054100003
O	-3.723684285883334	-4.615316068136666	4.62132279541
O	-2.8947409958833337	-4.160291698136667	8.27728496541
O	-2.444735055883334	-8.004332298136667	8.25599145541
O	-13.437909845883334	0.9878423578633331	12.55279232541
O	-1.6110134298833338	3.171925941863333	8.77967106541
O	0.38439107411666606	0.9375500068633331	11.07618352541
O	3.7440630041166663	-0.900215828136667	11.24683832541
O	4.402325654116666	-1.105248798136667	7.45283769541
O	4.069401974116666	-4.900543328136666	7.14329862541
O	2.291354034116666	-5.721410438136666	10.37656952541
O	5.078592834116666	4.257091421863334	8.12235176541
O	5.3324763641166655	2.714919291863333	11.54693852541
O	7.546279754116666	-1.986293488136667	12.907134225410001
O	7.284194404116665	0.033895244863333174	16.045891925409997
O	7.865202204116665	6.440105821863334	2.5496683954100003
O	7.834953244116665	2.891249251863333	-1.58075953459
O	9.279033454116666	0.6185385268633332	1.0290587254099999
O	9.578096654116665	-1.7865154781366668	-3.68477068459
O	7.009003764116665	-3.250178658136667	-1.32486794659
O	9.122591154116666	-5.561649218136666	0.7879225654099999
O	8.623564614116665	-3.7328152581366667	4.08297841541
O	6.695968214116666	10.922773951863332	1.39018143541
O	5.986948984116665	9.481311831863332	-2.0056452045900004
O	2.9597927641166657	7.186562571863334	-1.30201727059
O	2.2673310441166663	6.038014711863333	-4.88729656459
O	2.895617204116666	2.445304161863333	-9.19947318459
O	6.3181520241166655	3.042810311863333	-7.78549886459
