83

O	-0.9440765447450001	0.28677569813333426	0.5967645469666669
O	1.6920655942549998	-3.069247496266666	-5.903093823033333
O	0.16160967925499992	0.8386222017333342	1.0667743769666669
O	-0.05487423874500008	2.166900073733334	0.8441614869666669
O	0.26604748625499997	-1.5237484362666658	-4.149081903033333
O	-1.305537194745	2.351155153733334	0.35292591696666675
O	-1.864805005745	1.1658406767333342	0.1537658369666668
O	0.4329043242549998	-2.7615141262666656	-6.2296277230333335
O	-0.2842896757450001	-2.2534158062666654	-5.218816913033333
O	-3.093410045745	1.0531546887333343	-0.5874244260333332
O	-3.487946795745	0.013114973733334256	-1.1404014940333331
O	-4.161049085745	1.9426652637333341	-0.21885147803333316
O	1.450873214255	0.27526543013333427	0.8894150769666669
O	2.280752434255	0.24723943443333424	2.102407386966667
O	2.653280554255	-0.9875998762666658	2.565557076966667
O	2.008732024255	0.025680829733334243	-0.46590845403333314
O	1.364926824255	-0.8931116562666657	-1.4575460970333332
O	2.119291684255	-1.4463847562666658	-2.586987833033333
O	3.4913818942550003	-1.662813366266666	-2.669279813033333
O	4.112919414255	-2.299463526266666	-3.709074283033333
O	3.4598613742550004	-3.080949826266666	-4.5483168730333325
O	2.116701494255	-2.828571536266666	-4.598004873033333
O	1.450312834255	-2.0177444762666656	-3.6792748530333332
O	-8.713403545745	0.16405083273333423	6.940337866966667
O	-6.427579885745	3.103586783733334	6.581522376966666
O	-2.901061255745	3.039275673733334	5.410060416966667
O	-0.5743571920450001	5.000838983733334	7.716800456966666
O	2.035191224255	5.671771323733334	5.057024226966667
O	-0.7230722517450001	7.046333343733334	2.855898966966667
O	1.437441084255	12.940550663733333	-5.165516373033333
O	-2.281856725745	12.821656063733334	-5.523162903033334
O	-4.504836335745	11.005774563733334	-7.943905623033333
O	-3.623733435745	4.933089023733334	-12.974469173033333
O	-1.395449690745	2.062060913733334	-13.656271873033333
O	0.459643124255	0.07495989373333423	-11.092045273033333
O	3.911787904255	1.6703604037333342	-11.828456573033334
O	0.5522680942549999	4.389342123733334	-8.543752643033333
O	3.559048104255	2.8401526837333346	-6.984019823033333
O	5.619814604255	5.794996953733334	-7.9500924030333335
O	3.7103215642549996	8.322230603733335	-5.692495813033333
O	5.137367394255	6.301618493733334	-2.847845023033333
O	8.496951264255	6.685732033733334	-4.452523033033334
O	8.428518974254999	10.469357963733334	-4.131137833033334
O	7.477076944255001	10.991562063733333	-0.4728295290333332
O	8.564027194254999	7.876514743733334	1.3806503169666668
O	12.388926044255	8.482612513733335	1.462909516966667
O	-2.081015945745	-0.2907465802666658	8.997489626966667
O	1.3711613742549997	-0.13014590126666575	7.636936506966666
O	4.301102804255	-2.1642939562666657	6.798142976966667
O	7.088168744255	-1.6552467962666657	9.388116726966667
O	8.727006744254998	-0.12191479026666574	4.503325706966667
O	9.777164044254999	2.5453712237333344	7.033441626966667
O	13.100802644255	3.200567123733334	-1.5574250640333331
O	4.568972044255	4.3031622137333345	15.431961626966668
O	0.732583004255	-4.745603946266666	10.506531426966667
O	0.9266490842549998	-5.605814786266666	6.845396306966667
O	2.718269984255	-8.372183956266666	5.095467386966667
O	3.618320964255	-7.533018936266666	1.5769883069666668
O	2.517867404255	-9.826370236266666	-1.3318063820333332
O	5.734054364255	-9.579961346266666	-3.2176350530333333
O	7.863070034255	-10.325295336266667	-0.10500940803333314
O	7.103714584255	-13.521068536266666	1.838981706966667
O	6.088838874255	-12.464031636266666	6.906616676966667
O	-2.652860395745	-7.947748206266667	6.958089046966667
O	-1.739819325745	-8.923943586266667	3.452088196966667
O	-1.145668877745	-5.934716686266666	1.173830206966667
O	0.458534734255	-5.068538546266666	-2.107242573033333
O	-0.7752171817450001	-6.244843076266666	-5.439643243033333
O	-3.025897555745	-9.256895296266666	-5.129533533033333
O	-6.514374085745	-9.774145836266666	4.074269176966667
O	-6.639654005745	-7.523535216266666	1.0704177469666667
O	-8.613803525745	-9.496810136266665	-1.4695532100333333
O	-10.998609555745	-8.962884876266665	-4.416325763033333
O	-10.012645415745	-5.335701446266666	-5.159070013033333
O	-8.269971355745	-6.011872096266666	-8.518656993033332
O	-7.805015665745	-9.753289336266667	-8.367941663033333
O	-10.141283275745002	-5.601365706266666	2.4560822869666668
O	-13.250324655745	3.552469723733334	4.753623676966667
O	-10.825617855745001	6.127075533733334	3.4804159869666664
O	-7.874149265745	3.964625973733334	2.5853045769666667
O	-5.386573285745	6.693762653733334	1.510621856966667
O	-2.939431415745	9.986113053733334	-2.3876203530333333
O	-6.637381985745	10.110410643733333	-3.013356373033333
