19

O	52.90458659725852	57.85674841288427	22.19920809252808
O	53.326588859736084	56.656593548652125	22.80948884878433
O	52.20176475220965	57.223949606171985	21.000827086899683
O	52.87373018527486	56.11819981062255	20.510007614075207
O	51.102327637898675	56.62160411079202	21.91216490566471
O	50.25620272860993	57.68476312965496	21.99754201652064
O	50.737117759754774	55.4004303202473	21.215323232127943
O	49.613927806648675	55.8113404234819	20.519269987153393
O	51.92809748902137	55.15354711820916	20.36069023902777
O	52.7468656165551	50.87011089608202	18.112273011116134
O	51.589676608742785	51.58911306701752	17.703636143508323
O	51.74882013803922	52.92660251904915	18.28978124093434
O	52.08703743192459	52.8203428349965	19.68389245989558
O	52.31984026681731	51.56521873031595	20.207464841066308
O	52.51409720752241	50.29138314411185	19.37488846220746
O	53.74560724077244	49.877343967233585	19.81602660130187
O	52.696355500695674	51.82777794977121	21.447409703570468
O	52.582232925416626	53.15603657620394	21.72842007780996
O	52.323153333908806	53.791257860965494	20.585200989911037
