82

O	0.3879004266666668	-0.5033558362952381	-1.268371282466667
O	-0.7968325783333332	0.026861068704762014	-0.8533129574666671
O	-1.4183675103333333	-1.124170136295238	-0.47400556966666707
O	-1.0534521883333332	-1.9713792562952381	-1.472738320466667
O	0.027523569666666803	-1.524710706295238	-2.071682732466667
O	0.39754854666666684	-2.130897256295238	-3.278852172466667
O	1.5620576566666668	-2.319613816295238	-3.570360852466667
O	-0.3062536693333332	-3.150493186295238	-3.9244865224666667
O	-0.7679935443333332	1.145993885704762	0.04158725553333298
O	-2.142676653333333	1.500275357704762	0.44906887153333297
O	-2.9321620433333333	0.38518293870476206	0.256946034533333
O	0.39804926666666685	1.333321236704762	0.902611307533333
O	1.445079496666667	2.323419203704762	0.5277977275333329
O	2.8061781366666665	2.299437563704762	1.075436147533333
O	3.9816954666666664	2.140989833704762	0.3197165395333329
O	5.168719566666667	2.778506453704762	0.545588147533333
O	5.213578256666667	3.7380410137047617	1.5070252975333331
O	4.213977206666667	3.786882693704762	2.424511137533333
O	3.2142085866666665	2.833615473704762	2.302281477533333
O	-6.289203173333333	-4.074366596295238	-9.079725052466667
O	-6.333449473333333	-5.157962336295237	-5.505740452466667
O	-5.327772013333333	-3.292324076295238	-2.574785252466667
O	-7.628765923333334	-3.072235846295238	0.345620353533333
O	-5.006055023333333	-2.507719406295238	3.013674887533333
O	-3.066510533333333	-5.463097916295237	1.6104192475333332
O	-6.110886743333333	-7.836405036295238	1.902806467533333
O	3.7433367766666663	-10.300554556295237	7.448251437533332
O	4.005547656666667	-12.382561756295237	4.3507294475333325
O	6.641145156666666	-12.601738556295238	1.6826907075333333
O	12.692776986666667	-8.135405856295238	-0.732425829466667
O	13.892561886666666	-4.635438856295238	-0.554147582066667
O	11.745261486666667	-1.533446336295238	-0.37508828246666703
O	12.330909686666667	-0.9133418162952379	3.409943017533333
O	8.537845876666667	-4.581289166295238	2.056821037533333
O	7.339904326666667	-1.2926402662952379	3.460454957533333
O	7.882301546666666	-2.601054356295238	6.958003397533332
O	5.163395206666666	-5.361083846295237	6.697760697533333
O	2.787751466666667	-2.445952236295238	6.520091017533333
O	4.382279586666667	-1.110427556295238	9.616848947533333
O	3.3833724566666667	-4.127668696295237	11.667011547533333
O	-0.3331023913333332	-4.464195466295237	10.916575847533334
O	-1.5273718203333333	-1.013784796295238	9.871262847533334
O	-1.6138938163333332	0.7257870353047621	13.314192847533333
O	-6.678099953333334	-0.775980506295238	11.802918647533334
O	-6.2016044033333335	2.900813893704762	11.036207747533334
O	-8.060777523333332	0.46172003070476203	-4.086974172466667
O	-6.618299323333334	2.120101173704762	-1.0664110274666672
O	-5.085363893333334	5.182440843704763	0.184351380533333
O	-7.858429023333334	6.923335623704762	2.521017177533333
O	-5.132676223333333	9.015997423704762	4.089026717533333
O	-3.225829833333333	5.915495243704762	5.132995107533333
O	-6.157491293333333	4.823283693704762	7.355402957533332
O	0.8982360666666669	7.839076403704762	9.193426087533334
O	2.309555546666667	4.8566117637047626	11.036471247533333
O	-14.952358413333334	1.700491161704762	3.529022547533333
O	-8.619041703333332	5.8886339937047625	-4.459738972466667
O	-4.8086908133333335	5.987398683704763	-4.5256228224666675
O	-2.653688643333333	9.065080163704762	-4.581977642466668
O	0.7013344266666668	8.403437643704763	-3.121943922466667
O	3.896393326666667	9.124915973704763	-5.134143782466667
O	5.786398356666667	10.615256213704763	-2.2566658024666673
O	2.914191896666667	12.868424543704762	-1.158082516466667
O	-2.7565356633333336	14.662459743704762	-0.6631829044666671
O	-3.660030963333333	14.574977143704762	-4.351435152466667
O	-4.733716813333333	5.921088033704763	-8.831903672466666
O	-1.070815428333333	6.638896333704762	-8.383090952466667
O	0.6364977166666668	4.1354467637047625	-5.995449622466667
O	3.7430982766666663	3.884187973704762	-3.930573922466667
O	7.219450026666666	3.6679381537047617	-5.390647602466667
O	7.354398956666667	4.784775283704763	-9.049985652466667
O	-1.7032990833333332	4.680520753704762	-12.802874752466666
O	0.8655776066666667	2.335307773704762	-11.401145352466667
O	3.6187172766666666	2.352412033704762	-13.974303752466666
O	9.953243686666667	-1.4051335462952381	-11.226334252466666
O	-0.9239656203333332	-1.007139386295238	-13.237135252466667
O	-3.8338698833333336	-10.533693656295238	-7.101975522466668
O	-2.4823322633333333	-7.178922206295238	-5.875298522466667
O	-1.8334471033333333	-8.059619136295238	-2.2246603224666672
O	-3.2946117133333335	-11.318615956295238	-0.8041991724666671
O	-2.206228273333333	-10.619579056295237	2.7711760675333332
O	1.429915786666667	-9.957127856295237	1.927456347533333
O	1.932815706666667	-12.295804856295238	-0.964961248466667
