24

O	53.64458988590735	56.54197684904178	21.22514934369369
O	51.50373474610252	51.31495852697697	21.736108150485475
O	53.310513485386416	57.339692245474026	23.374650782176936
O	46.9647898795464	56.49500558651837	15.598145795048236
O	51.16168457109395	53.96367232932674	22.95001455411071
O	51.320716338302326	52.3083845542829	19.732782794390985
O	47.28146526913945	55.67697138765489	16.62181477737408
O	51.29256273900954	55.907395093370795	22.10904286398871
O	47.1150489240142	59.47280294009626	18.631452106575736
O	47.54254964713305	57.758301652160455	15.698672718543698
O	48.13591762863458	55.93720572764101	17.70435480471404
O	47.24817778902769	59.37823221319772	17.30275379843072
O	48.154877783949935	59.030296413812316	19.451575003406198
O	50.97075245927262	55.05263636934862	21.141657850274253
O	51.57853946845871	55.22561751503793	23.204438459597785
O	49.69305213076908	57.05003591224626	19.999900337125176
O	50.66201973556379	57.78632894635167	20.866823645935213
O	47.832956750712576	58.145693500273545	16.976265456017188
O	48.78285329414541	57.822857580740234	19.13975345193589
O	48.31294211933774	57.264044390723356	17.949155712846583
O	51.206888207016824	53.79110002549699	21.60837188422551
O	52.91317350370554	57.577929761435904	22.073172202739855
O	51.45881207600303	57.29787464227689	21.911737926806705
O	51.28378107612929	52.50205899077515	20.964286943043987
