93

O	-1.7658703638793105	1.510477345106897	-0.6758324976820697
O	1.4285759161206895	1.735567197206897	-0.08334700776206971
O	0.33674506412068955	2.708593225206897	1.5684869142379305
O	1.1767963361206895	1.7710770152068969	1.3613847542379303
O	-2.3473841538793105	2.541069260206897	0.05421196523793026
O	-3.37948902387931	1.801252209206897	0.5800697142379303
O	0.6354025761206896	0.436834825206897	1.8464142142379305
O	-2.7481403738793104	0.6955485502068969	1.0458859842379302
O	-2.1035673338793104	0.29960770520689683	-0.07473772776206966
O	1.4129237461206896	-0.4800339647931029	0.9641440142379303
O	5.9585115761206895	0.4577644152068969	1.98521951423793
O	-1.8851878738793104	-1.1082669647931032	-0.2944483147620697
O	3.95145672612069	-0.014829044793102986	3.0738180642379307
O	-1.4389142778793105	-1.7804429947931029	0.6874510342379303
O	6.0106065061206895	-0.8694978647931029	4.03052677423793
O	-2.76890650387931	-1.808873294793103	-1.1357367187620697
O	4.57782974612069	0.2955820852068969	1.8990873942379303
O	4.64860045612069	-0.730679174793103	4.0082786242379305
O	-2.78188165387931	3.8284941552068967	-0.5122350367620697
O	-3.63749910387931	3.5331074052068967	-1.6843413257620696
O	6.63061956612069	-0.3344457747931031	2.90909129423793
O	-4.131255393879311	2.203481766206897	-1.4790972617620697
O	2.6257004161206896	0.02816458520689702	0.3172972792379303
O	4.02876334612069	0.07728560520689687	0.5586878342379302
O	-1.6372627338793104	4.786109075206896	-0.6972955159620697
O	-1.0803207808793105	5.382819475206897	0.5393283342379303
O	0.33570247212068954	5.843072075206897	0.4332735442379303
O	1.0385464161206894	6.906358805206897	0.8989485342379302
O	2.3457816961206897	6.475537465206897	1.3451685742379305
O	2.5992202961206896	5.3685956752068975	0.6730596342379302
O	1.4336652461206896	5.199829555206897	-0.10399352776206972
O	3.70402157612069	4.5437111052068975	0.6772131242379302
O	3.33883636612069	3.195479215206897	0.6534165942379302
O	2.29795227612069	2.910836285206897	-0.2501881357620697
O	1.2908846761206896	3.863558085206897	-0.4781648277620697
O	-8.31724869387931	-5.196117914793103	-2.92279849576207
O	-7.87072487387931	-1.587478564793103	-1.8626592857620696
O	-11.27566909387931	0.12425538520689683	-1.4071706767620697
O	-10.025417023879312	2.7755727252068967	1.0296611742379302
O	-8.48700463387931	-0.02638669479310307	3.09810753423793
O	-1.4876286238793104	-3.778660494793103	12.31061523423793
O	-0.3636726408793104	-6.997795604793103	13.924487734237932
O	5.52960923612069	-5.049528384793103	10.72741203423793
O	5.94630147612069	-1.367587904793103	10.612160834237931
O	7.6949688161206895	1.451097171206897	8.91714227423793
O	6.44272281612069	3.488223725206897	6.0429800742379305
O	5.53671466612069	6.588816105206897	8.163333874237932
O	3.8920917161206896	4.376640365206897	10.88038903423793
O	1.9337081361206894	2.524602082206897	8.24059232423793
O	1.0364070261206895	5.654354235206897	6.35939533423793
O	-0.2630939078793104	7.191983115206897	9.570128134237931
O	-3.1920906838793104	4.648318515206897	9.811010834237932
O	-4.51771019387931	6.312752325206897	6.72324858423793
O	-4.11719264387931	9.596453365206898	8.471444724237932
O	-6.551261263879311	8.679665335206897	11.194005234237931
O	-9.39858434387931	8.991430775206897	5.81530435423793
O	-8.97948956387931	-0.40605534479310323	-6.5712326957620695
O	-8.613270373879311	3.059428785206897	-5.2505850857620695
O	-7.1674984238793105	6.406986195206897	-5.91790553576207
O	-4.7108936138793105	3.750047245206897	-9.118198535762069
O	-2.0378706138793103	6.160090415206897	-10.040293025762068
O	0.15337390912068954	7.157959995206897	-7.24293315576207
O	3.97863576612069	6.755160025206897	-7.47631489576207
O	4.72433223612069	10.040100765206898	-5.80718332576207
O	2.2674034161206897	12.010507075206897	-7.95164050576207
O	2.7182962561206896	11.729943375206897	-11.726107365762068
O	0.3751838341206896	2.029762241206897	-10.09540494576207
O	0.36603458712068954	2.139759629206897	-6.34191701576207
O	2.31809497612069	3.737406185206897	-3.78497953576207
O	5.948916306120689	3.118005455206897	-2.6568126157620697
O	7.717352526120689	1.435375600206897	-5.38957082576207
O	10.890153706120689	2.728659945206897	-3.56299321576207
O	3.2729122661206898	7.510965595206897	-15.40680576576207
O	2.4484028461206897	-2.857338174793103	-8.212315205762069
O	5.957015676120689	-4.238560414793103	-8.455668255762069
O	8.420130436120688	-6.464533124793103	-6.51567581576207
O	6.77677157612069	-6.191736414793103	-3.07969632576207
O	9.45330512612069	-3.950045294793103	-1.3604414667620697
O	11.434352506120689	-2.8335904747931027	-4.35938382576207
O	0.8205958861206895	-6.722921244793103	-7.76997716576207
O	2.8554970661206895	-9.078219224793104	-5.53836317576207
O	6.02541372612069	-9.460670924793103	-7.58967544576207
O	-0.43055593287931043	-12.439530024793102	-4.21530986576207
O	-1.2491403968793104	-11.270977524793103	-0.7786285115620697
O	-0.5840367978793104	-8.747435324793104	4.03054442423793
O	2.46870693612069	-7.663260014793103	8.337667334237931
O	4.21599605612069	-5.244816294793103	5.92555463423793
O	-5.79074094387931	-11.769304724793104	-2.2394486757620697
O	-6.652264193879311	-9.779305224793102	0.8401449842379303
O	-5.20343720387931	-6.358210434793103	-0.03225164376206968
O	-6.32686806387931	-4.382645734793103	3.0647597242379305
O	-5.57533030387931	-2.372190904793103	8.28433134423793
O	-4.430706463879311	-5.939421344793103	8.305920114237932
