30

O	46.932024321490275	50.75457567092266	14.300755865183003
O	48.206753234748895	51.827813584901385	16.355089028710506
O	48.67189737687322	52.90977205681756	17.03458534622376
O	48.110017330636545	54.095433456678485	16.765688448727403
O	47.58199906133027	54.30627680550789	15.535555786476774
O	46.774302965092495	53.23755943583611	15.14449096112046
O	47.24831467979711	52.01004116964415	15.428990795812418
O	47.646773797210116	55.134162488727995	17.619107383284476
O	46.95710497827218	56.280488940729136	17.43507157393814
O	47.52822444816036	57.098143162502936	18.36735956426198
O	48.230884537982114	56.2627787230711	19.160579956735965
O	48.035658018413315	55.014909833921166	18.877980139700103
O	47.55151365818388	58.434569288070016	18.57312406884554
O	48.34379936262407	58.89621572367758	19.634867334648096
O	49.51722718775584	58.117202144721816	19.76283159637286
O	49.20476693322929	56.727539403913724	19.829600320470856
O	50.62191778831462	56.13131786311446	19.50737741295005
O	50.55754637300347	54.72790042486759	19.11913978470357
O	50.27103659096638	53.64707617556486	19.872223318638394
O	51.21874933686892	52.526476008361975	19.499993918465975
O	52.48451018095981	52.8195047372951	20.085108072308426
O	49.94592971533573	54.16794010964669	21.190848728376462
O	50.793178493699386	51.33787247862601	20.28385220154914
O	50.27996146061696	53.33238124622962	22.245380807025636
O	51.066043536263344	53.826489921468124	23.207539145534266
O	51.58432526004391	54.941333479362584	22.696008345878436
O	50.708451088968985	55.22959941743171	21.69285482745672
O	53.03695037018874	55.14737481444408	22.807397507739346
O	53.41320469678013	56.075890692843195	22.076831187551488
O	53.96490221261167	54.03634839177109	22.7313650937419
