85

O	-0.772459539011666	0.18336432284999948	0.03895508364999989
O	1.545499855088334	-1.0160275071500005	-1.1096426433500002
O	2.7861640350883343	-1.3028520971500006	-0.5612587063500001
O	0.36159250508833396	0.40807178684999945	0.6923754836499998
O	0.234808013088334	1.7095835028499995	1.0499388336499997
O	2.5542654250883343	-1.2924150171500006	-4.39786774635
O	-0.7185889412116659	2.24212108285	0.24489895364999992
O	-1.3466153459116659	1.3034596928499995	-0.46669462635000014
O	3.311874265088334	-2.44832734715	-6.20504751635
O	0.4933708050883341	-0.1786993781500006	-4.3920873263499995
O	-2.552115634911666	1.6476345408499995	-1.1805831606500001
O	0.10519455608833406	-2.5058908771500006	1.9064223236499998
O	-3.0157422349116656	1.1308640138499995	-2.20592077635
O	2.7565747450883338	-0.9142265271500005	-3.11351376635
O	-3.485880534911666	2.6040482928499995	-0.6372715683500001
O	2.593057725088334	-1.5771737271500006	-6.97779697635
O	1.467019745088334	-0.8417037471500006	-5.08546454635
O	1.259485995088334	-0.4990959871500005	1.29984386365
O	0.8173902150883341	-1.2808697571500005	2.4705975736499997
O	3.587544545088334	-2.0160607171500002	-4.912129316350001
O	1.8379523250883338	-1.7615321071500005	3.26410756365
O	0.883571715088334	0.28592073584999944	-3.1678853563500002
O	1.708881845088334	-0.6993862771500006	-6.4242156463499995
O	2.6442640350883337	-0.5772186471500005	0.81947311365
O	1.593004145088334	-0.6707213271500005	-2.4356739863500003
O	-9.960481494911665	0.18268306484999947	5.053337033649999
O	-7.100666114911666	2.3511361128499995	6.1092583536500005
O	-3.4976113349116664	1.7241697228499995	5.391807793649999
O	-1.3084513199116659	2.0889494228499994	8.45477926365
O	1.8718548950883338	2.8950911028499995	6.6166461836499995
O	-0.062238012911665974	5.610106872849999	4.79732440365
O	4.859223145088333	13.11323058285	9.216364999997673e-05
O	1.3529860550883341	14.12421568285	-0.8045309073500001
O	-0.657084410211666	13.90774388285	-3.96854616635
O	-0.07154168991166598	9.98145833285	-10.810839416350001
O	1.6090127550883342	7.017784852849999	-12.27106028635
O	2.413304075088334	3.8469702528499994	-10.44056401635
O	6.219303965088334	4.514472112849999	-10.080137296350001
O	2.965636015088334	6.870992942849999	-6.45876731635
O	5.168007685088334	4.060145972849999	-5.22691432635
O	8.003266725088334	6.499879472849999	-4.75706958635
O	6.225572235088333	8.53959941285	-1.96855961335
O	6.595004065088334	5.391908732849999	0.06988614364999979
O	10.247399815088334	5.40268158285	-0.8405341963500002
O	10.834960915088335	8.71208960285	0.8736546836499999
O	9.267393495088335	8.17411807285	4.3041999636499995
O	9.300399225088334	4.42955810285	4.935892953650001
O	13.043361915088335	3.9382042828499992	5.72945085365
O	-4.161645114911666	-2.70300143715	7.60383904365
O	-0.536606344911666	-3.041533867150001	6.824582863649999
O	2.0514360450883338	-5.387103077150001	5.61248373365
O	4.253842085088333	-6.515840477150001	8.561554673649999
O	6.9826515150883335	-7.49085463715	6.13761998365
O	7.198013205088333	-3.9426097171500007	4.8388580036499995
O	8.192839555088336	-2.6360035571500005	8.264748243649999
O	13.376099415088335	0.030614019849999452	1.11291119365
O	1.818163625088334	-2.4286792871500005	15.97416981365
O	-2.7084419849116657	-7.99224430715	7.66793164365
O	-1.949500124911666	-7.62484396715	4.015535753649999
O	-0.442586102911666	-10.00523861715	1.55203878365
O	1.3400279350883342	-8.270468867149999	-1.25065074135
O	0.4186785450883339	-9.04545561715	-4.9211394963499995
O	3.9522345350883334	-9.09810482715	-6.161638386350001
O	5.196716275088334	-11.34182441715	-3.34381334635
O	3.3911494750883335	-14.667049617149999	-2.90415144635
O	1.6044031050883338	-15.16982581715	2.03927912365
O	-5.887849664911666	-8.82822801715	2.78656795365
O	-4.459296434911666	-8.71339432715	-0.70226454535
O	-2.801106384911666	-5.417179127150001	-1.5941392043500002
O	-0.380866774911666	-3.866490507150001	-4.01902693635
O	-1.2708470329116661	-3.5374362471500005	-7.72240176635
O	-4.072973454911666	-5.7702312971500005	-8.872198676350001
O	-9.326561674911666	-8.42528760715	-1.0371752633500002
O	-8.357694324911666	-5.327697537150001	-2.9520925463500003
O	-10.159430384911666	-5.74894795715	-6.247981696350001
O	-11.760975384911665	-3.641723067150001	-9.01163370635
O	-9.979836404911666	-0.3534524571500006	-8.23605750635
O	-7.803706054911666	-0.2776790271500005	-11.40252288635
O	-11.610663084911666	-3.1493365471500008	-1.3721194383500002
O	-13.155577384911666	5.187421272849999	3.81552851365
O	-10.044144944911665	7.2911138928499994	3.89021796365
O	-7.486183844911666	4.845833452849999	2.56938485365
O	-4.322580394911666	6.995546152849999	2.8962179136499997
O	-0.512209920911666	10.68666348285	0.9130265636499999
O	-3.9035846949116664	12.00338338285	-0.03429569635000007
