91

O	-5.265599203021999	-5.66840978922	3.0479424093460006
O	0.45946416697799997	-5.030684819219999	0.09961961434600035
O	-0.888145191022	-5.33256625922	0.13618330534600032
O	-0.614293447022	-6.547417709219999	-0.7056250786539996
O	0.743646006978	-7.23222250922	-0.4934799936539997
O	1.0482888269780002	-6.349575099219999	0.6681204183460003
O	-2.717097563022	-0.9990832252199998	2.6314158693460006
O	-3.148961053022	-0.03925647121999987	3.5739116093460006
O	-4.352483753022	-0.001065231219999796	4.322161729346
O	-5.343666303021999	-0.8607431142199998	3.8709161293460004
O	-5.139250293022	-1.27476153822	2.5915952793460004
O	-3.838976283022	-1.2635683042199999	2.0228906693460007
O	-1.815619483022	-1.70762740222	3.3031161393460007
O	-1.273130837022	-0.8725827572199998	4.083981849346
O	-1.944255672022	0.3130267707800001	3.9941407693460005
O	0.11631825697799991	-2.2197426592199996	0.040065412346000334
O	-1.146053821122	-1.6437311322199997	0.9306651093460003
O	-0.37521167002199995	-2.65999397922	2.2247933793460004
O	0.7140764469780001	-1.7953966392199998	2.1245693293460004
O	1.187287366978	-2.02048870922	0.8364864623460003
O	1.3540911069780002	-4.979509459219999	-1.0566442706539998
O	2.722236806978	-4.54371581922	-0.7548411786539996
O	2.962386816978	-3.66037567922	-1.9659645706539997
O	1.7597276669780002	-2.81981829922	-1.8976729906539997
O	1.9599214869780002	-1.6277136412199997	-1.6635783506539998
O	0.4556671769780001	-3.24908237922	-1.7752894206539998
O	3.5321896569780002	-5.59363393922	-1.1104968406539997
O	-0.508736004022	-2.46266034922	-1.3077763606539998
O	2.704711516978	-4.47787749922	-3.0882704606539995
O	1.180379716978	-5.65503085922	-2.0970076406539997
O	-1.357621857022	-3.05691929922	3.1964044793460005
O	-0.685387049022	-1.1505991272199998	5.398058639346
O	-2.1506667830220003	-4.835036369219999	0.46094983934600037
O	-2.968660713022	-5.18358277922	1.4958550893460003
O	-4.109541703022	-4.69443950922	2.0599758593460007
O	-4.8622860130220005	-4.09775940922	1.0919574393460003
O	-4.1349133030219996	-3.44470431922	0.15931747634600035
O	-3.021753743022	-4.1145818292200005	-0.37122205065399966
O	-1.365826966022	-0.3547156142199998	6.360744349346
O	-1.089759290622	-2.25943610922	5.828886439346
O	0.372366946978	-0.49397227921999987	5.002151499346
O	-6.823427453021999	3.97134367078	-11.118749210653998
O	-11.769264873022	-6.60064437922	-6.387140220654
O	-8.419942403022	-8.33654943922	-6.873369020654
O	-7.955652943022001	-11.74076279922	-5.208387490654
O	-6.747136933022	-11.919989299220001	-1.6044338506539997
O	-7.9121553530219995	-8.34710910922	-1.0624446506539997
O	-5.065990803022	-6.74881406922	-3.2295827706539995
O	-5.363269633022	-2.9411249692199997	-3.4493308506539995
O	-2.371819923022	-1.8975771092199998	-5.397666070654
O	0.8853034669780002	-2.8196983092199996	-7.167761280654
O	3.889611776978	-0.8391888552199999	-8.476744220653998
O	7.458444726978	-1.3026889742199999	-9.741300720654
O	10.221956626978	-0.4842841192199998	-7.219291570654
O	1.692962676978	1.36969611078	-10.718710510653999
O	-2.013368712022	1.01028713078	-10.024639340654
O	-4.599893923022	1.4488423307800002	-7.249485670654
O	-8.021200603022	-0.11574301221999983	-6.867505250654
O	-12.195421873022	-4.0352818592199995	-1.9078385306539998
O	-14.226494673022	-6.97386853922	-0.6637546176539996
O	-7.784154283022	4.496656010780001	2.7207760093460003
O	-7.248348353021999	5.05932599078	-0.8433491726539997
O	-4.8920519230220005	8.013265280779999	-0.14992485965399965
O	-2.713785983022	5.54660073078	1.7285272693460003
O	-2.616193503022	2.6335805207800003	-0.8396938356539996
O	-1.561799253022	5.149137920779999	-3.5947539106539996
O	1.004400496978	6.717866430780001	-1.3034123206539998
O	2.3993085469780002	2.25809932078	-4.443788010654
O	4.133910746978	5.585930980780001	-5.297879500654
O	6.575434136978	4.95355528078	-2.4283447106539997
O	10.903259226978001	1.8266834307800002	-0.9014036756539996
O	10.370492926978	-1.8290440892199997	-0.08154992995399966
O	8.329278356978001	-2.2823456892199996	6.111697199346
O	9.351593426978	-5.57449822922	7.748289679346
O	7.238429266978001	-6.61140912922	10.676550189346
O	3.9581495869779997	3.38381820078	8.645131009346
O	2.602444616978	3.6247663307800004	5.105249469346
O	4.871726226978	1.0265125007800002	3.4888404893460003
O	3.7824686269780003	-1.8141904992199998	5.689509739346
O	2.169110756978	-4.52104313922	3.6879692393460006
O	-1.073115442922	-5.19930105922	5.560934339346
O	-4.158197863022	-2.59189274922	5.701547559346
O	-4.505667843022	-2.2069703692199996	9.366686629346
O	-7.832339333022	-0.6079959942199998	10.229640389346
O	-0.04789419302200004	5.56638733078	8.972132859346
O	0.5173305769780001	8.576436660779999	6.765668579346
O	4.256827716978	8.70058046078	7.3592735793460005
O	7.288121376978001	6.92447421078	5.946679649346
O	9.331495626978	4.74051579078	8.289847519346
O	13.274999826978	2.03988017078	6.651563779346
O	11.411526726978	3.71777299078	3.8057205993460004
