69

O	2.3420317013749994	0.13140627182499953	6.2383567664175
O	0.3682373413749993	1.1007594018249998	4.5757269164175
O	1.5810682913749994	1.3416037678249997	6.425282696417499
O	1.7111003913749991	2.083526877825	7.4371738064174995
O	-0.4456439156250007	0.37700734182499973	5.5274320664175
O	1.2200470613749994	2.0909595556249996	5.2852277064174995
O	-0.44947856562500077	0.5346584818249998	6.939601456417499
O	-0.4579836886250007	3.0062261748249997	3.6116444164174997
O	-0.5123208506250008	1.0767279618249996	2.4825010064174995
O	0.0002774713749993385	-0.5418120081750004	7.9410389964175
O	-1.1195443196250008	4.800289161825	1.9760533884174996
O	-1.8087791346250008	2.8723348348249997	1.2143054857174995
O	-1.2187212472250006	1.3496771278249997	7.934266636417499
O	-3.5753558186250007	6.0160308818249995	-0.13515812358250034
O	-2.941877328625001	6.556095781825	1.9304930594174996
O	0.06032537137499916	1.7499825438249998	3.3484435864174995
O	-3.995996708625001	9.401901421825	-1.2613458635825006
O	3.0299434113749997	-0.1992736581750001	7.340406326417499
O	-1.9158267076250008	3.1118418758249997	3.4562025864174997
O	-2.0308941706250008	4.170630891825	4.470654136417499
O	-3.4103586686250007	4.585626381825	4.2424832564175
O	-1.5625486606250008	3.705519311825	5.771136836417499
O	-1.1630310736250007	5.319386191825	4.1717303564175
O	-2.0378992446250006	3.704222781825	2.1492241364174998
O	-1.3619912596250008	5.433981571824999	0.7259286274174996
O	-1.5738830836250006	4.349688801825	-0.2857374235825003
O	-2.5800987586250006	6.207774601824999	0.8164196514174996
O	-4.284045308625	7.173146971825	-0.5614829435825004
O	-3.7658229486250008	8.503364611824999	-0.12790469358250034
O	7.474015401374999	-2.1975533281750006	-8.7644247735825
O	8.882921771374999	1.1853318318249997	-7.8681453435824995
O	7.8407114513749985	4.817148591824999	-7.6030676235825005
O	8.955926671374998	6.512115651824999	-4.4254800235825
O	7.324692801374999	8.064268041825	-1.4222892135825003
O	7.969089671374999	5.967640391825	1.6499269674174997
O	7.564087181374999	7.713765801825	5.0202137264174995
O	4.170453111375	7.542725131825	6.743895296417499
O	2.646204661374999	6.547155001824999	3.6266741264174995
O	3.8278448313749993	3.2935726818249997	2.8037293764174995
O	2.979625821374999	1.5050258738249997	-0.31220652358250045
O	3.856086061374999	-1.781685248175	0.01470552641749956
O	6.0118323413749994	-4.558288908175001	1.7611390074174995
O	6.508327941374999	-8.324625108175	1.5117467864174996
O	7.383445751375	-4.542801078175	-3.4911644235825006
O	4.759062391375	-2.040538928175	-4.479654703582501
O	5.149875981374999	1.6981872228249997	-4.9336398035824995
O	2.568912041374999	3.5116589818249997	-7.010356083582501
O	3.689791821374999	6.885129421824999	-5.634725303582501
O	2.258507721374999	8.155836601825	-2.3676880635825004
O	2.3611071513749993	11.616082461825	-0.7958975535825004
O	-7.492556528625	0.07262497182499983	-8.6749167735825
O	-5.6040549286250005	1.1152956718249998	-5.665948363582501
O	-2.394591658625001	-0.36765201817500026	-7.077942513582499
O	-5.141035718625001	-3.7040242681750004	-3.974177043582501
O	-1.6886201236250007	-3.000714918175	-2.5584381535825003
O	1.659484161374999	-7.711657768175002	-0.6024773035825004
O	-0.9526592186250007	-11.590573208175	8.2414646864175
O	-6.670416058625001	-8.645732108175	9.3417615864175
O	-9.519036908625	-4.647238678175	13.4333119264175
O	-10.974601768625002	-7.066097208175	3.1340894764174996
O	-7.742144258625	-6.7520481581750005	1.1850138547174995
O	-5.389152998625001	-7.8469993081750005	4.007114586417499
O	-6.5329861386250005	-4.9223955281750005	6.1666182064175
O	-3.5897608886250008	-2.795236738175	6.7869042264175
O	-5.067706288625001	0.5670517218249997	5.8725256464175
O	-5.583902818625001	1.8142969428249998	2.6471402664175
O	-9.118303008625	3.0559862648249996	3.4248251564174996
O	-10.488568798625002	5.313415121825	0.7872221194174995
O	-11.891908628625002	-4.4584518781749995	-0.49738296358250045
