87

O	5.972192661614545	1.120369638390908	2.9725995588000003
O	5.665390351614545	-1.9997723671090921	1.5639939788000006
O	-3.413115488385454	2.532354632890908	-2.4870138211999997
O	4.743208251614545	1.640089893890908	2.6657863688000005
O	-2.7646679983854545	2.209914912890908	-3.6012774811999995
O	1.7191154016145453	0.487058267890908	0.9854586288000003
O	3.9126104116145455	1.065138069690908	1.6795891288000004
O	0.23662486561454543	2.678091352890908	-4.1656893512
O	2.062037241614546	2.817766762890908	-5.4289012412
O	5.553742961614545	-3.2043145271090916	-0.6326009331999997
O	-1.6406495483854546	4.137752262890908	-3.5269788511999995
O	4.920352951614545	-2.499320577109092	0.5466376788000004
O	3.5834998016145456	-2.321290447109092	0.7197430688000003
O	3.2372437516145456	-1.012748107109092	0.9133987988000004
O	1.8628143516145454	-0.7406840871090921	1.4505715188000003
O	1.6248057816145454	0.12914494289090794	-0.3737599191999997
O	1.6686361816145454	1.300253030890908	-0.8406857956999997
O	3.0847108616145458	1.595280139890908	-1.3692516471999996
O	2.7902955316145457	0.7539199548909079	-2.6268680811999996
O	3.4099680016145455	-0.2787629971090919	-1.7228900391999997
O	2.1449101216145454	-0.9534119871090918	-1.1991288041999997
O	0.4101580586145454	0.6283385868909079	-3.5496626211999995
O	1.8460730616145453	1.030172078890908	-3.6386436311999995
O	2.3660808816145456	0.23603003089090802	-4.8470860912000004
O	1.6504385616145454	2.388740982890908	-4.2677400612
O	-0.10583190918545456	1.922666655890908	-2.9902847711999994
O	6.044045271614545	-0.2570499071090919	2.9930736688000006
O	4.192332791614545	-0.21578461710909203	1.4509125588000003
O	5.329000231614545	-0.7841069371090921	1.9062468888000006
O	-0.8952421833854545	2.654287002890908	-5.1261602612
O	-2.0453596583854545	3.230285622890908	-4.3324827911999995
O	-0.5195732343854546	3.6572766128909078	-6.1310485212
O	-7.469125308385455	-10.53805333710909	-3.7358156611999997
O	1.1714884416145455	-7.624011987109092	-12.4583419712
O	-0.46895992438545453	-4.222982877109092	-12.9112780712
O	1.3448997416145454	-1.6223254071090922	-15.0535688712
O	3.7010550016145456	0.826670680890908	-13.2566602712
O	4.085099971614545	-1.6804099871090918	-10.486062971199999
O	0.5939849426145454	-1.0015308971090922	-8.9476418612
O	-0.22661782948545456	-3.2135606971090924	-5.9380756112
O	-3.588767988385454	-2.046816737109092	-4.7884595412
O	-6.563914418385455	0.301845756890908	-5.4010454412
O	-9.573182178385455	1.359448691890908	-3.2941697711999995
O	-12.300392128385456	4.006088932890908	-3.0955278611999995
O	-11.741659128385455	6.729320742890908	-0.48275819219999966
O	-10.820553528385455	-2.256819037109092	-3.0311379911999996
O	-8.296995458385455	-4.829891777109092	-4.2171946212
O	-4.817564018385455	-6.181700077109092	-3.5304837511999994
O	-2.4124097583854542	-8.00324449710909	-5.8331933812
O	0.36008347161454546	-10.084826437109093	-4.3112683712
O	2.2259908416145455	-10.295048537109093	-7.6057436712
O	4.702838651614545	-7.524532187109092	-8.4820916512
O	7.195151881614545	-7.523952217109092	-11.3846240712
O	4.515228501614545	-8.64889067710909	5.4152743588
O	4.468786321614545	-6.536764387109092	2.2354671388000003
O	1.0583571416145454	-7.804232117109092	1.4031270988000006
O	-0.10833429108545456	-6.997281357109093	4.9327467588
O	0.8705903916145454	-3.419380067109092	4.3385705988
O	-0.8284173163854545	-3.0806952871090916	0.9622375688000003
O	-4.146657018385455	-4.252872607109092	2.1828600888000005
O	-3.8300340483854542	-2.078546277109092	5.2806067488
O	-6.120705548385454	0.10209114289090793	0.5076973688000003
O	-8.458699698385455	-0.35200015710909205	3.5520030288
O	-7.026605468385455	2.929348572890908	4.8606629488
O	-7.408087418385455	8.415448162890907	4.4036150588
O	-5.667605568385455	10.04949490289091	1.4646200588000005
O	0.6194277116145455	10.854433212890907	3.0915132888000003
O	5.824778961614546	13.717720862890907	0.8858750188000003
O	7.206231391614545	6.451679332890908	6.2092403988
O	3.7450024516145457	5.504102172890908	7.4902179588
O	1.4714919516145455	2.973177012890908	5.7971756188
O	-0.41511884438545454	5.4614974428909075	3.6249249188
O	2.7070879016145457	6.580280962890908	1.8380909688000004
O	2.276099711614546	6.160926312890908	-1.9422382211999998
O	5.734023551614545	4.249931592890908	-2.5268258811999997
O	6.689741541614545	0.6316408978909079	-1.2377600641999997
O	9.865174771614544	1.638322492890908	0.27773451880000033
O	11.911804071614545	-1.4930326271090921	0.9184806188000004
O	13.135824771614546	-2.516859177109092	4.3029223588
O	10.888191371614544	-2.5139448371090922	7.3136163788
O	5.583558361614545	1.359411497890908	8.1031500788
O	2.8510505116145457	-0.4364550271090921	9.985447328800001
O	1.4162573716145455	2.677617972890908	11.549698128800001
O	-0.9510109203854547	5.457335582890908	10.514702528800001
O	0.4374715476145455	8.978410612890908	10.2653201288
O	-1.2759133883854545	11.840616462890907	12.062703928800001
O	-4.1394420583854545	9.52379928289091	8.1816647788
