29

O	40.73022114247645	30.792416827214797	-0.6812299258860479
O	42.66484687076896	28.794112554937968	-0.29803823183134437
O	41.519625716903036	30.0607911163203	-1.6639783815622113
O	41.55606293884122	30.31857703824963	-2.8634371559086436
O	43.46532160216056	30.000449672290724	-0.2574990893669251
O	41.50515716247136	28.70408691669978	-1.190805612657961
O	43.47537589387676	31.164388023592256	-1.0831649826462542
O	43.50391894014974	27.287438072430447	-1.7632953965594664
O	43.74020867380731	26.950993594367624	0.4931185439973689
O	43.202466916030694	32.58469201376937	-0.5327194741655918
O	44.053088778401005	24.998567009411435	-2.7399446545368598
O	44.824508493295255	25.04694078375516	-0.7649964028535363
O	44.35487948153187	31.700560273458315	-2.167448475300189
O	46.43073904066891	22.3773719166459	-3.65364050012699
O	46.314083496289555	24.489370319048483	-3.324314244655003
O	43.123915365862615	27.435858327076502	-0.4424519868832615
O	46.310912192059156	22.927823268456663	-7.0326105690165175
O	40.06591055693264	31.817585674312845	-1.2887561070976625
O	44.90656004282943	27.052400987017855	-1.959827058194045
O	44.86464473149839	27.607661113953082	-3.3210090104801973
O	46.270291936494374	27.584046777139896	-3.7191852146701647
O	44.20016771400897	26.652424013270533	-4.240018165682965
O	44.25549814937659	28.90681084513677	-3.595456142771882
O	45.01404219995319	25.622407667253455	-1.8543816298935996
O	44.38118195041523	23.620526942898255	-2.9188670599425963
O	44.83225324112012	23.02689156662727	-1.6203698952677597
O	45.60221407478664	23.574994625753984	-3.784827931345701
O	46.98141592083027	22.032237700006334	-4.9365053835065655
O	47.156496988717755	23.181769872338386	-5.883636416556621
