32

O	42.185402586038414	33.940707040305654	4.153905827348034
O	42.31426444468273	33.56748721519226	2.7733069896416858
O	40.952339371981274	33.80494401593699	2.3280242893881056
O	40.285408686807465	34.73175532690301	3.0993938051384187
O	40.933743823813444	34.61664795559065	4.398650819136947
O	40.81174487392432	35.862359400243406	4.785859337096284
O	43.18802934446898	33.925712963021056	1.9297438194690977
O	40.76712695719584	33.865691945016756	0.8711611573885563
O	41.85300081813135	33.41756467366865	0.17576538430548183
O	41.69794904001481	32.55855667470593	-0.8515445980408085
O	40.53132199017655	31.870860689582457	-1.163354081257439
O	39.43572238635867	32.50289484659102	-0.651259955566605
O	39.54796402354554	33.27632461132372	0.5102890832880309
O	40.50346446597974	31.54565854878382	-2.5898850976222842
O	41.681795851070184	30.9844205035099	-3.0811252333762287
O	41.95800142289494	31.044852764797735	-4.441380756078956
O	41.48629405317426	32.21144746551161	-5.043602027614053
O	40.376270837202505	32.859173885881034	-4.609176175407374
O	39.90057023465655	32.47405099344715	-3.3912502486973715
O	40.94551982455053	31.608955083572614	2.0739971915894477
O	42.33773228744371	31.36451065153918	2.0797046533554333
O	40.30068142976852	30.43060760040279	1.7611530472476389
O	40.42165820409692	32.58582709906245	2.951268258591528
O	41.261313062357495	29.525100889020653	1.168300754705231
O	42.45861091223121	30.252862101580607	1.171767603028063
O	43.28124684966392	29.870031751920592	0.15427749187601592
O	43.29354843671856	28.533876049632838	-0.14289884980828216
O	42.8028984557807	27.672070255841934	0.7961929192291981
O	41.62392333663182	28.180549896671216	1.3746720581821363
O	39.082427245142966	30.345680788498523	1.6023874647354566
O	43.21057543535026	26.401550145745944	1.0661690455220336
O	43.99390619956555	25.973553745855572	2.135240419042198
