29

O	42.187121561643885	30.37836536439803	0.6089577225087228
O	42.90843208685159	28.778069695369037	-1.3390089599978094
O	42.84306728414135	29.11903418310598	0.8616066891367491
O	44.05985019469824	29.25264051728424	0.8713883755164291
O	43.77709045220532	29.87281650995432	-1.0901503203366647
O	42.15621091779632	28.34466692306456	-0.12358265685272096
O	44.02663667145571	31.131212948919696	-1.4343100242633038
O	44.38135049416921	27.270059351877936	-0.6458354612841721
O	42.45790204479805	26.62303548631697	-1.9432005994235637
O	43.371470799491775	32.54388615881237	-1.3934534542709245
O	43.70176282064489	24.604624243280387	-1.262810976626486
O	44.817666739876486	25.167816987863354	0.5908763796413745
O	44.55741758080173	31.44164882547222	-2.904512181606799
O	45.70276333107187	21.748459519772947	-0.7520614644564398
O	45.934066780051076	23.507224729129117	-1.6390902189934446
O	43.24883820071996	27.396940093450546	-1.4644582266991262
O	45.623340298345184	18.930030683227766	-3.032410997268171
O	42.29522566308998	31.48736653751933	1.227847820949291
O	45.27451803389573	26.42387430094778	-1.2603457876456514
O	45.06805290565745	26.449844608643065	-2.704813986470834
O	44.632784099853	27.734720086648434	-3.3193484958412074
O	44.2546205308953	25.41730762666242	-3.3103405305848077
O	46.427248365292556	26.178958135466043	-3.0989846502786373
O	44.863054213273756	25.208375286952403	-0.6807919603976686
O	43.773203304334366	23.245741504476054	-0.879239755415965
O	43.97612842105971	23.208348369517985	0.6071174631470506
O	44.978506647223256	22.67375020485	-1.549476772362795
O	46.05209396170531	20.600206875336095	-1.4329272038188532
O	45.71475051176	20.382390461887198	-2.866212629811987
