69

O	4.441617285525	-4.898085973200001	-0.7733736856737501
O	2.361523745525	-3.3319531032000005	-1.88476740667375
O	4.218039995525	-4.586585713200001	-2.17366854517375
O	4.885467415525	-5.035675403200001	-3.11359301567375
O	1.814148885525	-4.666443523200001	-2.00234237567375
O	3.763670985525	-3.2534481432000004	-2.33506743367375
O	2.401311475525	-5.833072223200001	-2.56258280667375
O	2.132745955525	-1.8928505432000005	-3.68987941567375
O	0.7695204435249999	-1.6699091932000005	-1.90541380867375
O	2.791646325525	-7.078283323200001	-1.76624222667375
O	1.669001505525	0.18734576879999945	-5.06364904567375
O	-0.06364719897500001	-0.14811610820000054	-3.76467793567375
O	2.393033875525	-6.486615733200001	-3.9082790156737497
O	-0.632142153475	2.3397366367999997	-6.87072872567375
O	-0.239641204475	0.20457183379999946	-6.63559933567375
O	1.845575065525	-2.0764586832000007	-2.34002625967375
O	-0.6982383724750001	4.549032996799999	-9.08814873567375
O	5.393770545525	-5.827328583200001	-0.6226005656737501
O	0.923811345525	-2.0444294632000006	-4.52347931567375
O	1.662987365525	-2.5614153432000006	-5.6726061256737506
O	0.558451389525	-2.7803586932000006	-6.60979598567375
O	2.5687901655250003	-3.6676243232000005	-5.381016275673749
O	2.458009295525	-1.4879950032000004	-6.29355871567375
O	0.555583020525	-0.6769053872000005	-4.72551218567375
O	1.164931255525	1.4443057267999995	-5.4994629056737505
O	0.13797809452499998	1.8441867167999995	-4.43601677567375
O	0.354059630525	1.2975647967999995	-6.71787038567375
O	-1.179933194475	2.4275516167999993	-8.17895553567375
O	-0.131740636875	3.2011269767999995	-8.974871645673751
O	2.035332705525	8.4050953868	7.91830804432625
O	4.826031465525	9.371026776799999	5.56986441432625
O	5.405930915525	10.4654785668	1.9970844243262498
O	8.216552355525	8.6501035868	0.25464172432625
O	8.589764045525	6.322466346799999	-2.67440751567375
O	9.553955155525	2.8781910167999993	-1.49863625767375
O	11.186093955525	0.5504500717999995	-4.05146858567375
O	8.951917555524998	-1.8307061132000004	-6.0091942756737495
O	6.079943305525	0.18153825979999946	-5.12656710567375
O	5.550442615525	-0.16788567220000056	-1.61883648467375
O	2.915506265525	1.5978730967999994	0.2861191043262501
O	2.600892165525	0.08349142279999947	3.36522603432625
O	4.077998105525	-2.1529671332000007	6.228733994326251
O	3.018662495525	-3.4423368432000006	9.64410324432625
O	3.174886125525	2.7577860567999997	8.353725544326249
O	1.4955588555250001	4.116286576799999	5.27329071432625
O	3.024646715525	6.190709536799999	2.4935289443262496
O	0.704686804525	8.2304440268	0.3198055043262502
O	3.447553765525	8.7290416468	-2.28420789467375
O	4.013118965525	6.102424996799999	-4.94386999567375
O	5.903501325525	6.172383656799999	-8.23069667567375
O	-9.700661134475	5.978143006799999	-1.31967247467375
O	-6.528315274475	4.198722376799999	-2.12017467572375
O	-4.929947864475	5.517773306799999	1.0772331343262498
O	-7.260368644475	0.7641060587999995	1.63374321432625
O	-3.547955424475	0.6157486777999995	2.36459309432625
O	-1.676533034475	-2.4028686532000005	7.35925719432625
O	-1.808819794475	-12.3937413332	6.79957601432625
O	-5.083834324475	-13.3611131332	1.2388156043262502
O	-4.390643654475	-15.8513786332	-4.60752389567375
O	-10.606391244475	-8.2178301732	-0.39566785567375007
O	-8.537882214475001	-5.651455293200001	1.46836271432625
O	-5.837724234475	-8.0706561332	2.71889795432625
O	-4.875383874475	-8.9536716632	-0.8618505156737499
O	-1.366762624475	-7.938311913200001	-1.3719263296737498
O	-1.749989684475	-6.013956413200001	-4.61884148567375
O	-3.009704224475	-2.7839137732000006	-4.98807263567375
O	-5.326634224475	-3.7575764632000004	-7.92576757567375
O	-6.667166244475	-0.7693951032000005	-9.75249467567375
O	-11.868257944475001	-4.119520013200001	-1.96503370567375
