41

O	45.13867076537196	26.651296065885635	-2.6944453807811506
O	43.396677278817776	31.47782495240478	1.2483618211744378
O	43.14205571599932	30.402672669546856	0.4190634927675463
O	42.011310666071005	31.177276832227896	-0.19811087631419966
O	42.192283389199105	32.699954213110765	-0.27975142478004145
O	43.602839313128925	32.5940355958214	0.18961245036782692
O	46.5760225787323	26.870503758915078	2.4394550156844392
O	47.69871449027043	26.06776801029786	2.741530968494513
O	48.23938665306197	24.978220452338267	2.0132704150971463
O	47.4037902921388	24.464724594537593	1.0318366541653514
O	46.10278242081843	24.81914614043989	1.209664898162595
O	45.76007841148786	25.975331577504463	1.9580310652978214
O	47.11510744052308	27.99846762114342	1.9889398999623285
O	48.18767578692087	28.123406468827806	2.6487369701897663
O	48.3773062393307	26.9966997602428	3.3962141946201303
O	44.170470440502136	29.927488719563872	3.4889852508167856
O	45.00450896059441	28.548845569658646	3.139323735460065
O	46.01281509852566	29.70136071297573	2.16117070451185
O	46.346397085786506	30.29556907544211	3.377625184597731
O	45.13505716039944	30.807557959998974	3.8295936063890528
O	42.45633096148183	32.24700487795181	2.063244325961711
O	43.07345860838827	33.28455375786476	2.897192554959662
O	42.24743227949874	33.09844894849119	4.157282712367898
O	42.40086259287835	31.648852633462035	4.3381670467924485
O	43.02240352274292	31.303899553072412	5.343495662967782
O	42.19325000497522	30.66984428533814	3.3904018766099195
O	42.52808233542759	34.47170757462241	2.475205393911644
O	42.73892377527291	29.4616002782545	3.4878088672131367
O	40.90092209941866	33.21808114119871	3.7487796278375574
O	41.24327746200781	32.37998607226651	1.7809714794392284
O	46.65899303578519	29.00448407324414	1.0825027123951338
O	49.41919580308784	28.785677486581342	2.2079544601453343
O	43.420325824432915	29.053318266803874	0.19820492746729013
O	44.16478890988998	28.483143415666074	-0.7929070235453217
O	44.68269747548433	27.248834173800994	-1.052433955106407
O	43.851911231269234	26.300966208940473	-0.5318080461786714
O	43.28562016856502	26.65625698110904	0.6422669982394824
O	42.7387040615743	27.945864653575015	0.7266891349311386
O	50.473681132045904	27.832579133280213	2.261405775351471
O	49.41845045731081	28.916854755267472	0.9583781622267011
O	49.40559058144932	29.4407412747465	3.3381982959835317
