29

O	41.17385333623096	31.296746770270943	-0.6874919761381184
O	42.85558068761272	29.04277220314799	-0.36168671052721946
O	41.87748561233601	30.55908573583478	-1.7212244020703502
O	41.89840505681911	30.86600236173512	-2.919541339472691
O	43.8165423135015	30.124816143493895	-0.35524803853258247
O	41.87006474886475	29.16729690394674	-1.4517334797371935
O	43.97940449608185	31.188359510602503	-1.2836893059538004
O	43.35913775239534	27.13989236672018	-1.5893932842067104
O	43.6139435608685	27.121019641260176	0.6527311469690913
O	43.72632267778038	32.66298943766595	-0.9698637660490017
O	43.64554567338156	24.707798747595337	-2.246971977811596
O	44.61332690699376	24.98580998068206	-0.30068284541472545
O	44.81016057138985	31.41427597488692	-2.507164691707809
O	45.6204455128575	21.660225327248995	-2.322154618833587
O	45.92002419180838	23.80504067969247	-2.6019604086566637
O	43.056787393313826	27.62589863157828	-0.3202735960831786
O	45.91047396284699	18.961582378224524	-3.882769993966399
O	40.63636498391854	32.4249398078276	-1.1682278013269065
O	44.78293502080274	26.765152674782417	-1.697833845281655
O	44.861086065832964	27.092743291168006	-3.1193558522657123
O	46.26778307300077	26.775608752056822	-3.3779867873879197
O	44.35950943410872	28.414727636838247	-3.479883150614253
O	44.11413129108007	26.102278347296338	-3.9136548979465524
O	44.710662658742876	25.3498295720849	-1.5024657337963014
O	43.8277469653149	23.297811372467173	-2.194941556752941
O	44.06585737961118	22.988310592928613	-0.7140742532676052
O	45.09243109437987	22.902010881311746	-2.8332819870717967
O	46.62752728932378	21.08167031691832	-3.1408757418332445
O	45.85167799316194	20.379494736690248	-4.252458511464567
