29

O	41.50812900137523	31.06124873711819	-1.2635309411213589
O	40.50320393168668	31.729701410869072	-0.6789152058176349
O	40.60430848872799	31.55078882632689	0.7840551320858129
O	40.96156634405599	30.205119398382898	1.1353984350722577
O	41.947047698780814	29.658504649306934	0.5196481680035001
O	42.5992927778625	30.395401363491917	-0.6209315914841413
O	43.01861534104899	33.17598329191828	1.035691970596547
O	43.25770800522451	32.04690811681361	2.2526327089958578
O	42.59331358990589	32.091579258431246	3.439874532000224
O	42.18364135837569	30.913969785845833	4.089109250140795
O	42.84886582323605	29.76077848229374	3.6822289598029827
O	44.16568073862794	30.066405800081718	3.345844373121433
O	44.197565728424905	31.05907752600392	2.3702374241746464
O	42.19275115190462	28.53412116590977	3.5279234143306653
O	42.88618765083287	27.383289507437574	3.130649410201241
O	44.27086406014228	27.771546554559336	2.9822617594927703
O	44.982641110731954	27.811129417356145	1.9885802700741424
O	43.045615406805425	33.552388085956615	-0.36064689902310576
O	44.158545277599	32.88010272080185	0.18407649415070892
O	40.17989141715175	33.1040536184925	-0.8643485925060839
O	40.05671012903024	33.62033073673002	0.2970725100064273
O	40.13784668654876	32.625372131444756	1.339569622986411
O	40.29368688422115	33.13715427199327	2.6797927760383033
O	41.45000547371724	34.01915151000122	2.766595670691662
O	41.53232924604479	35.202731715800894	3.570703633339627
O	41.91470979360815	34.29239468933952	1.4571486011727535
O	42.27644869956177	35.07837048569239	4.592569012776723
O	41.772811413246366	36.42153819452745	2.9254507129101186
O	42.991677043944314	28.768184759137522	0.2869929706625367
