70

O	-2.2999972084818197	3.9020243119090914	-0.4383396838454543
O	-2.7571558134818197	5.001142451909091	-1.0981022438454544
O	-3.0564395034818195	2.985526078909091	-1.0392677518454543
O	-3.1872725034818195	2.1659812789090913	2.520407834154546
O	-3.8028725734818196	2.908323223909091	1.5087312341545456
O	-2.932333293481819	4.001351831909091	1.4423815441545456
O	-2.4312224034818195	4.2172957519090915	2.7205818041545458
O	-2.247505503481819	2.905949509909091	3.275558924154546
O	-2.3979182264818193	2.988777038909091	4.5552484941545455
O	-5.049636883481819	3.176365921909091	1.6705137541545456
O	-3.8540857134818194	5.0786666219090915	0.8703600741545457
O	-1.6549227432818194	3.627576461909091	0.7948405141545457
O	-2.8753206834818195	3.4114224119090912	-2.3731890458454545
O	-2.7156560134818193	4.811705701909091	-2.4103614958454544
O	-2.1253194134818196	5.069515001909091	-3.660166465845454
O	-1.0767768344818194	4.2043730619090915	-4.105830765845455
O	-1.4272231534818194	2.900108416909091	-4.271375155845455
O	-2.3378679514818193	2.548316807909091	-3.3221984858454543
O	-3.1772264334818194	1.7881713579090912	-0.7132467898454543
O	-0.5398709634818195	1.8452995579090912	-4.577570405845454
O	-1.1622138824818193	0.6421648519090912	-4.946045805845454
O	-5.02383535348182	4.743428791909091	0.08167112815454569
O	-5.82693146348182	5.7714138819090905	-0.42846419484545434
O	-6.007367063481819	6.861070081909091	0.3704769501545456
O	-5.35229989348182	6.90639241190909	1.5666106741545458
O	-4.458647183481819	5.864268951909091	1.845590324154546
O	4.73436270651818	8.048361641909091	5.704473374154546
O	3.5153262665181804	7.238775851909091	9.192600344154545
O	11.10178124651818	-1.6623202080909087	4.100572794154545
O	11.34418374651818	-0.9649745480909089	0.37519539615454567
O	11.86109004651818	2.6551283059090913	-0.4903233186454543
O	9.83271984651818	8.30663881190909	-2.4060807058454543
O	6.692395886518181	10.137663771909091	-3.3051912758454542
O	4.40926121651818	10.19200075190909	-0.2774384978454543
O	1.7404153665181807	12.904333671909091	-0.15941942184545432
O	-1.6468914832818193	12.136125451909091	-1.7241038158454542
O	-0.03765648348181938	9.453381421909091	-3.8063286758454544
O	0.45413538651818053	6.94375336190909	-0.8034577508454543
O	2.046333376518181	3.702738961909091	-1.7277455458454543
O	2.454175786518181	1.6144490939090912	1.3280275041545457
O	1.8161479065181805	1.2438698069090912	5.0279637741545455
O	1.7079604365181806	-1.7036051780909087	7.454481324154545
O	0.3839733265181806	-2.5999842380909093	10.898190944154544
O	-2.761052793481819	-4.781544918090908	10.946233644154544
O	5.376840686518181	-2.460986278090909	6.815699174154545
O	6.76393200651818	-0.570956318090909	3.824259404154546
O	6.32265546651818	-0.13231574809090896	0.08334011815454567
O	7.24841898651818	2.7791612429090913	-2.1056373258454544
O	1.7904895165181807	-2.731888248090909	-9.500585965845454
O	4.515187656518181	-3.065360998090909	-6.906026545845454
O	3.5922497665181807	-6.723658368090909	-6.4414663758454545
O	0.09159949651818056	-5.67351788809091	-5.561197745845454
O	0.9767134665181807	-2.9075416280909088	-3.0411866758454544
O	3.2800893065181804	-5.230131058090908	-1.1087582988454543
O	0.6638470565181804	-7.95073252809091	-1.2003318948454544
O	0.5664590965181806	-4.128754938090909	2.959546554154546
O	-2.3756102804818195	-8.387953328090909	3.866705684154546
O	-7.025094933481819	-7.783724788090909	6.754564874154545
O	-8.63240854348182	-4.350194388090909	6.628874324154546
O	-12.34283845348182	-4.020107008090909	1.3169628641545459
O	-15.35462155348182	-1.7235935380909089	1.8843627841545456
O	-6.07008768348182	-6.68593161809091	-3.569038685845454
O	-7.210616813481819	-5.202256398090908	-0.2699040688454543
O	-9.16406126348182	-2.500035778090909	-2.1309516158454542
O	-7.79408150348182	0.851829551909091	-1.1677751338454543
O	-7.310238433481819	2.501388663909091	-4.5275115758454545
O	-4.7749054734818195	1.3938306539090912	-7.2391524558454545
O	-7.282714763481819	1.110569721909091	-9.940707835845455
O	-5.450738223481819	1.072001621909091	-13.276394055845454
O	-10.049126373481819	-10.343932428090909	3.5246603841545454
