69

O	5.1216629506	-4.162626940725	-0.40027155900500033
O	3.5764731606	-2.6367201507249995	1.2058756771949997
O	5.4756803206	-3.8096617407249993	0.9478799999949996
O	6.5012443106	-4.211152250725	1.5277803379949997
O	3.1115565206	-3.985974830725	1.5319999759949996
O	5.0244073006	-2.6119255007249995	1.5293655429949997
O	3.9479575706	-5.063770080725	1.9649688259949998
O	2.4624089006000003	-1.780564690725	2.8978798809949997
O	3.9187405706000003	-0.4076369127249997	1.9712281259949997
O	4.1749456206	-6.387159880724999	1.2407788612169997
O	3.2992284606	1.0600408192750002	3.9853653909949998
O	1.3263620946000003	0.4321000104750003	3.262595070995
O	4.5171520006	-5.4869835107250005	3.2776203109949997
O	1.3982975636000001	2.7761358692750004	6.2475714109950005
O	3.2915773106	1.6410798192750002	6.404822430994999
O	3.1205920806000003	-1.3746108107249997	1.7502882909949995
O	2.0088468806	5.720615389275	8.043728330995
O	5.9820956906000005	-5.092070150725	-0.9012248190050003
O	2.6073119606	-1.2415816007249998	4.143642110995
O	3.9085316806	-1.4385805907249998	4.737080090995
O	4.9004247606	-0.3664943037249997	4.637412020995
O	3.3893847506	-1.3772899507249996	6.164621770995
O	4.7018086806	-2.652706950725	4.6537040709949995
O	2.2491530406	0.1293172752750003	4.086582380994999
O	2.8133674506	2.350271739275	4.305596080995
O	1.4610095356000001	2.5145035592750005	3.6813742709949997
O	2.6736792606	2.4774583692750003	5.749889720995
O	1.3758337626000001	3.503680709275	7.475897190994999
O	2.5434516406000003	4.389610099275	7.751318400995
O	-2.2629573294	7.161133099275	-9.001832149005
O	1.0140459756000002	8.756890199275	-8.027300649005001
O	2.6781278706	10.467556959274999	-5.086514689005
O	6.1654668906	9.224945849275	-4.360694179005
O	7.9243594006	7.448203279275001	-1.5610514790050005
O	8.8943912406	3.9617938092750005	-2.625462429005
O	11.669560540600001	2.2599945292750006	-0.6226467390050003
O	10.7090487406	0.0715531092750003	2.341319330995
O	7.4380399506	1.6226258792750003	2.3479499109949997
O	5.7329473406	0.5950639592750003	-0.6455370190050003
O	2.3484281506	1.7694272292750004	-1.6004734590050003
O	1.1345117976	-0.22381865772499965	-4.082837759005001
O	1.7995779706000001	-2.7524142907249995	-7.010438679005
O	-0.24002026639999985	-4.662715070725	-9.588412549005001
O	-0.5419453593999998	1.6505698092750003	-9.183256749005
O	-1.1645685693999996	3.3295003692750003	-5.877000039005001
O	0.9503002396000002	5.963200159275001	-4.161370549005001
O	-0.6882624293999998	8.089770129275001	-1.5012274390050004
O	2.7015796506	9.253157429275	-0.19901100900500035
O	4.5742766106	7.128478339275	2.3159511609949996
O	7.5283248206	7.973159089275001	4.557979210995
O	-9.3163781794	5.172019819275	4.239803860995
O	-5.8582104994	3.8530447592750003	3.9492279409949997
O	-5.7519073594	4.774708449275	0.2548109599949996
O	-7.390001529399999	-0.19653419272499972	1.1837972551949996
O	-4.1832227694	-0.13704815772499968	-0.8663833390050004
O	-3.8878896294	-3.7011813907249995	-5.828761779005001
O	-2.3593181894	-13.448157240725001	-4.129364909005
O	-3.1894697394	-13.812283240725	2.3361356809949996
O	0.02246074560000011	-15.250327640725	7.6742878309950004
O	-8.3890841294	-8.996923730725	5.384781070995
O	-7.5488145394	-6.582881350725	2.5856896909949993
O	-5.1710092294	-8.903879250725	0.6719841279949996
O	-2.8521458794	-9.117567200725	3.6877244909949995
O	0.40475343960000015	-7.724602780725	2.6853301209949993
O	0.9717193786000002	-5.3384644807249995	5.557592390995
O	-0.5039878693999998	-2.1916908707249996	6.053178770995
O	-1.3717458593999998	-2.8646096307249995	9.725299360994999
O	-2.4225855394	0.2136460842750003	11.562191950994999
O	-9.5683958594	-4.8353431607249995	6.844542470995
