71

O	-1.6172441231799999	3.5623139893399998	-1.0913196881999994
O	-2.68482105818	3.3931871293399998	-1.8823112081999995
O	-1.3592397211799998	2.3918431793399995	-0.4153561021999994
O	-1.5985613181799998	5.64893660934	1.6346314918000004
O	-1.6149287071799998	5.6289060293399995	0.25519206780000064
O	-0.2815311211799998	4.9754635693400004	0.048268266800000625
O	-0.4810956581799998	4.005715179339999	1.1479471418000005
O	-0.5734262871799998	4.89829434934	2.2263464018000008
O	-0.35914099117999976	4.94826707934	3.4376711218000007
O	-2.6380647781799995	5.546018689339999	-0.4239444501999994
O	0.7781001318200003	5.96810623934	0.3480099038000006
O	-0.39892324217999975	4.38187985934	-1.2564185131999994
O	-2.3244071781799995	1.5643703533399997	-1.0347436961999994
O	-2.63495532818	2.1220684303399997	-2.294457758199999
O	-2.9217708281799997	1.3021103805399998	-3.3962732781999994
O	-2.3226736481799994	0.01964908933999987	-3.1955763081999993
O	-2.89472573818	-0.5553662706600002	-2.0491560681999994
O	-2.4031349881799997	0.22920318933999972	-0.9996413681999994
O	-0.1630547151799997	1.9381831783399996	-0.1842893291999994
O	-2.79556816818	-1.9143158206600002	-1.9548458981999994
O	-3.40907901818	-2.6469933306600004	-3.0208257381999997
O	7.29709607182	9.421974999340001	-0.8936455091999993
O	12.50227729182	-1.02418122066	0.1871101718000006
O	11.41472899182	-2.0583704106600003	-3.3059045981999993
O	11.67419319182	0.6933681353399997	-5.8627595582
O	9.18263349182	5.293968039339999	-9.4453126082
O	5.90916479182	7.08533462934	-10.0290386482
O	4.88577802182	8.82364629934	-6.8186499882
O	2.4785685518200005	11.761711269340001	-7.109896838199999
O	-1.2613266301799997	11.04176932934	-6.7902177582
O	-0.6603764981799998	7.47962753934	-7.8323532282
O	0.8759732018200002	6.36885830934	-4.4999545482
O	2.10242496182	2.82498846934	-4.381201668199999
O	3.5559324918200006	2.20854362934	-0.9752580001999993
O	4.100184581820001	3.64500707934	2.5255012218000004
O	4.89859199182	2.1260789063399996	5.9154090618
O	5.03971217182	2.9349315893399996	9.6318257018
O	2.1646386918200005	1.5234513183399998	11.7223548918
O	10.22733569182	0.1170048293399999	7.612016591800001
O	8.08346631182	0.5100641853399998	4.5604856718
O	8.39247456182	0.5882138473399998	0.7942026618000007
O	6.67407117182	-0.5684152406600003	-2.3911187181999995
O	6.83497833182	0.9073488133399998	-5.8689938482
O	2.3889489918200004	3.4686774693399998	-11.4495435082
O	-1.2450150471799997	-5.97435243066	-7.7295886782
O	2.2705805918200004	-5.76035434066	-6.3262456382
O	1.4781383218200004	-8.65282575066	-3.9922590481999993
O	-1.3891189461799998	-6.66651428066	-2.5773142581999995
O	0.5000347118200004	-3.35071475066	-2.040530328199999
O	3.25706667182	-5.039661160660001	-0.11324258719999938
O	0.6998556218200003	-6.969491260660001	1.8913620318000004
O	2.3212995818200004	-1.9377416806600003	3.6757994218000007
O	3.3057219418200003	-4.805205920660001	5.8427958118
O	-0.18528271017999975	-4.75453334066	7.3319372818
O	-3.3949328281799995	-2.11509209066	10.928138391800001
O	-4.87583301818	1.20024260234	9.9496723918
O	-10.25691547818	0.062464179339999815	6.4911101318
O	-12.79887120818	2.8832112193399997	6.959299691800001
O	-15.20939490818	3.16628590934	4.050169541800001
O	-6.418403528179999	-5.57117537066	1.5950211218000006
O	-6.123779388179999	-2.5566121506600004	3.9712949018000003
O	-8.55373357818	-0.5082022106600002	1.8949526618000005
O	-6.72806575818	2.6616519893399997	0.7810778518000006
O	-7.56790107818	2.4957427693399996	-2.9765170381999995
O	-6.34618458818	-0.027267920660000167	-5.5795373482
O	-9.707062948179999	-1.0600022206600004	-6.7976805782
O	-9.33289359818	-2.8384855806600005	-10.1361410382
O	-6.29349551818	-10.77770643066	-0.4594872761999994
O	-7.706408748179999	-8.91283543066	6.183612051800001
O	-10.988837458179999	-4.22298092066	11.4766014918
O	-7.47203753818	-5.14144524066	10.4106420918
