26

O	41.968342781846886	29.446725938649344	0.49593676343327786
O	42.16873265110387	29.274521890613507	-0.8391778299704482
O	43.24259298788214	29.507554245967576	0.8778723982136896
O	41.56577230328716	32.219223501630786	2.665380012257847
O	42.24309157843981	31.89185086405457	1.4874197802673819
O	41.21365593958929	31.262443766073684	0.7795628542094901
O	40.01884236301547	31.869635331473763	1.1473654173701195
O	40.157827083781704	32.14757488463019	2.5490834067179637
O	39.45260690028736	33.19441368897161	2.8208973005581184
O	42.84831120302417	32.85369195446035	0.8865765068229461
O	41.67814441195091	31.468193383199473	-0.6624360350984464
O	40.92719461893369	29.920617274079085	1.3347535454715866
O	43.72999555424597	28.403052151682463	0.14571695431571996
O	43.01361584121083	28.27643259589664	-1.0619400685938167
O	43.25634238592308	26.957064451669034	-1.483042103725686
O	43.22221804743583	25.91565623415105	-0.5028210885325528
O	44.14269456639909	26.02182891731787	0.4935594467773905
O	44.33422072900479	27.33464695123712	0.7998177919918348
O	43.668382473285654	29.822469881765123	2.0066190192377604
O	44.21719051989965	25.190950532535897	1.6327971883657666
O	45.393152200289904	25.331249147182664	2.386487028418191
O	43.075061976105715	31.67262329659841	-0.9934324186879575
O	43.44639518850281	31.843753455666494	-2.333126737911541
O	42.593893186513235	32.56197042321437	-3.1177408578774113
O	41.423751349963524	33.00370918796421	-2.572270471355929
O	41.13756971707405	32.60074414223946	-1.2614747733130933
