21

O	26.64998485919579	3.0260144038210073	-0.7666315052138044
O	30.58147289563906	7.7944726930102	4.839689242851708
O	25.745716922173212	2.0491296751415398	-1.2268011741380156
O	27.40346217887779	3.493014146645608	-1.976967633083615
O	26.733822643788308	3.422804153968524	-3.208378428169361
O	26.623615110685925	4.401477761595948	1.2813699784246129
O	27.16232251601505	2.782312013273655	-4.373876585553393
O	27.147889250999782	7.542950729629483	4.719656958221961
O	28.57359843003546	2.41399173697034	-4.230448083243468
O	27.031112050192835	3.5307246766221625	-5.6554408368685305
O	26.011234486536242	4.048256872213344	0.0852110445869978
O	26.158879402676725	5.002823682533789	2.418797000449847
O	25.41370730665786	4.25558234938709	3.402123795637957
O	25.628041950821803	4.43519666684876	4.828575467852006
O	25.838050441907722	5.688178756827549	5.337382751487677
O	26.31830028998885	6.54708584982398	4.309589142581361
O	26.857852814131693	6.011044795988841	3.1176009755520897
O	28.366018503320834	7.417167186460002	4.078310398645307
O	28.229866984149627	6.231500735367735	3.3394565380314027
O	29.39557532580839	7.799741556121857	5.048086412948552
O	26.34808112303452	1.5484120596595168	-4.553588982343598
