17

O	25.67431643594671	3.0294374858297157	-0.36908886795217044
O	26.14247302979993	2.416515499248142	-2.928935601822113
O	27.83001007672344	6.179458761873274	3.1388309498970424
O	29.449820605173418	5.272726721546654	0.5188026740912
O	29.821031198024965	4.4509009497394	-0.5658121962175859
O	25.861091881271232	3.0818164762124223	-1.7548221016016141
O	24.346352557813407	3.0657264804640967	-0.04271250033588325
O	27.08073267069964	2.8441555250796995	-3.8366167868825567
O	27.419231113250845	1.5852635201308356	-4.7274320096423965
O	27.40107843477351	3.3460605693873973	-5.156645212197726
O	28.370672937239988	3.0679270676489097	-3.1047568846477827
O	26.26422189353003	4.210947130343765	0.47085724489303016
O	25.483017889695642	5.020739981438054	1.2335697423918794
O	26.260026481394664	5.952691495235381	2.0048564680008516
O	27.6330471784394	5.733406230965703	1.690425438158286
O	27.972138664755615	5.324642522924311	0.26555285318373234
O	27.13923476065418	4.721610659667675	-0.5439086473625347
