21

O	27.4722261237562	5.770969433970588	4.4732315545718295
O	26.768483491470278	6.797394669912942	4.026276047153658
O	25.739660562002026	3.629447928122141	0.5904758968856403
O	26.720493798922433	4.880666384137802	3.6542648463897436
O	28.43477490111372	2.928127612334309	-1.0741314110211753
O	25.205107516310647	1.9883676649024653	-2.4220683969483328
O	26.180358386888944	5.151976583238409	2.459605305308644
O	29.79778450537154	5.230557914863852	3.726953032270681
O	26.022179778777176	4.696136328009425	0.9793193586713418
O	26.46041802183868	5.76700843334558	0.11169529633783792
O	27.42278106925669	6.540989719054087	0.6257512131313536
O	27.63448113950318	7.1909221713541385	2.01803643189622
O	26.538635876325394	6.495110937612991	2.507905922339486
O	26.196567684104178	2.6912242593882176	-0.31123638509173235
O	26.06623917428019	2.73369953869611	-1.701403254068976
O	27.485978225422198	2.7918441944956705	-2.0811264822053883
O	28.903526792382138	3.8772222429143275	-0.16488346891442607
O	28.730031408011946	3.5106726851163863	1.313091830406051
O	29.674183160743432	5.075172862455206	0.07703424405507375
O	30.443386581863976	3.4711513325313845	-0.11109950168219163
O	28.992699661736644	5.669252350387929	4.58646930234036
