89

O	3.5741392279104476	2.5659865343582093	1.557056361405971
O	3.8254444379104475	1.3395569543582093	2.164629871405971
O	2.926653947910447	0.2139791523582094	2.1506541714059706
O	1.931092757910447	0.3971085823582094	1.3082142114059707
O	1.8990777579104472	1.4487236393582092	0.4660566414059708
O	2.5097346079104472	2.6859209143582095	0.7166125414059707
O	3.3092718879104472	-1.1695181756417905	1.8950986514059707
O	2.9503605679104474	-1.1963791656417908	0.6090765514059708
O	1.569908227910447	-0.9557368756417907	0.9219792414059709
O	3.6733444779104474	-0.23081272364179062	-0.3287751825940292
O	2.9886851679104476	0.06159697635820938	-1.4181258725940293
O	1.519462397910447	-0.033278032641790634	-1.1869593975940291
O	0.9021644379104472	-0.8169478256417907	-0.35520116459402923
O	-0.41682927408955295	-0.9363280456417905	-0.058274317594029235
O	-1.5152941950895529	-0.9661472456417907	-0.9971332065940293
O	-2.668621042089553	-1.8059817056417908	-0.5604522269940292
O	-3.5952805620895525	-1.8571631456417905	-1.6095912005940292
O	-3.309151192089553	-0.8780421956417906	0.41727330140597085
O	-4.435705792089553	-0.13796219564179057	-0.06865598759402924
O	-4.135633842089553	0.3322047113582094	-1.3868696425940292
O	-5.263616842089553	0.9486515673582094	-2.1293004185940294
O	-3.097816212089553	1.4121865903582094	-1.2757404215940293
O	-11.267806762089553	-5.276309375641791	9.227795371405971
O	-10.356546902089553	-5.642100615641791	5.581864161405971
O	-11.483874012089553	-1.3557745256417908	3.694154551405971
O	-10.166018402089552	13.97052143435821	4.238536351405971
O	-11.327674512089553	9.24695784435821	6.59953346140597
O	-9.221869702089553	8.97344120435821	3.4398144314059707
O	-6.109719062089552	9.25409234435821	5.60028801140597
O	-7.445866412089552	6.81569733435821	8.23922879140597
O	-8.832250572089553	4.49525973435821	5.483905271405971
O	-5.4404890720895525	4.139908704358209	3.884881241405971
O	-3.5839869220895526	3.5244005943582093	7.19582449140597
O	-6.058775502089553	0.7737077773582094	8.10061239140597
O	-5.528725452089553	-0.6997188356417906	4.629774691405971
O	-1.810498351089553	-0.8790237756417906	5.20532289140597
O	-2.2395428390895527	-2.1598934756417907	8.72199131140597
O	-4.184011242089553	-5.180236295641791	7.569041481405971
O	-1.628894310089553	-6.292466895641791	4.984554721405971
O	1.3942052779104472	-5.60096430564179	7.26349953140597
O	2.3958582579104473	-2.8852528056417905	12.62878093140597
O	4.5943331079104475	1.7696054943582094	11.13385023140597
O	1.2944557479104473	1.8350277143582092	9.21025498140597
O	3.9994241879104475	7.681235524358209	8.004140531405971
O	0.4823121679104472	8.451979534358209	6.80968225140597
O	6.212413467910447	11.23784493435821	5.556321431405971
O	4.503093797910448	9.42731509435821	2.7084169314059707
O	3.788235547910447	12.460468634358211	0.5873704814059708
O	-8.079368312089553	10.21064939435821	-2.4849866085940295
O	-5.594680242089552	8.46440257435821	-4.839022518594029
O	-2.5112421520895527	6.902984424358209	-3.3044058985940294
O	0.3547963679104471	9.10490709435821	-4.34046586859403
O	3.5540482479104476	8.59089916435821	-2.3629527485940294
O	7.254682657910447	9.24320392435821	-2.6185685785940294
O	9.725963487910448	6.4384208943582095	-3.3607824985940296
O	8.379547757910448	5.70982522435821	1.472319851405971
O	7.496981717910447	3.2417924743582094	-1.2719142565940293
O	10.679623387910448	1.1542379533582094	-1.2035588885940292
O	7.895043227910447	0.3580804803582094	3.681941961405971
O	7.509580697910447	-2.5238655556417906	1.1593023814059709
O	10.669958787910447	-4.110774895641791	2.310289321405971
O	10.189020887910447	-3.7539234256417906	6.075068631405971
O	6.414527577910447	-4.364512505641791	5.9033433514059706
O	6.233546527910447	-7.04751228564179	3.1536273314059704
O	9.428433387910447	-8.45785788564179	1.5654596214059706
O	-2.472048982089553	-12.81865076564179	-4.25005566859403
O	-0.34175425808955295	-9.97311456564179	-3.013871488594029
O	3.099271347910447	-10.41790966564179	-4.565233058594029
O	0.927293507910447	-5.985667765641791	-6.80895149859403
O	4.025892577910447	-5.606522215641791	-4.600037308594029
O	6.439728197910448	-6.166614755641791	-7.402085598594029
O	4.522442947910447	-3.648400685641791	-9.54103695859403
O	4.562859537910447	-1.0739283156417905	-6.846295408594029
O	8.362505137910448	-1.4268315356417904	-6.939258698594029
O	8.678929217910447	-1.4710951856417909	-10.757258868594029
O	6.697056357910448	1.7880164643582095	-10.77195916859403
O	9.484513187910448	3.530810154358209	-8.78755466859403
O	10.360793287910447	3.7889754543582095	-14.37564316859403
O	-3.563626122089553	2.4074204943582096	-13.32629856859403
O	-2.5978634720895526	-1.4313617756417907	-10.52393302859403
O	-6.246480662089553	-1.493319915641791	-9.31931650859403
O	-3.625912612089553	-6.473157985641791	-8.95535350859403
O	-4.547410392089553	-4.627024425641791	-5.815954008594029
O	-8.043269132089554	-6.186543135641791	-5.745825488594029
O	-6.490028962089553	-9.65673826564179	-6.046870198594029
O	-5.002937002089553	-8.67491368564179	-2.726546978594029
O	-8.442595972089553	-7.682931335641791	-1.3888165415940292
O	-10.008247612089553	-10.96462566564179	-2.619070638594029
O	-7.357355672089553	-12.98255096564179	-0.7069084817940292
