83

O	-0.27675948970967745	2.5689278661129014	-1.2683354748064515
O	-3.4061471927096774	-3.311560843887099	3.7568421441935484
O	0.7100698172903226	3.4126254461129015	-1.8143233058064514
O	-1.5605841957096773	2.9418455261129015	-1.9491121758064514
O	-1.4630896847096775	3.4556238661129015	-3.251512165806451
O	-0.07422826270967753	0.39879857511290145	-0.11229704480645133
O	-1.9759382157096774	4.664327106112902	-3.729268525806451
O	-0.5629915257096775	-3.815990443887099	1.8782298041935486
O	-2.8991974327096774	5.221975756112902	-2.7370227558064517
O	-2.6961728527096778	4.6359975061129015	-5.033187285806451
O	0.11595168729032257	1.1461153991129014	-1.2681172608064513
O	0.47444641729032266	-0.7713568038870985	0.3360654311935487
O	1.7880863372903226	-0.7950744438870986	0.9313555141935486
O	2.0857918772903226	-1.5995704238870987	2.1048642041935484
O	1.5571123972903225	-2.8560424438870986	2.2262256741935484
O	0.39116933729032266	-2.9641301238870987	1.4177611741935487
O	-0.2680392547096775	-1.8051521838870985	0.9471159841935486
O	-1.7404246397096774	-3.1197352938870986	2.077894054193549
O	-1.3901427457096776	-1.7900048438870986	1.7961730541935486
O	-2.368539572709677	-3.6861888038870987	3.274312864193549
O	-0.8397879517096775	5.606454236112901	-3.9276462858064516
O	5.8462972172903225	4.889766066112902	-10.586724915806451
O	6.216405657290322	8.140164196112902	-12.56584311580645
O	1.4979104072903224	4.318721606112901	-10.64708021580645
O	1.1465137072903224	8.163152556112902	-10.375965715806451
O	-7.745449342709678	-1.5558945638870987	-10.58020851580645
O	-6.229438092709678	-4.769153423887099	-9.22680956580645
O	-3.3162192027096773	-4.609419203887098	-11.62036301580645
O	-2.5721666527096776	-0.9885314838870985	-10.654715815806451
O	-2.598081202709677	-1.9695080038870985	-6.936774265806451
O	-0.2568623047096774	-4.919767273887099	-7.554758755806452
O	2.1697283072903226	-2.522706903887099	-9.33341785580645
O	2.1123615472903228	0.046318570112901414	-6.622055085806451
O	3.0487299672903228	-2.470982223887099	-4.028148755806451
O	5.709424197290323	-4.247034293887099	-6.014105995806451
O	7.496094317290323	-0.8878648438870985	-6.531735975806452
O	7.772872377290323	0.022965331112901444	-2.866477465806451
O	8.626818017290322	-3.547444743887099	-1.7912395458064514
O	13.325787777290323	-1.0073430938870986	0.35259493219354865
O	6.459895257290322	-13.170846383887097	-4.9013879458064515
O	5.477048017290322	-11.450894483887097	-1.6098970658064513
O	3.430034957290322	-8.519319683887097	-2.890477145806451
O	2.3672674972903227	-9.042522473887098	-6.518255865806451
O	-2.8185270027096774	-9.359722383887098	-4.425529395806452
O	-6.184218942709677	-9.282660883887099	0.5628831521935487
O	-14.306618122709677	1.9372321761129014	-6.257581905806451
O	-10.559508072709678	1.2660172591129015	-5.990438965806452
O	-10.046230522709678	1.3233530161129015	-2.2096749258064516
O	-7.509518022709678	-1.0530664738870987	-0.9495722898064514
O	-9.897190682709677	-2.5107164238870987	1.6241882141935486
O	-8.106080792709678	-5.532158363887099	3.0408443341935483
O	-8.614579232709678	-8.065314113887098	5.739103444193549
O	-6.640367362709677	-7.479235953887099	8.94974143419355
O	-4.513286592709678	-10.610255083887099	8.599381124193549
O	-3.2717063127096773	-9.438611883887098	5.216860824193549
O	-2.7443160627096774	-5.9468210138870985	6.560734244193548
O	-0.3142136757096774	-6.995126003887099	9.234586024193549
O	2.1794571072903226	-7.846420263887098	4.406618244193549
O	3.3908227872903223	-4.609314033887099	6.089081244193548
O	7.088871277290323	-5.945098233887099	2.5309176641935487
O	8.318787377290324	-3.0582621638870986	4.675588084193548
O	7.232191517290323	6.124060336112901	3.7117173741935483
O	7.145667907290322	5.449924376112901	7.402670284193548
O	4.131308927290323	7.656762776112902	8.16149726419355
O	2.0839840972903225	5.624092076112901	5.755115204193548
O	3.0682706272903224	2.1826272861129015	7.229134994193548
O	2.4938413172903227	3.4519861961129013	10.70581788419355
O	-0.9713440187096775	4.706196086112902	9.76277918419355
O	-1.4794487907096774	1.3428267151129014	8.177323164193549
O	-1.0546047737096775	-0.6290958538870987	11.36785758419355
O	-2.8864976127096775	1.8371452561129016	13.649166384193549
O	-5.928552252709677	-2.3513774238870986	11.94647098419355
O	-7.733107032709677	12.038720716112902	3.598835404193549
O	-4.516001542709677	11.866268816112902	5.641778834193548
O	-4.288488322709677	8.235009826112902	4.761362664193548
O	-4.2080582527096775	9.587781056112902	1.1603783941935486
O	-1.8486869847096774	12.501047816112902	1.9589977741935487
O	0.7512890072903227	10.079305586112902	3.3684870441935484
O	0.5717603072903226	7.637883866112901	0.48035272519354866
O	1.3097354272903226	10.610537846112901	-1.8447415358064514
O	5.414434297290322	7.954638746112901	-0.43129874880645136
O	4.963170897290322	8.586090846112901	-4.136276045806452
O	10.312585677290324	8.811892636112903	-6.321309695806452
