27

O	-0.25831800751475287	4.2074553255609235	51.029748911912286
O	0.9408465578046736	8.571638869860676	53.465300529719975
O	1.9536397646939272	7.8186059772628305	55.018182620370595
O	1.6163142992475803	2.1580078154578244	53.21020755790731
O	1.594502941694032	2.907063417014742	54.35108748315563
O	0.7445390657525299	2.4917097334455733	52.214583267257346
O	1.1888442031581519	4.186788080234875	54.29659420574335
O	3.8329530797958693	6.849292360727248	49.31636564493369
O	3.950997623028439	5.515557315387443	49.96265876163544
O	4.1686768414465085	8.984336995923027	52.89972340218334
O	2.27506331346932	5.997617402068581	52.212085154005976
O	0.5427364690278971	6.090221745481883	53.305413525757594
O	3.117903677190291	9.570603351300836	52.13621041197746
O	0.2186082569875274	3.714063795215057	52.29516816229377
O	2.405436357139015	6.788677176207161	49.46110798936312
O	0.8530684444629468	4.708877484417254	52.947461128892854
O	3.9232546873128933	5.942040611243639	51.37426078405325
O	2.497229872566814	7.4585547006929565	50.72603525547093
O	3.525954162459612	7.175419514588244	51.647481228866816
O	3.105309557266127	4.889403338442297	51.913431206988456
O	2.526065304122997	6.5355570189313905	53.476274588369726
O	2.4456210079519254	8.92911097898854	50.98024949986411
O	3.065105185078292	10.778916067439944	52.40713524717327
O	2.1489009116116247	7.502029567699166	48.39035522758428
O	2.4685599506050173	4.544346810524579	50.6374524913394
O	4.048857352082736	7.674660107609606	52.80182197378291
O	1.4316578976524903	7.207126849426744	53.76431460106721
