83

O	2.4480782718412697	0.47044592035031757	0.25433267544603166
O	-2.6605254481587304	0.7638555064203176	-2.3855394515539685
O	-2.9313456281587307	-1.1638397446496822	-0.8842124615539684
O	-2.9920015881587307	-0.09551576264968242	-4.549214131553968
O	-1.8942415201587304	0.05116018535031763	2.2142401084460315
O	-3.7700541681587305	2.0280244353503174	-4.067058801553968
O	-4.667779048158731	0.5841235223503176	-1.1686632545539684
O	0.5129480218412696	-0.8425994346496825	0.08719690644603162
O	-0.6610921251587305	-1.1190268946496822	0.6885695584460317
O	1.8748454418412694	-1.7405086446496822	3.9467692784460318
O	2.6458829218412694	-0.6873248846496823	3.1554583184460316
O	0.5727440318412695	-0.9421289946496824	4.163117218446032
O	-2.9315303781587305	0.040934595350317626	1.2712572084460319
O	1.6628229818412694	-0.6047618146496824	0.8617481984460317
O	-0.6975207601587304	-0.5495463546496825	1.9789009484460314
O	1.5851712218412697	-0.33701002464968244	2.2292290784460316
O	0.3611612618412696	-0.4817179546496825	2.7998229984460314
O	-3.6499214981587302	0.6861568257503176	-3.4112766815539683
O	-3.1858104481587306	0.9469731513503176	-1.0744378335539684
O	-2.5711233881587305	-0.0513277476496824	-0.17015561155396836
O	-10.818179508158732	9.779729995350317	3.4647124284460316
O	-10.680946178158731	6.212191285350317	2.2497028684460316
O	-9.123044808158731	6.625082125350318	-2.281179321553968
O	1.2185946318412695	12.214901775350318	-12.21735797155397
O	-2.3376028181587305	12.915011975350318	-8.20467457155397
O	-1.0957176891587306	9.350796465350317	-8.64757713155397
O	1.7181627618412696	10.102862185350318	-6.230377091553968
O	-0.5676409371587304	11.967220675350317	-3.7723222215539685
O	-3.3094077081587305	9.281582785350318	-4.222276521553968
O	-0.9804621531587305	6.542841675350318	-3.2072947315539686
O	0.4093110718412696	8.416935635350317	-0.14326163255396837
O	-3.13187301815873	9.051494615350318	1.0857823484460316
O	-3.8942948581587307	5.332131535350317	0.5397745524460317
O	-1.0098803091587305	4.376998145350317	2.7416195784460315
O	-1.8166962921587304	7.046883365350317	5.288764468446032
O	-5.2968984081587305	5.717758325350318	5.890403328446032
O	-4.2012372881587305	2.1723067053503176	6.633970548446032
O	-1.1461638161587304	3.218359395350318	8.738024938446031
O	1.7536340118412697	8.374108355350318	10.065148028446032
O	6.17484558184127	8.093658125350318	7.075488458446032
O	3.4374467218412694	7.6272684353503175	4.421557108446032
O	9.018638381841269	7.8047443553503175	0.9740410784460317
O	6.565741381841269	8.357378695350317	-1.8722672715539685
O	12.68753428184127	6.218195065350318	-1.7800124115539684
O	9.975215381841268	3.7358547453503177	-2.7892677815539684
O	11.120442081841269	3.3689490853503177	-6.406921191553968
O	0.03852744184126955	4.328539985350318	-12.024046071553968
O	0.7362784418412693	0.7651578692803176	-10.76855827155397
O	2.3657062918412697	0.3309934823503176	-7.393136411553968
O	5.92496978184127	-0.7873970146496824	-8.315834241553969
O	8.33858722184127	-0.5224305646496824	-5.3362352015539685
O	11.645456381841269	-1.8848848346496823	-4.136367701553969
O	11.83742328184127	-4.500358234649682	-1.3593220415539684
O	10.72914518184127	-0.14134757264968245	1.0381096884460317
O	8.33970857184127	-3.0857044346496822	0.9363273584460315
O	7.286807541841268	-0.05783391364968238	5.722841688446032
O	5.014048281841269	-3.1243911946496823	6.242430298446032
O	3.4763170318412695	0.6124626843503176	9.498819748446031
O	1.4630156818412696	-2.6595033046496823	9.880931428446031
O	2.9882108818412694	-5.737978404649683	11.569026528446031
O	-9.58359608815873	-7.811429714649682	5.919750508446032
O	-6.058743878158731	-6.495634784649682	5.551410328446032
O	-3.7336539381587306	-9.269534424649683	6.724949588446032
O	-3.0051856981587304	-8.794745534649682	1.4017176284460318
O	-0.07909063815873041	-7.841816844649681	3.719682368446031
O	1.2107601918412696	-11.367587724649683	3.8452655284460318
O	1.0267959518412697	-11.597657824649682	0.03521444844603161
O	2.8251188718412696	-8.239768164649682	-0.37075418665396837
O	5.6136150218412695	-9.878293224649683	1.6513164584460318
O	5.543239951841269	-13.289549024649682	-0.10962072155396838
O	5.935463781841269	-11.389362824649682	-3.3886279315539687
O	9.37940488184127	-10.100983424649682	-2.2359627215539684
O	-2.0638791961587306	-9.419479524649683	-10.059593471553969
O	-3.3660907581587303	-8.822370244649683	-5.432518691553968
O	-6.18739366815873	-6.4528882346496825	-6.498895681553968
O	-7.124155398158731	-9.024660364649682	-1.5729244615539684
O	-6.383710108158731	-5.284248314649682	-1.6324878815539683
O	-10.09840024815873	-4.492185074649682	-2.1957280515539686
O	-11.051598748158732	-6.656402304649682	0.8090489084460316
O	-9.006664178158731	-4.036275644649682	2.5819116184460316
O	-11.018722488158732	-1.2247829446496823	0.9299561984460317
O	-14.34846651815873	-2.9155385446496824	1.8398074084460316
O	-13.27876961815873	-3.035375364649682	5.537896128446032
