27

O	27.520001424496698	5.87230570451901	2.51477096500748
O	25.394177831301462	6.367915257656472	4.092930687346101
O	26.526629313979047	7.531068460096463	5.609519449400118
O	26.3956945976389	5.14654186609563	2.2730548192463793
O	25.190405473346786	4.167400848225939	-1.077661133173447
O	24.59269079657925	4.130818622264242	5.191737281958342
O	26.372334962406246	4.061688319714407	1.4547904387570287
O	30.824569166105764	7.017964872283507	-1.6751068616216984
O	25.369604423958435	3.156519165945183	1.8161651322937984
O	27.1626310309853	2.3270846711024893	0.0798369049551857
O	24.914004941560048	3.103230632291217	3.1028476914820926
O	24.674120624076675	4.240197622662016	3.779956404664508
O	25.625598951187847	5.238179005332982	3.4473172003816743
O	27.4757744089794	6.356970715705675	3.9611439079212745
O	26.4693077732594	7.116110549280005	4.403011678728877
O	26.737765996795748	3.6207279486865964	0.05964378591802577
O	25.45601356671059	2.9691692676681307	-0.5910535236266233
O	26.361165253335308	4.506154722555812	-1.9576474781184654
O	26.857828658185	5.602273810982604	-0.9661029670535072
O	27.115273508378944	3.3065411193111047	-2.2600983500361216
O	28.37450356612504	3.9864313483920824	-2.9231315912907494
O	29.235114822692978	4.040426662735329	-1.8510370556106053
O	30.32397483633181	4.847940713622975	-1.9504735639359687
O	30.23188949552901	6.074711201471236	-2.567972126525722
O	29.408702385691953	6.043763093242284	-3.63740742275569
O	28.311285536828404	5.178501707610797	-3.553924310676275
O	30.550556999592267	7.023235598485361	-0.22911195216969282
