88

O	3.2378038145696975	-3.21776808910606	1.8426580102227277
O	4.001713704569697	-2.16710623910606	1.3318423602227276
O	3.541419294569698	-1.2404434491060596	0.3116943782227277
O	2.221198994569697	-1.2025990791060597	0.23051582522272773
O	1.492182714569697	-1.9751590291060594	1.0664750202227276
O	1.9053930345696972	-3.2522886391060597	1.5017711002227276
O	3.9230462245696973	0.12123293609394035	0.42706278922272767
O	2.822641484569697	0.5559035148939404	1.0711281802227277
O	1.9552754645696975	0.21307580454394034	-0.011843255777272299
O	2.5496938145696975	-0.07029653210605963	2.4330520502227277
O	1.3071242945696973	-0.031113542106059655	2.7895778002227276
O	0.37939750456969734	-0.07834997210605965	1.617736360222728
O	0.5827155745696972	0.39357849389394034	0.42595109222272765
O	-0.1464144954303026	0.42342411989394035	-0.7201048887772723
O	-1.4924018914303028	0.7414160138939404	-1.0631515587772724
O	-1.9074101724303028	1.5773569608939404	-2.1827166197772723
O	-3.1757548454303026	2.15496833089394	-1.9507166997772725
O	-2.2456240454303025	0.6297008688939403	-3.278414819777272
O	-3.538328475430303	0.023855734893940356	-3.2411053897772724
O	-4.299378405430303	0.20207985659394034	-2.0579959697772723
O	-5.743590595430303	-0.07324622910605966	-2.2044719097772725
O	-3.9423423954303027	-0.6986884651060596	-0.9136161947772723
O	-1.3250016854303026	-0.46060488210605965	-15.623577559777273
O	-2.882677665430303	1.5638175308939404	-12.838534259777273
O	-8.594646735430302	-15.364506059106061	-4.566180349777272
O	-7.148613605430302	-10.46790665910606	-5.275594089777273
O	-3.578048175430303	-11.43851875910606	-4.408954549777272
O	-2.235086515430303	-10.52855755910606	-7.876467159777272
O	-4.413370125430303	-7.338947889106059	-7.946692699777272
O	-2.865114335430303	-6.05056755910606	-4.7515148997772725
O	0.7370455045696973	-6.8063762591060595	-5.794106979777272
O	0.2250375745696973	-4.98198135910606	-9.112666379777272
O	-1.2311052010303027	-2.0725999391060594	-7.119885619777272
O	1.9007123845696972	-1.8730077091060595	-5.002348269777272
O	4.138821794569697	-2.3422404891060595	-7.998625279777272
O	2.7880170345696973	0.7206469678939403	-9.733633199777271
O	3.270156654569697	3.0527029208939402	-6.759870809777272
O	6.735201724569698	1.6483932008939404	-5.8668148197772725
O	8.002373064569696	1.9529743208939403	-9.478399859777273
O	10.164557154569696	-3.08734999910606	-7.523195409777272
O	9.620680554569697	-6.415280739106059	-3.3856761197772722
O	5.958333194569698	-5.789379899106059	-4.311279069777273
O	5.687416094569698	-10.28060865910606	0.3792461852227277
O	2.184858854569697	-10.69360625910606	-0.9658456377772724
O	4.838927034569697	-12.25776825910606	4.723499130222728
O	2.2749062345696975	-9.41532653910606	4.667547850222728
O	-0.3474344284303027	-11.32020895910606	6.671611340222728
O	-10.414377845430304	-8.85044953910606	-0.2996639147772723
O	-9.683831765430304	-6.06936408910606	2.2498744502227277
O	-6.078807205430302	-5.156942679106059	2.8232003502227276
O	-5.130653605430303	-6.41581223910606	6.226094230222728
O	-1.4058953214303027	-6.56179601910606	6.939822300222728
O	0.9553392045696973	-6.795533959106059	9.886467540222728
O	3.019296484569698	-3.7907741191060595	11.014296240222729
O	5.273148834569698	-5.35919314910606	6.738833600222728
O	3.526233854569697	-2.02212377910606	6.973333440222728
O	6.432074004569698	0.04372486789394034	8.306538400222728
O	7.708980544569697	-1.6071268691060596	3.041771370222728
O	6.528414424569697	2.0389076808939404	3.275869720222728
O	9.972375054569696	3.1882213608939405	4.107259580222728
O	11.934904054569696	1.1688926738939402	1.545372960222728
O	9.213656854569697	1.4991214808939404	-1.1274754037772723
O	8.062098974569697	5.1243892108939395	-0.5305849484772723
O	9.731425454569697	7.31212140089394	2.1324807602227276
O	-1.5219526464303028	12.92427064089394	-3.8852655197772723
O	0.08990694456969739	9.97242016089394	-2.1704716797772723
O	1.743677024569697	11.28859784089394	0.9922327302227277
O	-2.385759195430303	8.187000460893941	2.5676733102227276
O	1.165912994569697	6.960563810893941	3.3775374602227277
O	1.3013223945696974	8.94774584089394	6.581051020222728
O	-2.1023134354303026	7.54618158089394	7.584623610222728
O	-1.0189407724303028	4.030266080893941	6.827298620222728
O	1.7637461045696974	4.66378051089394	9.351399600222727
O	-0.38858832443030267	6.45680845089394	11.964630340222728
O	-2.714988665430303	3.4460228508939403	11.876054340222728
O	0.12404526456969722	1.2135783078939404	13.195386640222727
O	-2.828880185430303	3.5802601708939403	17.39998704022273
O	-11.999813145430304	3.31224393089394	6.753016050222728
O	-8.513408755430303	5.54577588089394	4.215982390222727
O	-10.402988215430303	4.80483384089394	0.9547665702227276
O	-6.965915825430303	9.27133222089394	0.6583655602227277
O	-6.146385615430303	6.16937812089394	-1.2746280337772724
O	-8.218473385430302	7.241217160893941	-4.270864749777273
O	-6.397345065430303	10.60051034089394	-4.3100522297772725
O	-3.4644178854303025	8.36260592089394	-5.046468029777272
O	-5.382261665430303	6.632291450893941	-7.864882199777272
O	-6.476112285430302	10.00104404089394	-9.362942949777272
O	-2.8103940454303027	11.14181764089394	-9.519962049777272
