21

O	3.7600566222156564	4.140688413344722	53.07893008375386
O	2.494697752317986	4.417354895727299	52.74219425819538
O	1.8021899419038894	3.8162162627719383	51.679011391412274
O	2.5931174824620453	2.5947526207379603	51.38165451845924
O	3.9364391406464834	3.1432126794995128	51.06529373293236
O	4.453684358450659	4.224724183345205	51.90568582770692
O	2.0312134194531177	2.0216425368783044	50.16359526471033
O	1.4648836690060882	0.83152812790855	50.08455681225328
O	1.496339236430652	0.5965997803323702	48.43655404515771
O	1.779326529748842	2.1522794501757483	47.90269828657913
O	1.8645798775350668	2.871133767715545	49.06625854191479
O	2.475242254358129	4.071699087398852	49.10119180007991
O	2.6801712938451376	5.373929062950692	49.5033138027565
O	2.9840000835633482	6.539954489282582	50.133603814170556
O	4.040632998580936	7.305569740406024	49.68303862960612
O	2.239209931445149	7.340747092333183	51.0539022500802
O	2.022312895655642	7.512756920353444	52.418853485761666
O	3.0594210878874293	7.410310115121598	53.33375336074148
O	3.280884905344174	6.648232691494165	54.55616059353057
O	4.222668882393776	7.172737279260893	52.507189693145264
O	3.6409323270299634	8.753709462892301	53.826479244493136
