21

O	26.122045724882337	5.555196354440928	3.58938586193041
O	26.158363269987365	6.689515719981825	3.07177488889993
O	27.675881533044222	3.926822006858114	0.36700535475992746
O	26.621333643047297	4.689850418599388	2.645982076997713
O	27.068054159464094	3.7810431748477313	-2.4658519951831037
O	25.366099870193693	1.6642577998244361	-0.11938976239008259
O	26.274627437002312	5.222542897763315	1.4624105298831747
O	27.41276187161943	6.177958548718679	5.309699669474138
O	26.63502946859094	4.782450439284202	0.10205689676169616
O	27.455778784466375	5.87106204311315	-0.3746724264007981
O	28.44710785893748	6.367699602111301	0.4529621779740953
O	28.023451914340278	7.092132493052935	1.8037505515375287
O	26.743109709078492	6.543617828246147	1.7648476136010782
O	27.393426262845644	2.7619127807900057	-0.2463658748762234
O	25.97009482464411	2.7474130366585823	-0.6556401025861369
O	26.249625393230346	2.722882400129691	-2.1244152821967583
O	28.38282265766372	3.9100883682918033	-2.7950271235118755
O	28.785643213970943	4.016485010829266	-4.270316771202219
O	28.91347321864921	2.5171612478556638	-2.6339855499598226
O	29.55153930025466	4.504671186204985	-2.090452256746869
O	26.365101372071674	5.2556223945153935	4.958239085159226
