83

O	-1.6897917979230797	4.894828383815384	2.3074890792461535
O	-1.3017541469230796	2.7498985838153844	1.4743238292461538
O	-1.7836486959230795	3.604564953815384	-0.7418872697538462
O	-2.3841933079230797	3.7239207938153847	1.7139248892461536
O	0.1260648720769204	0.5641760528153843	-1.5676246107538463
O	-3.17475008792308	3.124513973815384	2.8374962592461537
O	-1.9244709679230796	1.8251443618153842	0.5752560692461537
O	-1.6933712889230796	2.1966058938153843	-0.8528354387538462
O	-0.3278480449230795	1.8285388538153842	-1.0733547057538462
O	0.9900145720769205	-0.2803338561846158	-0.8500408507538462
O	2.084373782076921	-1.0949593661846155	-1.1608042987538463
O	2.613822122076921	-1.8085259261846158	0.0021166882461537972
O	2.7647567120769203	-1.189622766184616	1.1851214092461537
O	1.6757305520769206	-0.3334654261846157	1.3926319092461537
O	0.5899002920769205	-0.26539100618461586	0.49368331224615375
O	-0.5933795189230795	-1.2262735161846157	0.6438743992461538
O	0.15730766207692048	-2.3484437961846156	1.4796202692461538
O	0.19752254207692044	-1.4119917261846158	2.6766380892461537
O	4.42299964207692	12.794899363815384	-5.884717460753846
O	1.1415268420769207	11.057510233815384	-5.153905110753846
O	0.6727170120769206	11.392910663815384	-0.3739297927538462
O	6.7526696520769205	9.371028093815383	13.598355389246153
O	6.99632449207692	11.316744363815383	8.567971769246153
O	4.46608287207692	8.534055433815384	9.051646789246153
O	7.1503504420769195	6.020626603815384	8.174908329246152
O	8.48580229207692	8.119032263815384	5.241608879246154
O	4.83972053207692	8.891256873815385	4.142028019246154
O	4.00349742207692	5.327298773815384	3.864417929246154
O	7.294989072076921	4.427759153815384	1.9478063192461539
O	6.52037582207692	7.124628993815384	-0.5894373817538462
O	2.877354792076921	5.753224793815384	-0.8413936807538462
O	4.33363261207692	2.6174728638153844	-1.9136290107538463
O	6.892353182076921	3.732221243815384	-4.091329120753846
O	4.34467284207692	5.510349083815385	-6.2526255207538455
O	2.110655792076921	2.502362193815384	-6.869587540753846
O	4.99499665207692	0.007260143815384312	-7.275473780753845
O	6.717292842076921	2.2564584938153844	-9.849791410753847
O	11.051705622076922	0.07523884381538415	-6.631818310753846
O	11.81033902207692	-2.629954326184616	-2.0726215707538462
O	9.44579262207692	0.16158451681538422	-0.9468294507538462
O	10.848358822076921	-3.1418916461846154	4.585736129246154
O	9.340635422076922	-0.0303586661846158	6.159478949246155
O	10.251077422076921	-6.050299556184616	8.448360649246153
O	6.64321518207692	-4.9270068061846155	7.844948659246154
O	-0.29180374192307956	6.004104643815385	11.962207689246153
O	-2.5244295779230796	3.129185303815384	10.771209189246154
O	-1.0624887189230796	0.6077102438153843	8.337657029246154
O	-0.7111127979230796	-2.5120516361846157	10.509352589246154
O	1.5337618520769205	-5.1106463061846155	8.848137789246154
O	2.2299376020769204	-8.819828986184616	9.101132919246153
O	1.0303728820769205	-11.220946436184617	6.388154739246154
O	4.95433989207692	-8.751200516184616	4.290536419246155
O	1.3724957120769206	-8.404173356184616	3.020102779246154
O	4.97164885207692	-7.385070936184616	-1.3344708037538462
O	1.5818704020769203	-7.418187286184616	-3.165539450753846
O	6.1776750320769205	-8.860124396184617	-6.231376890753846
O	5.06013762207692	-5.211786076184615	-6.211466230753846
O	1.6028125120769203	-5.501817316184615	-7.892944760753846
O	0.25601598207692056	-8.854957646184616	-9.043253540753847
O	-6.41092187792308	-2.208179826184616	-12.924629510753848
O	-8.86279082792308	1.5950943678153844	-9.716531540753847
O	-6.27781375792308	-0.35426634618461583	-7.683553940753846
O	-7.25112853792308	-4.025615516184615	-8.108402270753846
O	-8.23952747792308	-2.721245866184616	-2.9588521207538463
O	-5.41849970792308	-5.216911836184615	-3.6736510607538464
O	-7.735891487923079	-8.164234436184616	-3.654967860753846
O	-9.30709395792308	-7.010850726184615	-0.3736034367538462
O	-5.88853199792308	-6.5454508361846155	1.1897190692461537
O	-5.26610289792308	-10.181383736184616	0.37680249724615383
O	-8.72485808792308	-11.444614036184616	1.5105383092461537
O	-8.03207028792308	-9.719583136184616	4.851378699246154
O	-5.01308593792308	-12.036705636184616	5.453458669246154
O	-12.155779677923078	-0.33739278618461577	7.647608329246155
O	-10.721113437923078	-0.38986028618461566	3.000783579246154
O	-10.291921947923079	3.4380154538153844	3.046935329246154
O	-11.221471077923079	1.3122916388153842	-2.090397620753846
O	-7.78672872792308	2.716550183815384	-1.2590401077538462
O	-8.890252797923079	6.216807853815385	-2.234039500753846
O	-10.18441046792308	4.923145003815384	-5.623137830753846
O	-6.495396177923079	4.155274843815384	-6.003648530753845
O	-5.596250457923079	7.748716243815385	-5.079126190753846
O	-8.191609927923079	9.183921023815383	-7.526722670753846
O	-6.62712088792308	7.161857103815384	-10.396538420753847
