81

O	0.6664986124305083	1.3807527152677967	-0.7785926001525424
O	-0.35959086756949166	1.0518596062677967	-1.4496650661525423
O	-2.1197006895694916	0.6459600613677968	1.5106414638474577
O	0.6002803824305083	0.16648577926779679	-0.0128208061525424
O	-5.412316627569492	0.6837328006677967	1.2527616338474576
O	-3.287655687569492	-1.3272106257322032	3.4127851838474577
O	-0.5456656375694917	-0.3815251027322032	0.2974093828474576
O	0.3834031824305084	3.205063844267797	0.8010412138474575
O	-1.5474255255694918	-0.6493900357322031	1.4947779838474577
O	-2.517360986569492	-1.6057452557322032	0.9684470068474575
O	-3.0579753675694916	-1.0764426057322032	-0.0953881751525424
O	-2.7314360995694917	0.2688569262677968	-0.4602014261525424
O	-1.4305783275694917	0.3290253142677968	-0.5663260821525424
O	-3.212457597569492	0.7954668682677968	2.2463103338474575
O	-3.7815832875694917	-0.5134959557322032	2.4872476938474573
O	-5.185747667569492	-0.2935469377322032	2.1922402938474574
O	-5.285607637569491	2.021556324267797	1.1194460838474576
O	-6.618448537569492	2.650775124267797	0.6692876098474576
O	-4.206320897569492	2.9546218242677966	0.7298915028474575
O	-5.449099197569492	2.641024544267797	2.4797571938474574
O	0.9613754324305082	2.7611809742677966	-0.24060132615254237
O	-3.5638214775694914	0.9252244902677969	-1.3670194761525423
O	-9.628961237569492	-9.612118845732203	1.4173874638474577
O	-10.928547227569492	-5.997820965732203	-0.6272600611525424
O	-10.73137134756949	1.595453467267797	-8.812805366152542
O	-7.328214647569492	0.6359265554677968	-10.210112596152541
O	-8.156163977569491	-3.0746216357322034	-10.169702096152541
O	-9.354836227569491	-3.0159454057322033	-6.558297536152542
O	-6.125819857569491	-1.2908875557322033	-5.765129786152542
O	-3.9500438375694915	-3.7499072257322035	-7.329005406152542
O	-5.779277327569492	-6.520006765732203	-5.390278116152542
O	-5.418368717569492	-5.183294165732203	-2.1089921261525424
O	-1.5751521415694918	-4.675234995732204	-2.5187856961525426
O	-1.0849586995694918	-8.038706675732204	-3.9393449261525424
O	-2.7344947035694918	-9.578171345732203	-0.8457533931525424
O	-0.46074327756949174	-7.868545435732203	1.6649477238474577
O	2.645568402430508	-8.628964045732204	-0.43657968615254233
O	4.456353812430509	-11.380297345732204	4.162170053847458
O	5.035604502430509	-8.874478425732203	-10.414123796152541
O	6.154676172430509	-6.328076265732204	-7.807643126152542
O	2.7986782724305086	-4.914520525732204	-6.666092216152543
O	0.1159278324305082	-5.735380005732203	-9.18260331615254
O	0.041131622430508274	-0.25498424973220324	-10.205879396152541
O	2.4711411824305087	5.074786944267796	-8.933646446152542
O	-9.987694247569491	6.689461444267797	-5.331420616152543
O	-7.083793207569492	8.279720154267796	-3.2663314261525427
O	-3.8417842475694917	6.435462394267796	-3.7986934361525426
O	-1.9016394589694916	9.566267854267796	-4.260690756152543
O	1.5047655924305081	8.258471794267797	-5.311937406152542
O	4.7508115124305075	9.793161924267796	-6.309874066152543
O	7.461188702430508	9.609964284267797	-3.6461107661525425
O	9.72533632243051	7.314327494267797	-5.665869836152543
O	6.949561222430509	4.719532214267797	-5.850864736152543
O	6.077337482430508	5.188301964267797	-2.2139285261525425
O	9.613236222430508	4.243878674267797	-1.0624418561525424
O	10.480560222430508	1.6343682442677967	-3.6704489061525427
O	7.284774932430508	-0.2941514177322032	-3.1068505161525426
O	7.128790042430509	-0.29197585673220317	0.6846925258474575
O	10.16110772243051	-4.114760825732203	-1.8581827261525423
O	6.7319061524305095	-5.424365065732204	-0.8673920431525425
O	7.104306102430508	-5.194778785732204	2.8940478938474574
O	0.8258601624305082	-3.9958582257322033	9.562766633847458
O	3.956159452430508	-2.2424762557322033	10.683791403847458
O	0.9266344224305083	1.4478772632677968	8.656066703847458
O	4.274444872430509	1.0520855282677968	6.7107152238474574
O	5.963623212430509	3.302771324267797	9.147566273847458
O	3.361563462430508	6.011819134267796	8.739251273847458
O	3.7985477924305084	5.467493564267796	5.024769023847457
O	7.442734882430509	6.451860254267796	4.9326860638474574
O	7.065203512430509	9.354278914267796	7.3868841838474575
O	7.011905202430508	10.837248154267796	2.1509346838474577
O	-4.980277887569492	7.662939514267796	11.730853403847458
O	-3.5567044275694917	6.844372104267796	8.386085203847458
O	-7.016469707569492	5.183095844267797	7.913570123847458
O	-7.169222137569491	3.5739509742677966	11.391345403847458
O	-3.8331410675694917	1.7730060542677968	10.856780203847459
O	-4.686696067569492	0.3950915122677968	7.484955403847457
O	-7.859408047569492	-1.1381959657322032	8.878947183847458
O	-3.877368587569492	-4.212398405732204	8.461504973847457
O	-7.175702707569492	-5.5771490157322035	7.199969503847457
O	-7.092585977569492	-11.188903845732204	8.020384173847457
