84

O	0.2736374084920634	2.2200647147555554	0.056705201666667426
O	0.15155921849206333	1.9932634347555556	1.3537132116666675
O	0.49736746849206326	-2.5299310852444448	-0.16951160433333257
O	0.7944227584920633	0.9088406757555554	-0.13802953233333257
O	-2.091195463507937	-3.259252455244445	-1.9844058883333326
O	0.05138998849206344	-5.919491145244445	-0.7747398243333325
O	0.48243675849206324	-0.1903288822444445	0.5598658216666674
O	-1.6362389955079366	2.2016175547555554	-1.5586058683333326
O	0.03892605849206343	-1.6812454352444444	0.4926097056666674
O	-1.1771598354079367	-1.8415815652444445	1.2587812016666675
O	-1.9635360355079365	-0.7597997042444445	1.2871295416666675
O	-1.6856985915079368	0.7516031867555554	1.4972602116666673
O	-0.3209581515079367	0.5047842317555554	1.4576853916666674
O	0.0838758684920633	-3.5005199252444448	-1.0578216913333325
O	-0.5417220375079367	-4.709638135244445	-0.7447498023333325
O	-1.8302288635079367	-4.504327555244445	-1.4235923683333325
O	-2.3769578215079368	-1.9489642352444443	-1.5987565283333325
O	-1.3429305105079368	-0.9004490652444447	-2.023342998333333
O	-3.3329225615079365	-0.9999354452444446	-1.0762654983333326
O	-3.3431563915079368	-1.5152225452444446	-2.7892534583333326
O	-0.7740647705079367	2.8167247747555555	-0.8820843643333326
O	4.183679658492063	-12.797109785244444	3.697868511666667
O	-0.11008270150793664	-11.910581085244443	4.079535381666667
O	-8.852262511507938	-6.717949815244444	8.410624731666669
O	-6.9458997715079365	-3.7801117652444445	9.952740951666668
O	-4.2861860315079365	-6.033105925244445	11.410600751666669
O	-3.7297138915079366	-7.906034135244444	8.124886901666668
O	-3.3309720515079366	-4.583874595244445	6.509526601666667
O	-0.7817082005079367	-3.2540095952444448	8.956058481666668
O	1.2314052784920633	-6.438418645244445	8.315549591666668
O	1.3120724684920635	-6.324907775244444	4.7113256816666675
O	2.6176358984920634	-2.6412416052444447	4.657589891666667
O	5.183511828492064	-3.2967772152444446	7.373150681666667
O	6.648649838492063	-6.1363863452444445	5.259142471666667
O	7.193191278492063	-4.072746355244445	2.1382376616666674
O	8.666654488492064	-1.1413864252444446	4.221998231666667
O	13.237343108492063	-1.8365481852444445	0.9324453316666674
O	6.7792543484920635	3.3191480747555553	13.337082151666667
O	6.097300828492063	4.734069004755555	9.847933351666669
O	3.7243657584920635	2.0899219747555553	8.521302461666668
O	2.2169677684920632	-0.04365285924444455	11.252159651666668
O	-2.6375775815079368	2.4388398147555552	9.994620051666669
O	-5.415710971507937	6.468307244755556	6.455986031666667
O	-16.647769191507937	0.40690784275555547	3.5345503316666678
O	-11.465489191507938	-4.829448625244445	3.171371481666667
O	-10.674435191507936	-2.0949875152444446	0.5521847946666675
O	-7.891655181507937	0.14114414415555546	1.5901078516666673
O	-9.734433961507936	3.3685096547555555	0.7734363516666674
O	-7.203984551507936	5.956179684755555	1.8751833116666676
O	-7.303020051507937	9.685322944755557	1.9840152716666675
O	-5.038869901507937	11.379527114755556	-0.5436874663333325
O	-2.7562982215079366	12.935912114755556	2.0786004716666673
O	-1.9783404895079366	9.488968984755557	3.482312321666668
O	-1.5889295015079368	8.135357724755556	-0.004817062333332567
O	1.2393217784920632	10.493315514755556	-0.8978857673333326
O	2.937420918492063	10.857170514755556	2.4962371316666676
O	3.220879458492063	7.139879134755556	2.999516221666667
O	4.357013148492063	6.044811714755555	-0.49055243233333257
O	8.059798048492063	7.680707094755555	3.1761630016666675
O	7.862378588492063	3.911852304755555	3.045086781666668
O	8.997321208492064	3.3717675847555553	-0.5416258413333326
O	7.138739808492063	-3.3353382852444446	-6.740528388333333
O	7.572705628492064	-0.1456278922444445	-8.695594528333332
O	4.593549458492063	-0.6379189502444446	-11.026191148333332
O	2.424628238492063	-0.7939817762444445	-8.085771068333333
O	3.766053938492063	2.4868848847555554	-6.373834108333333
O	3.5057775884920632	4.268102864755555	-9.629452448333332
O	-0.09299007150793659	3.2377803147555553	-10.180607538333332
O	-0.5397366135079367	4.429584484755555	-6.629313098333332
O	0.3608267484920633	8.032941724755556	-7.170446308333333
O	-1.4335290175079367	8.225173174755556	-10.521568448333332
O	-4.652340031507936	7.263887644755555	-8.830150088333331
O	-4.3659228415079365	10.109996614755556	-6.314052508333333
O	-8.080162881507936	-5.4046861852444446	-11.724762548333333
O	-4.587356191507936	-4.240541245244445	-12.880700448333332
O	-4.264353071507937	-2.4510494752444445	-9.660608128333331
O	-4.708336991507936	-6.074691965244445	-8.153395448333333
O	-2.4146041315079367	-7.709037255244445	-10.711687248333332
O	0.5091983884920632	-5.405137385244445	-9.803646238333332
O	0.09329803849206342	-5.848413655244444	-5.981981258333333
O	0.4458593384920633	-9.650248125244444	-6.658760928333333
O	4.702259798492063	-7.275525175244445	-5.340146928333333
O	3.8274316184920636	-10.437941885244443	-3.399381208333333
O	8.806176698492063	-12.852554385244444	-1.9279822483333326
