15

O	27.198699259215985	5.339178730474872	5.463045098861535
O	26.138411712921922	4.869956730244607	4.700104509992295
O	26.152749867459107	4.992236321394861	3.250388418521125
O	26.946146398303753	5.984495553173607	2.962413000169596
O	27.86046580537537	6.0759510752228545	1.7924501228953855
O	28.969122289423193	6.8393120913714345	2.282786901497264
O	28.476194462014064	7.661294610496652	3.289475580566432
O	27.543656263394183	6.956420497876857	3.8610829326388423
O	27.740894244179785	6.685690805818732	5.298464287646103
O	25.794805478971533	4.166240117950798	2.195355044232527
O	24.720377442498133	3.209869939523084	1.8669428836210482
O	25.053376795241284	2.002920917859938	1.2128051616047215
O	25.37098257216679	2.264746197974678	-0.15219097507900958
O	26.332983303369755	3.28263840860172	-0.12728490120274438
O	25.843644035680533	4.310085342749193	0.7305369921979996
