93

O	-7.445204407238461	1.1958046726153846	4.017462676635384
O	1.0235618027615383	-0.29834011538461536	-1.4311253703646154
O	1.7243199127615385	0.9442439946153847	-1.3930589643646154
O	2.005916072761538	1.7934209046153846	-0.3329815973646154
O	2.666827192761539	2.8126172846153845	-0.9005349323646155
O	0.09790945276153828	-3.2178518653846155	4.155930776635385
O	3.076138712761539	2.5939817846153845	-2.2748653633646154
O	2.5729768127615387	1.4603379966153844	-2.4603523333646153
O	1.2741166527615382	-0.7467078153846155	-2.6424941233646155
O	2.054977382761538	-0.26262434538461543	-3.7142857533646154
O	2.7080930227615383	0.8341202167153846	-3.7128119233646153
O	0.3418824327615384	-1.0460059353846156	-0.3872155953646154
O	0.5093291527615385	-1.0810055953846156	1.0527848566353848
O	-0.4298503442384617	-1.3151150853846154	2.174784676635385
O	-1.4429633312384618	-2.2656414253846155	2.174828376635385
O	-1.6093216732384616	-2.4546999153846154	0.8284174466353845
O	-0.8253084202384616	-1.9232239653846155	-0.32212917336461544
O	-2.2986367772384617	-2.5035101553846153	3.1615264466353845
O	-2.504900537238462	-3.703045225384616	3.241292346635385
O	-1.8891880522384616	-1.9731905553846154	4.514212536635385
O	-1.8704087212384617	-0.5812890953846154	4.1444256266353845
O	-1.0184558192384616	-3.0131793253846153	5.121730296635385
O	-3.312277777238462	-0.26729117538461533	3.8122185966353843
O	-3.765376937238462	0.5846028176153846	4.835948656635384
O	-4.913706957238461	1.2383928176153847	4.501588436635385
O	-5.953683867238461	0.3388148536153846	4.261148086635385
O	-5.623605687238461	-0.8525293853846153	3.688845376635385
O	-4.292732847238462	-1.2582081853846154	3.6564579966353845
O	-6.983152107238461	-0.5163413153846154	-9.387971693364616
O	-7.5892588772384615	-1.0357280553846153	-5.680670803364615
O	-4.382908227238461	-2.3959254153846157	-4.202566733364615
O	-5.370105047238462	-2.6244788553846154	-0.45803062096461544
O	-7.976098617238462	-1.8479061053846153	2.085562266635385
O	-7.853610197238462	-2.3479793253846157	5.808905616635385
O	-10.102991757238462	-0.8121002153846154	8.457968336635384
O	-8.817223627238462	2.8471445146153846	8.358727426635383
O	-8.652958177238462	3.2142929846153843	4.559175256635385
O	-7.376235687238461	2.0588962846153844	1.1897294566353844
O	-4.618628087238462	2.2438409446153846	-1.3867818413646154
O	-5.2132408472384615	2.6352578046153847	-5.129949433364615
O	-2.9436875472384614	2.5171086346153846	-8.214350283364615
O	1.9692145727615384	5.958858594615385	-11.849906853364617
O	1.9002137227615383	5.907156444615385	-8.054221433364615
O	0.15391746276153828	4.348858624615385	-5.120089403364616
O	-2.3251803672384614	6.6557786946153845	-3.350828803364615
O	-3.3093368572384616	5.8592836646153845	0.24660435463538455
O	-6.677717847238461	7.509473194615385	0.9333635166353845
O	-7.863077497238462	7.974886474615385	4.500801756635385
O	-11.293481197238462	9.224736624615383	5.560599716635385
O	7.743359022761538	9.813314944615383	4.705192726635385
O	8.671237452761538	4.178508184615385	-0.20439631536461544
O	2.5733187927615386	14.371936824615384	-2.5173052933646156
O	0.5879662127615384	14.708617424615385	0.6496850466353846
O	-6.067902047238461	12.664157424615384	3.7404526866353844
O	-4.017234687238462	11.283326324615384	0.8543950266353845
O	-0.4301483552384616	10.179021164615383	0.3430204456353846
O	0.8967891127615382	9.592896264615383	-3.1333750533646154
O	3.8979948127615387	7.373772424615385	-2.9666471333646154
O	5.973516552761539	5.2370380146153845	-5.306248643364615
O	4.093935702761539	2.294859284615385	-6.3904209533646155
O	5.670534532761539	-1.0423582153846156	-5.537794873364615
O	4.839894342761538	-3.1488524153846154	-8.549307803364616
O	6.111413162761538	-6.436778235384615	-7.039242343364616
O	3.564181472761539	-6.674678485384615	-4.1666879133646155
O	4.164995562761539	-7.908800795384615	-0.5874679260646154
O	6.819808092761539	-10.403965675384615	0.4467698686353846
O	3.8178571927615383	-12.046537775384616	2.1911972966353845
O	2.3785325827615384	-12.721406075384616	-1.3321213913646153
O	10.053706102761538	1.1751405316153847	12.895511846635383
O	2.982218012761539	-7.9809634453846146	4.911663226635385
O	4.617533012761538	-4.484645995384615	5.000439026635385
O	7.687539482761538	-5.3823613553846155	2.9954152766353848
O	6.951534172761539	-4.750094635384615	-0.6657498913646154
O	9.04103850276154	-5.233076615384615	-3.8222349933646154
O	9.377523002761539	-2.4820208953846157	-6.472387173364615
O	9.55046210276154	-3.1867888553846155	-10.239836903364615
O	12.577474002761539	-3.938111445384615	-0.9785211773646154
O	10.208473902761538	-1.0675508853846156	-0.23827554336461543
O	9.176968702761538	-0.5243644553846155	3.3053321666353845
O	5.672146482761539	0.9073845766153846	3.6145843166353844
O	3.356563872761539	1.6911989156153846	6.567730676635385
O	5.159506522761538	4.076870264615384	8.950802096635384
O	2.303439672761538	4.723649034615384	11.296914046635385
O	-1.5274280572384615	-8.210703025384616	-5.432326003364615
O	-4.424499027238461	-9.991804975384616	-3.863915523364615
O	-9.86381624723846	-9.767315375384616	-3.0657674433646154
O	-8.842850477238462	-6.118569365384615	-3.609880373364615
O	-7.853712087238462	-5.760125665384615	-7.3482497033646155
O	-13.152035697238462	-4.689302075384615	-6.7772577833646155
O	-2.511499747238462	-12.528526075384615	7.346968136635384
O	-3.1180777772384616	-7.487413045384614	11.838123246635384
O	-1.0917380387384616	-4.600799055384615	13.208142146635383
O	-2.2949730972384614	-3.0788908853846153	16.517009046635383
