22

O	5.72444064292199	4.028670150587001	16.159344816264014
O	4.7557121723592966	3.163515997183083	15.772122750457184
O	6.766534091431766	3.0574232999035704	16.398271712556955
O	5.646096163349918	5.260146830679583	16.279877187856478
O	3.6178790191416175	3.893677310555119	15.861527141494584
O	4.600917031383017	1.8686514066380409	16.264471905236036
O	8.013962608520195	3.9484709446034456	16.66999706267715
O	4.52438619873999	5.991043091261687	16.057007905876663
O	2.819001062061162	2.9882252830309257	15.636868198935792
O	3.5195065515286332	5.248523081623256	15.632572584702498
O	3.4116308308926278	1.6641608545536801	15.796327487855608
O	7.621696721158579	5.154696861892487	17.548265318393824
O	9.344761651225273	3.9267002988390884	16.51092134885965
O	6.52347604581754	4.372177227012299	18.23308518105723
O	8.667027751709217	5.805599770938882	18.207858039564062
O	10.063838770916702	3.985251299443413	17.74585163291411
O	5.956258256422427	3.339892867316265	18.657314455529182
O	7.370294141106833	3.422647906430809	19.02105358608353
O	9.982366771021615	5.290662632046303	18.251856324706413
O	5.853103838518203	2.1456326011607003	18.353631858586564
O	7.245861522733059	2.042741181289803	18.782884621537413
O	7.973057212182281	0.903057773682586	19.362215344309476
