94

O	2.095351084541875	2.376897487078125	0.9934711421718749
O	2.066057474541875	3.4117603570781254	1.8311128521718751
O	2.007880634541875	3.1598347670781255	3.1026958221718752
O	1.4952471545418746	1.9910734970781252	3.4542930421718756
O	1.3212973545418747	1.0080907170781253	2.518680732171875
O	1.6064887345418748	1.1142550440781251	1.137137912171875
O	0.9434656445418748	1.8354212870781252	4.793382972171875
O	-0.08570171045812525	0.5163970610781252	4.502610472171876
O	0.5392433645418748	-0.13175394792187478	2.9942134321718754
O	-0.6378081319581252	-0.5089153929218748	2.2007460221718746
O	1.533802854541875	0.08324347407812527	0.16807530517187497
O	1.412471694541875	0.10156538207812527	-1.281130517828125
O	0.8479620045418748	-0.9410849529218748	-2.179430827828125
O	0.3133966385418747	-2.1970419129218746	-1.919834407828125
O	0.8658341745418747	-2.329543632921875	-0.645392166428125
O	1.2212957945418748	-1.3108254529218748	0.322590424171875
O	0.8868818045418747	-2.6814540029218747	-3.199575867828125
O	-0.20024112145812528	-3.0246749629218748	-3.672936007828125
O	2.0836228945418744	-3.1047535129218744	-2.526583867828125
O	1.2837697845418747	-4.120613232921875	-1.984584427828125
O	-0.16281455345812523	-4.468208482921875	-1.963260317828125
O	-0.39072435145812523	-5.576915582921875	-2.725050327828125
O	-1.7799869154581252	-5.616655862921875	-3.053493377828125
O	-2.4228040654581253	-4.983761462921875	-2.146367957828125
O	-1.4686203614581252	-4.181287392921875	-1.406056220828125
O	-3.699140375458125	-5.409523612921875	-1.538270274828125
O	-3.8666780354581256	-4.900536802921875	-0.308679947828125
O	-3.0763421054581253	-3.762911572921875	0.17710755217187502
O	-1.8292034854581252	-3.388925842921875	-0.17053938782812506
O	2.854908514541875	-2.163910672921875	-1.6716786508281252
O	-3.2455770054581254	9.151466477078126	-5.220102857828125
O	-3.465569125458125	5.420444507078125	-5.901123137828125
O	-0.44651503045812524	3.704714257078125	-4.335680287828125
O	-1.2859455314581254	0.12372094307812526	-5.2215232678281245
O	-3.8646212454581255	-2.2190428329218745	-6.699757697828125
O	-3.4972151454581253	-6.057760402921875	-6.720905877828125
O	-6.1857112254581255	-8.622664682921876	-7.228800227828125
O	-8.025882045458125	-8.284732102921875	-3.849648417828125
O	-8.037081595458126	-4.471940872921875	-3.6120430378281254
O	-6.164251395458125	-1.1694201029218747	-3.512622057828125
O	-4.238035665458125	1.3912771380781253	-1.342115697828125
O	-4.687625915458125	5.095890367078125	-1.657929539828125
O	-2.945826415458125	8.118534207078126	-0.130005967828125
O	-2.162245345458125	11.901597157078125	5.7044709121718755
O	-2.394290535458125	8.116612457078125	5.767325142171875
O	-2.423957045458125	5.061015577078125	3.4803398021718754
O	-5.887750045458125	3.4808050770781254	3.203990342171875
O	-6.106800465458125	-0.1638884769218748	2.020793652171875
O	-9.716078815458125	-0.6074474229218747	0.6280524821718749
O	-11.069139645458126	-4.129058752921875	0.12620432717187502
O	-14.319661245458125	-5.082511692921875	-1.573167714828125
O	-2.0851228654581253	-4.522521642921875	13.091360712171875
O	3.0446796045418747	0.08783823207812524	9.965324212171874
O	-8.524464575458126	3.0495762270781253	11.998073112171875
O	-10.222073795458124	-0.07966868392187476	10.812169912171875
O	-13.278339745458124	-3.1573648729218746	4.576798652171875
O	-10.708567945458125	-0.4120938229218747	5.1086041821718755
O	-7.479818055458125	-0.013830241921874764	7.052256452171875
O	-5.977774865458125	3.380555577078125	7.557598272171876
O	-2.3502393254581255	3.0872174870781253	8.370322722171874
O	0.7055903545418747	5.319225367078125	8.530369562171874
O	1.7701252645418746	6.379066267078125	5.085202752171875
O	5.248536594541875	5.134775897078125	4.082294892171875
O	6.415220754541875	7.969655547078125	1.928213422171875
O	9.634491254541874	6.254841667078125	0.7641140021718749
O	7.997065194541875	3.388832357078125	-1.190439509828125
O	9.208859124541876	-0.23118127192187476	-1.402764389828125
O	12.753615354541875	-1.433121122921875	-1.0151879288281251
O	11.900270954541876	-3.2696084929218747	-4.299276217828125
O	11.629094354541875	0.21293144007812526	-5.959520677828125
O	5.493214364541875	-13.189982642921875	9.442403612171875
O	8.159080124541875	-5.729982922921875	-2.142641717828125
O	6.653414004541875	-5.603878792921875	1.4342020821718748
O	9.479648254541875	-3.6741841529218746	3.073341202171875
O	8.632388754541875	0.02342668607812526	2.7651987621718748
O	10.529370654541875	3.133379077078125	3.897673762171875
O	8.826653144541876	5.946637767078125	5.862849752171875
O	7.966078034541875	-0.18422498692187472	7.6486416021718755
O	6.722510834541875	-3.691353062921875	7.357528032171875
O	3.3407267145418746	-3.9382366929218753	5.746385082171876
O	1.0471603645418748	-6.703696792921875	4.472381332171875
O	0.3063659135418747	-9.033785822921875	7.473707582171875
O	5.834287344541875	4.475345247078125	-6.070049447828125
O	5.181167974541875	2.8506810270781253	-9.355910017828126
O	1.4228770045418748	2.265668497078125	-13.288676687828126
O	-0.5993412751381253	3.0263865470781255	-10.132255317828125
O	0.005218650541874759	6.752907517078125	-9.262124477828126
O	-0.7652630184581253	7.865134167078125	-12.861936687828125
O	-4.317542965458125	6.385488477078125	-12.531187387828126
O	-7.185941735458125	8.762531757078126	-11.697245787828125
O	7.735398884541874	-8.356744302921875	-9.221913007828126
O	3.279203624541875	-12.537756942921876	-6.242062857828125
O	2.4250246245418747	-13.779261642921876	-2.771713997828125
O	0.3169325725418748	-16.967234742921875	-2.5778604178281253
