32

O	12.191410334784468	-1.9559414552720145	13.925398408519142
O	5.729981621769239	5.365785457030025	16.56090477259607
O	4.517313270875166	5.593829616618409	15.940744329661754
O	3.7406707254304705	4.7213788845503855	16.567987264600617
O	4.077661418907415	3.4657010271593407	16.16683721617893
O	5.309023647771127	3.154674517189381	16.786157605836152
O	6.24241417708128	4.180974168847065	16.987066854371857
O	3.7146687707660773	2.1674914367757587	15.571525803772353
O	3.7591800800413218	1.399980252200872	16.83413905631674
O	5.274337456796663	1.729544806800131	16.999612148491025
O	7.411325155845836	3.906041202466713	17.801480211006666
O	6.24865126872404	0.7335688122591195	16.63235925461587
O	4.97400895488696	1.673117391593164	15.079300293167238
O	7.440423693241676	2.6698331038531085	18.58486389160953
O	8.591193839498114	2.375077436701255	19.50633844226971
O	9.739218721521635	2.145719150023244	18.614722510979533
O	9.939740724957051	3.4272663742278935	18.1945271896526
O	8.780822229108985	4.314363775741123	17.738365563491207
O	9.666781948585655	0.7914874231873283	18.55346114346714
O	10.882603805401638	0.21861878656007727	19.289178428509075
O	8.967031232498108	-0.08512793293146981	18.068867902045735
O	11.580041607717416	-0.14609638019815208	18.046103477783895
O	11.231571830282675	1.3164494525497712	20.208577002439807
O	12.480087718613653	1.2048772355889343	20.89727300851183
O	11.64300227552759	0.6670121285746249	16.883005155434976
O	12.194514893002438	0.11931575281334572	15.764596118386411
O	12.204288587827797	-1.223828714579398	15.531560533223882
O	11.610358666103597	-1.9643470623079602	16.498523900108918
O	10.950187906504523	-1.3120075389870798	17.527693394966224
O	12.823834456585221	2.5122938252772595	21.37361824247974
O	13.823650420206704	3.2547449779572735	20.542681101578857
O	11.665540151989571	3.4178573856346333	21.650280843014684
