38

O	4.899561967792433	4.174737997018171	16.67505678436061
O	4.813593553630779	2.903754173401043	16.27616561063594
O	5.743213450181445	1.9442540357415268	16.7377979074091
O	6.915358293895507	2.2714220869872737	17.32508883931405
O	7.012633837901556	3.6129746717336424	17.650842792613012
O	6.173469880207121	4.491881174482443	17.197807005548654
O	7.991172581917152	1.5412296251571678	17.86110702539041
O	8.540767170623846	1.5028010502329374	19.1038682876485
O	8.732861726413475	2.9736554678694924	19.324561766254227
O	8.406707465520391	3.8733513781992768	18.143467618165193
O	9.190443823876711	0.23432892982313447	19.340170372443765
O	9.58409764243042	-0.4177256910412719	20.472464674578394
O	10.440456327405432	0.15797614851087993	21.490324642221296
O	10.248773801039427	1.5445040437438804	21.03700047741329
O	8.83491510084164	1.8205135871160416	20.498726601045412
O	4.183577102218838	5.085618288444288	15.944774279557082
O	9.152584580908279	3.142513167294042	17.335469076919164
O	9.912113459828845	-1.7482078024760261	20.400674720228093
O	9.969288585600417	-2.1276553997718155	18.97804401968876
O	8.813294358685258	-1.7905756282035437	18.414964741463162
O	10.798862996042327	-3.3193053351935333	18.852571601389815
O	12.15677302162747	-2.7894444803534215	19.065781866160016
O	12.132126579387071	-2.0974472648203735	20.19243886115805
O	12.247949616916939	-3.0910018926704463	21.369049537221873
O	12.383464918763703	0.025186384649116045	18.789627364963053
O	11.875174211143388	1.0062957995181776	17.997255162472484
O	11.743190098100923	2.2295020321054313	18.694158471753745
O	13.031676988394306	2.5933569073487712	18.769293732195862
O	13.591018648106658	1.7972369843688873	19.84250526054084
O	13.496710869639399	0.4332609714369403	19.435566455709782
O	14.046830138591154	-0.40452465091532797	20.487781122027517
O	10.810210492072306	0.5031062062694023	17.196743799024755
O	12.320486565357918	-1.537084582106872	18.03764769484037
O	13.313773289822857	-1.3022497886360893	17.061813769309985
O	11.101326067364985	-1.6393372366569368	17.11827992189918
O	13.515898715304305	-3.616525462071623	21.230166210776712
O	12.489270923801643	-5.641489120708263	20.271671443251414
O	13.585624590920121	-4.9499160770998	20.960201225730867
