104

O	-2.1081228610047624	0.35200702455873023	4.035079155247619
O	-1.2073760590047626	-0.8398740984412697	3.7225783452476184
O	-2.0244753310047625	-1.7981812684412697	4.4535838652476185
O	-0.3534726620047626	-0.20948232944126977	3.089598425247619
O	-3.2177853320047625	-1.5081757484412694	3.626999835247619
O	-4.388142312004763	-2.1190185384412694	3.784343325247619
O	-5.005275022004763	-1.4359354984412698	4.967551055247618
O	-3.415443482004763	-1.4724401784412695	0.8956344452476188
O	-2.5333666020047625	-1.3437807684412695	-0.07504273295238126
O	-2.8587229720047627	-0.6420841284412698	-1.1607803247523814
O	-4.1129371020047625	-0.4723378284412697	-1.4534598447523812
O	-5.032151022004763	-0.3588209984412697	-0.3899574617523813
O	-4.648365952004763	-1.1720290184412696	0.6868631742476188
O	-5.665642662004762	-1.1226782584412698	1.6827176852476187
O	-1.1897104520047628	-1.4196590884412696	0.3776926502476187
O	-1.8393117570047628	1.7394424715587302	0.8039058092476188
O	-3.3062724220047626	1.7548276915587304	0.9450982052476187
O	-4.226435712004763	1.9044732815587304	1.962837745247619
O	-3.969150752004763	1.0284615615587303	3.1491637852476186
O	-2.6433925620047627	0.6177282584587303	2.8223508552476186
O	-1.6549286250047626	1.3535509035587303	2.1578614752476186
O	-2.6422270220047626	2.2196743715587304	-0.23181735075238125
O	-1.7548646420047627	2.3336850915587304	-1.4802493847523812
O	-0.6123082210047627	1.6324447125587302	-1.4626817547523812
O	-0.7688781560047626	1.3832253665587304	0.03649942524761873
O	0.5328760379952373	1.9579605515587302	-2.295627464752381
O	1.5729565779952375	1.2889819375587304	-1.7230430547523812
O	2.778200297995237	1.92469972155873	-1.8258675847523813
O	2.9656060779952376	2.6695120415587303	-2.9454256347523815
O	2.0812794179952374	2.6480091215587303	-3.903142214752381
O	0.7895901179952372	2.5790656815587303	-3.401302464752381
O	1.1723493979952373	0.38591279455873023	-0.7432014467523813
O	1.4711696979952373	0.19568464855873025	0.6315912702476187
O	2.5675880279952374	1.0597628405587303	0.6658799232476187
O	3.2256161779952373	1.7513892915587301	-0.49773785075238125
O	-3.9892750220047626	-1.5096480484412695	5.944907305247619
O	-3.1318437920047626	-3.2013986484412698	7.280858715247619
O	-4.004438342004763	-2.9019930784412695	6.098805735247619
O	-2.6813171720047624	-2.1479275884412696	2.269141985247619
O	-3.1073883520047625	-3.3712815384412695	1.8681108352476188
O	-1.2097270860047626	-2.3882664784412695	2.233133825247619
O	0.8892076379952374	-4.21553450844127	-11.680993944752382
O	-1.0720806530047626	-4.81335375844127	-8.48665309475238
O	-1.3938729154047627	-1.4823967084412697	-6.6901960547523815
O	-3.2661219120047624	-2.73158836844127	-3.615107264752381
O	-4.657869852004763	-5.49051142844127	-1.5617778547523813
O	-6.395396452004762	-5.63925416844127	1.8065091352476188
O	-6.868839572004763	-8.29045035844127	4.425365345247618
O	-3.2005431020047626	-8.79374367844127	5.411158255247619
O	-1.5353314919047627	-8.71520658844127	1.9289750652476185
O	-0.7999803320047627	-6.76812923844127	-1.2131253647523812
O	1.4504396379952373	-4.30194449844127	-2.9838067047523813
O	2.818765717995237	-4.52822053844127	-6.458808044752382
O	4.683450427995238	-2.1525827384412697	-8.810483844752381
O	10.971052777995238	0.7507966103587302	-10.184392344752382
O	9.547009077995238	0.41811035855873024	-6.6722513347523815
O	6.467093557995238	-0.6189228284412697	-4.795367464752381
O	6.743258467995238	-4.03486330844127	-3.0110472847523813
O	4.348366107995238	-4.78286967844127	-0.07560917235238127
O	4.137227867995238	-8.56517755844127	0.30681425924761874
O	2.8048189479952375	-10.07993911844127	3.5042111852476188
O	2.0685571779952374	-13.76348531844127	4.097571395247619
O	-1.8654515840047627	-14.49652541844127	7.869297085247618
O	6.287886027995237	-0.5349763084412696	10.316678555247618
O	9.679528877995239	-2.1723729484412697	9.597120595247619
O	13.250128977995237	-5.5078105184412705	3.7844069252476187
O	7.712005857995237	-10.59627831844127	4.5342312952476185
O	8.390631697995238	-7.934945128441271	1.9150063652476186
O	9.170137477995238	-4.26380208844127	1.913095415247619
O	10.526075077995237	-2.6001469684412695	-1.2346492247523813
O	9.949951677995237	1.1308884445587304	-1.0701132367523813
O	6.858518087995238	3.9752647515587305	-5.749503244752382
O	4.3918058279952366	6.82158486155873	-5.302423424752382
O	3.357153347995237	7.22769792155873	-8.842681184752381
O	-1.6907833900047626	7.59558470155873	-6.188152914752381
O	-3.8086803220047627	8.56412910155873	-3.074946464752381
O	-5.202987232004762	11.85842768155873	-2.1222512647523812
O	-8.425977112004762	9.78595020155873	-1.5675460747523813
O	-8.366821192004762	9.04101943155873	-5.366668094752382
O	1.5820502179952372	8.33645875155873	13.457859755247618
O	-3.7582062820047626	6.98818289155873	11.373953055247618
O	-6.3393679020047635	7.07104010155873	1.9473881752476185
O	-2.7493945920047627	6.91380966155873	3.3529918652476187
O	-1.5242771014047627	10.15850738155873	1.8448113352476188
O	0.050674197995237424	9.50290228155873	-1.5986363647523814
O	1.6802377479952373	11.74010618155873	-4.255899174752382
O	4.337702587995237	10.62827546155873	0.6056412702476187
O	3.0650582679952376	9.20275125155873	3.860220035247619
O	2.6305360879952375	5.43946961155873	3.9043483652476185
O	1.3300120479952375	2.6589907015587304	6.2254477052476185
O	3.264499847995237	2.9466954815587303	9.463629865247619
O	1.7877743479952373	-0.055460648441269744	11.166890455247618
O	-0.2781924220047627	1.9571113715587303	13.682484655247618
O	-4.682238692004763	3.7825397715587306	-8.739576324752381
O	-7.966240982004763	1.9332248315587304	-8.343105544752381
O	-10.314503972004763	-3.0213900284412696	-8.73956642475238
O	-6.613353762004763	-3.7437681784412695	-8.126034964752382
O	-4.609363732004763	-2.7065369684412697	-11.311334644752382
O	-6.116583272004762	-7.917687748441271	-11.752886044752382
O	-13.201010922004762	4.03630344155873	1.7739065652476187
O	-12.404440522004762	3.7259644515587302	5.5015236552476185
O	-10.757796722004763	0.8219762725587303	7.264922805247618
O	-7.9558124220047635	1.1105887135587302	9.755936595247618
O	-8.410095282004763	-0.8044770184412698	13.03319735524762
