31

O	22.518615339585235	-19.191555560171995	11.902766477911767
O	22.67260464710564	-13.945875594260846	8.99760746771296
O	23.72174815286928	-17.463213341410412	2.076654576426602
O	24.9514111525978	-15.794052115775212	2.938428390440677
O	23.15089176279895	-19.89871208511374	5.766074687076424
O	22.146335328368036	-15.020401793859172	12.264762180713662
O	25.407974230817487	-18.185094824031736	3.3179185913868077
O	22.746282193340697	-17.038180581289865	8.080286678558808
O	21.946393375011912	-21.38700539815674	8.586647074657495
O	23.133648999834453	-20.84201068267004	6.705905544566636
O	22.223863318676752	-16.18019787183082	11.635091572958462
O	19.596102856275817	-24.673484384094785	9.002360135365105
O	22.252985788529628	-14.049014863889546	11.364955782697582
O	20.88695751629253	-24.644986787142205	9.740120729413855
O	19.48328416628875	-22.384184382975633	8.553945404076906
O	19.804709174788524	-23.666017075773404	7.914268428979118
O	22.325235471494484	-18.49452736765373	9.541443443451708
O	20.012927579120113	-22.400202554426585	9.887729280406647
O	21.76538474138179	-19.246810430040863	10.605763246970184
O	21.890487989789136	-22.764025394902593	8.39387444462078
O	22.89479136957294	-17.584569530251784	5.239828546583642
O	23.388073773723686	-16.91925102509048	4.324287186296372
O	22.75156378682147	-20.469667674663654	7.997878897532061
O	22.89626393578119	-18.631142107356467	6.18206237107702
O	22.870268565588457	-18.213687710159483	7.477107984814185
O	22.688211841483064	-19.168875098570602	8.416916086316371
O	22.30564227843565	-16.04126826800086	10.288990135931503
O	22.424326493142765	-14.628798410670665	10.197422145265914
O	22.558323289196576	-17.158430390809244	9.391320554341263
O	21.297956173004604	-23.220998258303588	9.744826348410491
O	24.336395880123785	-17.142226804955957	3.260010463800823
