30

O	22.287961555865323	-16.814993359583678	11.708129053750925
O	22.292427983547427	-15.453004853500756	11.187475992496594
O	22.71989562062947	-14.256412745006227	11.300330750442235
O	22.57527112392772	-13.701757173432709	10.04925906109868
O	22.79233247801684	-14.580081154661832	9.100086882033716
O	23.209953934612894	-14.608783426898762	7.69721396974273
O	23.357419911558903	-15.98950653342544	7.2560779937892805
O	22.954171698914156	-17.046070146156246	7.899536633419375
O	22.787363154659047	-17.111900029586664	9.382281279726962
O	22.64607652551587	-15.818803061646392	9.778021233651314
O	23.04326186239423	-18.39288452343606	7.425091338224979
O	23.691408011621416	-18.50385764347299	6.233824147941243
O	23.721214941466705	-19.62619950742706	5.522431798850329
O	22.946212085600916	-20.623211635899487	5.937718929874561
O	22.39019326739473	-20.588368757003146	7.182843396696558
O	22.104394659071236	-21.80124424766288	7.769862334511304
O	20.772140560733515	-21.871957108912454	8.28414271429914
O	20.67688652430641	-23.36686861903098	8.59733198773796
O	19.345975935693676	-23.780811293089428	8.36469665564299
O	21.29075255466056	-23.420634063792477	9.93676413837043
O	21.290071773748018	-22.165587262209456	10.712672583601552
O	20.20283343313292	-21.81663983331653	11.349319601368926
O	20.64338519001826	-20.870384286673545	12.31057760169789
O	21.60047516691562	-20.115572700145435	11.92273889322468
O	22.434590362176515	-19.610776200415465	13.025772939652128
O	23.654664319710694	-19.46024331528469	12.270362978278339
O	23.95500923248471	-19.684971585346872	11.024826430507526
O	23.444096764651984	-21.001528688336528	10.573400601078026
O	22.159535000253996	-21.025694383436402	10.872533367797455
O	22.251849225625193	-19.414386295713435	7.926487808147796
