92

O	-3.5664900981068968	5.118333394172414	4.195805853915517
O	1.7874348618931035	1.7450530221724136	-3.8907463860844826
O	-0.9728202691068963	4.835124214172414	1.5165149439155172
O	-4.207337728106896	4.236224914172414	5.011282413915517
O	2.4629770218931037	-0.1574168858275864	-4.488936696084483
O	2.217807891893104	1.0627139051724137	-4.918835576084483
O	-5.255864798106896	3.550802514172414	4.464706903915517
O	2.065442231893104	-1.3995416558275862	-2.518706816084483
O	-0.6751898941068963	-0.9629875958275864	5.289392903915517
O	-5.931409008106896	4.248052744172414	3.5025240339155177
O	-0.06537473410689632	3.0132418141724138	2.4406020239155173
O	-5.354336508106896	5.247884934172413	2.7219318939155173
O	0.25642263189310355	2.8998619341724137	-1.4794094960844828
O	-4.053000228106896	5.539064774172414	2.9905399239155175
O	1.4842646518931037	2.075022281172414	-0.5185222930844828
O	-0.9038904085068964	5.607870144172414	2.7647500839155175
O	-0.0626668781068963	5.047752174172414	4.883198803915517
O	2.129052771893104	-0.19259594582758632	-3.2141145960844826
O	1.6623137318931038	1.0748405691724137	-2.759277336084483
O	-0.1318687601068963	3.8207681941724134	1.550675543915517
O	-1.3324985801068965	3.006721484172414	0.9550869139155173
O	0.5470665018931036	1.7994354289724137	1.7062875239155173
O	-0.2593822941068964	0.6383459441724137	1.8825252639155172
O	0.44734855189310374	1.9258631665724137	0.25315218891551716
O	-0.32803226710689637	2.8776688341724137	-0.18948693208448286
O	0.9523203518931036	1.7244383911724137	-1.7166742460844828
O	-0.6512734771068963	0.08821187417241383	3.0707163339155175
O	-1.3075972241068963	-0.7856147458275862	4.094012593915517
O	-2.6411712781068966	-0.5649181958275862	4.627358443915517
O	-1.2220990271068963	-2.314914125827586	3.8756294539155176
O	0.6154489018931038	4.295946964172414	-1.869644036084483
O	-0.28314800010689634	4.794069814172413	-2.9617818660844826
O	-1.1099344191068963	4.748350424172414	3.969406133915517
O	-2.2468944281068963	5.5720195941724135	4.623733623915517
O	-5.415658808106896	5.721646134172413	-8.263685136084483
O	-2.013419778106896	5.542321654172413	-6.678746526084483
O	-2.8588929981068967	7.269952294172414	-3.4030812160844826
O	-5.779391588106896	8.408584724172414	-1.2638001680844828
O	-6.340379568106896	9.569136344172414	2.324732473915517
O	-8.891046598106897	9.607147694172413	5.155549263915518
O	-7.955985528106896	5.999866764172413	5.783316083915517
O	-9.082871528106898	4.840240004172413	2.2793585239155174
O	-7.423502338106896	4.457219844172414	-1.1283570390844828
O	-4.825330338106896	2.419678145172414	-3.055741886084483
O	-5.425605048106896	1.4891676791724138	-6.660991076084483
O	-3.253583818106897	-0.07157324582758617	-9.379802596084483
O	-5.194425928106896	-3.186496425827586	-10.434735336084483
O	-4.871071568106896	-6.0257128158275854	-12.947778806084482
O	-0.7594938649068963	-5.458778545827586	-8.173431946084483
O	-1.6282009181068964	-2.611617845827586	-5.808390986084483
O	-4.9747414181068965	-2.9282719158275863	-3.951586456084483
O	-5.600288338106896	-1.0518222658275862	-0.6860834201844829
O	-9.225078598106897	-0.5306317558275864	-0.04157092508448279
O	-10.430613928106897	0.46533470417241385	3.4669422139155177
O	-14.357190968106897	4.263442634172414	8.942158303915518
O	-12.043082068106896	1.7140747111724137	10.599112993915517
O	-1.7990163751068964	-5.551388925827586	9.561810493915518
O	-3.074026528106896	-8.700439675827587	7.775478623915518
O	1.8605020718931036	-9.860729075827587	6.516147543915517
O	12.498470331893103	-5.566153655827586	1.5681310439155172
O	8.978703271893103	-6.049405135827586	3.0231429239155174
O	6.007256801893104	-5.736995135827586	0.6581959439155171
O	0.7471748318931037	-9.656842075827587	0.5025997539155173
O	-4.559060058106897	-11.602535175827587	-0.8538908510844828
O	-6.500729238106896	-10.165521475827587	2.066620153915517
O	-8.983198598106897	-5.179848595827586	0.6621616039155173
O	-5.282721918106896	-5.898885455827585	0.5713082739155172
O	-3.7675907281068968	-7.087211365827587	-2.7526425860844825
O	-0.007148381106896307	-6.697288295827587	-2.7494483460844825
O	3.1194683118931037	-6.053997885827586	-4.730211566084483
O	3.0333123318931037	-2.9547250658275863	-6.794842976084483
O	6.085570571893104	-0.9329022858275864	-5.887188746084483
O	6.755492251893104	0.47493610417241383	-9.426142156084483
O	9.385949531893102	2.918549004172414	-8.134050506084483
O	7.106670431893104	4.938274514172414	-5.832884226084483
O	7.828387641893104	6.386795954172413	-2.391066116084483
O	8.484741761893103	11.359375834172413	-4.056013436084483
O	5.681663371893104	4.085553404172414	11.252374493915518
O	6.146583541893104	7.879887764172414	2.648225113915517
O	6.360568991893103	4.203687134172414	3.696852083915517
O	9.623733131893102	3.4501124641724137	2.035239803915517
O	8.857463131893104	2.538357831172414	-1.5356347970844828
O	11.049747531893104	1.1627482521724137	-4.334343676084483
O	10.414348231893102	-1.8765153658275864	-6.5553752160844825
O	10.054233731893103	-2.2555606758275863	-0.10669278908448288
O	8.609346111893103	-1.1965519658275863	3.2527343839155174
O	4.837477881893104	-0.6781816658275863	3.0220296239155173
O	2.0665456818931034	-0.02341253582758629	5.4663940739155175
O	1.9331204218931035	-2.294403845827586	8.374821533915517
O	-1.1883149211068964	-0.6588697858275863	9.967166393915518
O	2.642230591893104	7.163307754172413	14.501485093915518
O	3.342899781893104	10.213870594172413	12.344122693915518
