24

O	26.940500652796185	-24.45743195107405	6.512308731621592
O	25.441019405174956	-24.148953750748433	7.331470844462376
O	24.525004759565658	-23.42761843389338	6.6203717106378335
O	23.54004733534121	-22.67507481543748	7.281131884235878
O	23.264337398603953	-22.886362257334312	8.6295162872591
O	24.452222131174672	-23.145351516537033	9.259272654184109
O	25.186499613683054	-24.211229857737425	8.671258470024531
O	22.261035955669314	-22.097149110216453	9.326002616808596
O	21.822834915210475	-22.55551925834258	10.669004397231836
O	20.49357041550125	-22.133027485917697	11.207869657880815
O	19.34749075668166	-22.4100090303965	10.40233916033258
O	19.92660743777749	-22.69464029858658	9.145123130570356
O	20.984400213142038	-21.784631640567376	8.635041364902397
O	22.905535241541642	-20.732062334684272	9.338985583117157
O	23.141992271789057	-20.220386518610393	10.53599656885189
O	22.824937628347527	-18.821554110784223	10.674288786427097
O	22.78557174917226	-17.899043276064358	9.630079463950052
O	23.239248629923047	-18.529862585007287	8.488137828206648
O	23.294425610629993	-19.96617100892887	8.322895154973061
O	22.741613763289045	-16.454303281999604	9.98818604633797
O	22.876994542499098	-15.37398777283991	9.270705806443509
O	22.746433386411596	-14.182530590490856	10.062474929282873
O	22.4185688054632	-14.514967387950241	11.224604826199586
O	22.332418505737195	-15.937289650485152	11.348259118765782
