34

O	24.613677261712258	-24.394057666555966	5.834966907437875
O	22.262701266231442	-16.468965685158736	11.926082489229673
O	22.814777170318507	-22.178984611066333	8.252267100201939
O	25.32105712639826	-24.19307262073456	4.689095268175016
O	22.33759188024192	-14.379390287056154	11.677795036186922
O	22.274830790323076	-15.33710746314888	12.579171180027924
O	26.615771092504456	-23.780523747742976	4.835645070082878
O	22.70177183336573	-14.23091834470555	9.34797901820823
O	23.579455582280254	-18.61046582318317	2.368201066476418
O	27.219495706643826	-24.245076026370207	5.970555422897376
O	22.34899135660052	-20.661750236186293	6.678198093688704
O	26.52835371798703	-24.582502111394575	7.132651613454286
O	22.85693820405259	-18.934750104871572	10.177106409933717
O	25.174501184465086	-24.461662304253963	7.078863648875017
O	21.778686045789662	-18.16133150261913	9.015014913957941
O	22.266682654718323	-23.2916266799162	7.4638518597738965
O	21.238645172699	-23.32999351695652	5.35414072574059
O	22.407990961677097	-14.962995274075313	10.497810482852259
O	22.362532656151025	-16.382885286933483	10.611667752906026
O	22.337628610633395	-21.02704286635443	7.8248984172448255
O	23.823180598321738	-20.54157947170968	7.952845325201012
O	22.29739944414368	-19.126594245915246	6.8463122017216635
O	23.37079924996773	-18.502059974244354	6.148230549156097
O	22.637672505495694	-18.708653149295486	8.205381525813271
O	23.153552015911846	-19.625990669905164	8.977028490948701
O	22.61788927109531	-17.59390754607451	9.917904666299599
O	23.670783560348543	-18.636414913674983	4.8215872749894535
O	24.349060975400594	-18.528339207498444	3.491275864683023
O	25.417260552185905	-19.4048200991124	3.041480987892051
O	24.78339941733165	-17.115825046473745	3.0331147642385616
O	22.16980913419995	-19.838086440513525	11.147711054380489
O	23.06807099593633	-20.16436730948555	12.303147867012829
O	22.48570048229913	-23.10256857452597	5.998003059193613
O	23.161393781361628	-24.46598309257635	5.708533120486743
