83

O	-0.8947673639392857	1.6818687082500017	0.1517388798035716
O	-0.6984806719392858	1.8895683812500017	1.5506352588035717
O	-1.7866130649392857	2.4204916612500016	2.3680456888035715
O	-3.0282166889392856	2.984994761250002	1.9822854488035717
O	-3.503203008939286	3.891426381250002	2.9648722088035715
O	-4.407703318939285	2.4460981212500017	1.8640690588035715
O	-4.495499478939286	1.7352366082500017	3.1775607888035715
O	-5.449064718939286	0.8715118732500018	2.4310172588035717
O	-4.326600698939286	0.010819951250001791	1.7626083288035717
O	-3.9347235089392854	-0.6245871787499981	2.9796943888035714
O	-2.595434868939286	-0.059720068749998356	2.9654464888035714
O	-3.1549183789392856	1.2528324882500017	3.6293594488035716
O	-4.659736898939285	-0.5061548187499982	4.380068898803572
O	-3.9217347489392855	-1.6840266787499982	5.011125398803571
O	-6.027471918939286	-0.1447574287499982	4.462188988803572
O	-4.117825568939286	0.29083169825000177	5.525134638803571
O	-2.923593308939286	2.863024901250002	0.5571806428035716
O	-2.259645118939286	1.6190996032500018	0.21053156780357163
O	-0.03956801893928574	1.6795028542500017	-0.9406501741964284
O	-0.33173856493928566	2.572825141250002	-2.0218777311964287
O	0.46150752106071424	2.4030218812500017	-3.249007411196428
O	1.8347420810607142	2.2769415312500016	-3.1365312411964283
O	1.9019700310607142	1.2018193641800017	-2.1917654811964287
O	3.2096929310607143	0.7203071242500018	-2.4939108611964285
O	3.558185601060715	0.9416819722500018	-1.1712770351964283
O	2.450420951060714	0.5311309102500018	-0.2488357571964284
O	1.2872803610607144	1.0727112672500017	-0.9697976951964284
O	-4.028400238939286	-5.2746070187499985	-11.968440901196429
O	-5.795313098939285	-2.931323228749998	-9.550957951196429
O	-6.838212638939286	-2.9064716787499987	-5.9366261211964275
O	-5.0398360889392855	0.031886711250001865	-4.375430351196428
O	-6.471132628939285	-0.5591238487499983	-0.8495901041964284
O	-8.270379178939287	-3.2412368887499983	1.3874370988035716
O	-8.869155248939286	-3.658140028749998	5.213736298803571
O	-9.195889518939286	-6.122094878749998	8.083275338803572
O	-5.387518178939286	-6.505770748749999	7.916728828803572
O	-5.490703158939286	-7.698641698749999	4.270245748803571
O	-5.156445168939285	-6.086135508749999	0.7793664488035716
O	-2.673558418939286	-4.122141098749998	-1.3371139271964285
O	-2.7200535289392858	-4.5966700187499985	-5.037214381196428
O	-0.9791995879392857	-2.915049058749998	-7.905231721196428
O	0.8435967110607143	-5.809637538749998	-9.557947391196429
O	5.005552411060714	-2.8366948187499985	-7.788680951196428
O	2.5518857110607147	-2.7522619587499983	-4.862340481196428
O	1.8942086510607143	-6.011414538749998	-3.1372969311964285
O	0.6200438510607142	-6.213876278749998	0.37289771180357156
O	-1.1080078169392857	-9.575912418749997	0.8573454288035716
O	-1.8769847269392859	-10.802487918749998	4.411629568803571
O	-5.799880878939286	-13.432494618749997	10.551952498803573
O	-2.284487778939286	-12.459756718749999	11.673275198803571
O	11.526626811060714	4.752859701250001	2.9880869688035716
O	9.607588011060713	2.363657251250002	0.7346679688035715
O	8.970805311060714	-10.921126518749999	0.9531179988035716
O	3.2626838610607143	-11.147826718749998	0.6044280278035716
O	5.303120691060714	-7.9650000687499976	0.5325117448035717
O	6.282983831060714	-6.7239052787499975	-2.9065238811964282
O	7.435457151060715	-3.1575575487499985	-2.7553645211964284
O	4.544520941060714	1.4615386822500018	-5.971917781196428
O	3.993800081060715	4.942856071250002	-4.590344061196429
O	2.3006949410607147	6.424899121250002	-7.6899729311964276
O	1.4475654810607141	9.725230801250003	-5.943401361196429
O	-0.8819186299392857	8.174821371250001	-3.2780082111964286
O	-1.1733854403392856	9.096486071250002	0.3968124608035716
O	-5.7403381089392855	11.742918381250002	-0.16475353819642838
O	2.724531021060714	4.607118941250002	13.171037798803573
O	-2.194702460939286	7.372028921250001	5.734548358803572
O	1.5105185810607142	6.146062331250002	5.870741918803571
O	3.1063002110607147	9.081494491250002	4.134129018803572
O	2.852806771060714	8.407427201250002	0.4145279518035716
O	4.437073721060714	10.187438031250002	-2.5813783411964284
O	6.436254211060715	8.593289061250001	-5.400383261196428
O	7.871592271060714	7.404109501250002	0.7971968588035716
O	7.020866591060714	6.1169119212500025	4.289343448803571
O	5.049647151060714	2.8651471012500016	4.036448828803572
O	3.575406321060714	0.20625355625000175	6.450174088803571
O	6.376725961060714	-0.8600672087499981	8.882656538803571
O	3.9823767110607147	-3.2883432287499983	10.750156198803571
O	-3.6106340989392853	4.509796361250002	15.437895698803572
O	1.912888371060714	13.888304081250002	-9.178061701196429
O	-4.3401545089392854	9.357562801250003	-6.440300461196429
O	-6.0684056789392855	6.292584331250001	-4.913312711196429
O	-9.685898608939286	6.219395901250001	-3.8180169411964284
O	-10.767526918939286	0.6036903852500017	-3.7577611311964283
