88

O	-4.849409298570643	-3.471457425354838	-3.7654339097790324
O	-5.392019458570644	-3.0477120253548384	-5.019764559779032
O	-2.283967658570644	-2.7077252953548383	-1.1840269457790322
O	-0.473977163570644	-0.14598696135483835	-0.9166791937790322
O	-3.418266988570644	-3.2811730053548382	-3.751079829779032
O	-2.8045026985706443	-2.1042754453548382	-3.320887539779032
O	-1.916003022570644	-2.1679218053548386	-2.2389519847790322
O	1.3461296514293561	4.259075074645162	0.9885093802209679
O	-1.188066670770644	-0.8888249353548382	-2.213205164779032
O	0.803178531429356	2.9338811446451616	2.8949651002209675
O	-0.682227980570644	-0.06187095535483833	-3.145917839779032
O	-0.4073553785706441	1.2346995576451616	-2.892427029779032
O	-0.330429171570644	1.4534884406451618	-1.5755330087790322
O	-0.17047444257064404	2.5055735146451616	-0.6097676907790321
O	0.536639711429356	3.5990529146451617	-1.232930326379032
O	1.071583541429356	4.385480094645162	-0.36772591877903216
O	0.9305049314293559	3.1805485046451616	1.5278660002209679
O	0.276083081429356	1.7397235946451617	2.982508810220968
O	-0.07802223857064394	1.2520574216451617	1.638510310220968
O	0.277088321429356	2.1192992646451616	0.7208069902209677
O	-2.6565218985706442	-3.8340743853548385	-4.863406909779032
O	-1.550006551570644	-3.2588124253548383	-5.424122449779032
O	-0.548059997570644	-4.1873510753548375	-5.735044319779032
O	-0.725874997570644	-5.550691735354838	-5.626690869779033
O	-2.076971782570644	-5.880748145354838	-5.767950819779032
O	-3.0872864485706444	-4.965003875354838	-5.458346909779032
O	13.035746421429357	3.9416431046451614	-4.522570549779032
O	9.787247021429357	3.8227957146451614	-6.547848019779033
O	7.062607911429357	1.3701172516451616	-7.471033889779032
O	3.7947266714293564	2.7472017246451617	-6.066793489779032
O	1.5103322314293561	-0.09858950735483829	-7.176979969779032
O	1.6951247614293559	-3.6553815253548385	-8.637040259779033
O	-0.903679675570644	-6.498276065354838	-9.003259069779032
O	-1.140667800670644	-10.349407815354839	-9.127166019779033
O	-1.086512160090644	-10.14816881535484	-5.261241479779033
O	2.353970941429356	-8.56413643535484	-5.242191869779032
O	3.785686071429356	-5.050953515354838	-5.186276599779032
O	4.095123501429356	-1.9258190853548385	-3.0545732697790324
O	7.311955491429355	0.10852409064516166	-3.1118412297790323
O	8.302939751429356	3.5105117546451616	-1.6759145507790323
O	11.269106621429357	2.7212742246451618	0.5699063202209678
O	13.681789121429356	4.638838524645162	2.785289690220967
O	7.5632546514293555	4.253211414645162	4.295862370220967
O	5.566847451429356	2.1094564746451616	1.8775859302209679
O	6.444265081429356	-1.5861916053548386	1.7181204602209676
O	3.9605319214293555	-4.202038975354838	0.5145876602209678
O	5.886969311429356	-7.2387198153548376	-0.7264735797790322
O	4.057312891429356	-10.55515751535484	-1.259028909079032
O	1.5431804514293561	-17.015786215354836	-4.692746439779032
O	-0.22073730257064406	-16.63865861535484	-1.3280624131790322
O	-2.813041198570644	-4.187985985354838	12.175698830220968
O	-7.794174368570644	6.9262598746451625	9.550257330220969
O	-6.329317358570644	3.4019714746451615	9.508489430220969
O	-2.856820978570644	2.912322204645162	8.01620981022097
O	1.9839264814293558	-0.8203456853548382	10.45651283022097
O	7.0232840114293555	-3.7376391753548384	10.680539230220969
O	5.847803851429356	-7.123308835354838	9.478763430220969
O	6.829139751429356	-7.7317511453548375	3.8511282902209674
O	4.615276871429356	-5.085922365354838	5.405645090220967
O	6.295905621429356	-1.7439603153548382	6.177235310220968
O	3.6993220514293563	0.9470070366451617	6.735504680220967
O	2.860765311429356	4.6163979046451615	6.580234800220968
O	3.4025142714293564	6.202872314645162	3.2237194202209674
O	0.07173503142935589	7.7805894446451624	2.1481323302209674
O	1.6127759614293558	10.779649584645162	0.2507032202209678
O	-1.786002346570644	11.835990884645161	-1.1312917537790321
O	-2.490207978570644	8.654612114645161	-3.1417237097790323
O	-5.834067608570644	6.846098554645162	-3.6504876097790318
O	-6.697821058570644	8.654768724645162	-8.506137769779032
O	-12.983635578570643	-4.405426665354838	1.095267460220968
O	-14.234091578570643	-0.8145267653548384	1.1163626402209677
O	-8.635366138570644	2.0127567146451617	-4.403965069779032
O	-8.230381828570644	1.2893890096451617	-0.6460668167790322
O	-9.057969078570643	4.804971534645162	0.4827904102209679
O	-5.841189398570644	6.800559114645162	0.41626136022096794
O	-4.933531888570644	10.26146597464516	1.7016711802209679
O	-2.037524114570644	11.246609684645161	3.978453300220967
O	-6.032333388570644	6.371808244645162	5.483324540220968
O	-7.667730908570644	3.0094523146451615	4.822797820220968
O	-5.181052428570644	0.5382774486451617	3.3089517302209677
O	-5.086489248570643	-3.1747411253548385	2.459720030220968
O	-6.498601608570644	-5.199524975354838	5.420765240220968
O	-6.068541058570644	-8.521851625354838	3.526638370220968
O	-14.243325878570644	-8.718261885354838	-1.8447975287790321
O	-14.154756378570644	-6.715094955354838	-5.068695569779032
O	0.41542275142935603	7.743905484645162	-7.992571369779032
O	-0.0816392085706441	6.513387304645162	-11.551118769779032
O	3.554619301429356	2.1329297846451616	-11.785232969779031
