27

O	21.85755485661791	-18.792305554961924	10.730455349677271
O	21.244260502601225	-19.384558668303058	9.585167183376356
O	20.640671607736916	-20.71104208029205	9.686130784387679
O	20.360605227880658	-21.50346241662823	10.827483974789084
O	19.279290609812602	-22.388133042683997	10.580859549809116
O	21.073060637339086	-22.619412368057613	11.501598995579203
O	21.392719990610964	-23.45313891039558	10.301177931276861
O	22.539254418345692	-23.887205718230973	11.143602491297834
O	23.411039005914557	-22.63228801442233	10.80795424083408
O	23.628083683782695	-23.008782752578284	9.447898451429303
O	22.932839614369673	-21.852225414579692	8.907544193821536
O	21.56418037781087	-22.609802824037498	9.079139048542164
O	23.210326014452534	-24.375328120418974	8.770586340817669
O	24.066483858635653	-24.171882044847244	7.523243148927438
O	23.007822603120093	-25.541052412377233	9.550413315955081
O	22.065288061627808	-24.50704486747849	7.81582473082336
O	20.863360469014356	-20.641033982448295	11.85714448675693
O	22.065211705706435	-19.966568996944492	11.399986400972493
O	22.062825987045056	-17.479673191713523	11.129886700748617
O	21.55008522604364	-17.080132987296544	12.406564382655514
O	21.960023726328348	-15.754607857645464	12.895290592558018
O	21.883243439570236	-14.677913837739936	12.029753143733647
O	22.634437867463028	-15.200375213276974	10.927151377351224
O	23.02019496103093	-13.970695157302712	10.316935451843424
O	22.396911577713144	-14.39337651802871	9.153890958530763
O	22.662912529959925	-15.84652261930244	8.900508821405845
O	22.489124107134792	-16.390845180028215	10.256791227549712
