86

O	-3.605951279052632	1.0066778235438596	5.2491982702508775
O	2.634261110947368	3.0226718455438597	0.7925322002508776
O	-1.5486439100526321	-2.73514492445614	2.6061840602508775
O	0.2678124009473679	2.8605699195438596	1.1323404502508776
O	-3.494764299052632	2.3363252295438595	5.490861510250878
O	0.837379120947368	0.7559170855438597	3.4400070202508775
O	0.010307660947368014	4.002333975543859	4.497900250250877
O	-2.582216609052632	0.2472460755438597	4.675987130250878
O	0.9291491209473679	2.03001535554386	3.8378484302508777
O	-0.996309000152632	-0.9513421444561403	1.6622325202508774
O	-2.309243749052632	2.90788559554386	5.063218230250878
O	0.6859084809473679	4.101620175543859	-2.6141476897491223
O	0.025122105947367968	3.4848328055438595	-1.6011175597491225
O	2.752621580947368	3.7406127255438597	-1.5310312627491225
O	-0.26598779505263204	-1.3075530444561405	3.970680940250878
O	2.123238040947368	2.6953922145438596	3.2832030602508775
O	2.074642390947368	4.057786265543859	-2.6647177297491225
O	-1.339138713052632	0.7807996455438597	4.492001230250877
O	-1.316332935052632	2.1713630085438598	4.423692520250878
O	0.7346241409473679	3.24841781554386	-0.4596318063491225
O	2.091333680947368	3.3928805055438596	-0.3479869697491225
O	-0.23992116505263206	0.15682073554385956	3.9244572402508773
O	1.8462110109473682	2.81328309154386	1.8384512802508777
O	-0.08767189405263198	2.7511478425438596	4.312747480250877
O	-0.716238100052632	-1.8099134444561402	2.6787268902508776
O	2.567326470947368	4.541299305543859	-3.9506200697491223
O	2.279426480947368	3.8093155455438596	-5.0560151997491225
O	1.958888720947368	5.7210345255438595	-4.240908609749122
O	3.8566141009473682	4.79526537554386	-4.1295901997491224
O	-3.424256659052632	-5.23818321445614	7.648262260250877
O	-3.117223239052632	-3.68168910445614	11.093847000250877
O	-7.880146879052632	-8.223114154456141	2.7962204102508776
O	-8.333068109052633	-4.6628250844561405	1.6598389802508775
O	-10.954253839052633	-1.9224423044561405	1.9533082502508776
O	-8.211957899052631	0.40792625554385964	3.0962341602508774
O	-7.516889189052632	-1.8985165244561402	6.096388000250878
O	-10.808283029052632	-0.7382734944561404	7.539317440250877
O	-11.603812239052633	-4.130257004456141	9.006891520250877
O	-9.264319579052632	-7.92428468445614	-1.6091945597491226
O	-7.895084549052632	-4.774820534456141	-3.2439120097491223
O	-7.965608929052632	1.4114698805438597	-3.0988373097491224
O	-6.212308889052632	4.294252675543859	-4.935660439749123
O	-9.15360600905263	6.71632325554386	-4.569027589749123
O	-6.190341119052632	-6.53985490445614	-7.018603339749123
O	-5.395743289052632	-3.06560048445614	-8.050369049749122
O	-3.798424569052632	-2.2322071044561405	-4.716779909749122
O	-1.2564247250526321	0.35757338554385965	-5.945397929749123
O	-0.714405818052632	1.5468956635438595	-9.542571109749124
O	-1.249264807052632	5.18748213554386	-8.396976399749123
O	-4.685877049052632	6.75083999554386	-8.673504029749123
O	-5.596584239052632	9.42740647554386	-6.078733609749122
O	-8.387824819052632	11.99904144554386	-6.029436749749123
O	-9.953457289052633	10.570240865543859	2.3322723802508776
O	-7.678979469052632	7.49742448554386	1.6163340802508777
O	-4.7182652390526325	9.78730945554386	1.2840588302508773
O	-5.966364659052632	13.15032454554386	-0.0820771637491225
O	0.008668569947367977	-5.067860034456141	-6.552102269749122
O	3.096359430947368	-2.8951092544561403	-6.127115939749123
O	1.4224327009473678	-8.91246595445614	-4.939650749749123
O	4.669954080947368	-7.245703024456141	-3.8469740297491226
O	6.933759810947368	-6.73383625445614	-0.8600619827491225
O	9.358460960947369	-9.64463295445614	-0.5302256540491225
O	11.672507060947368	-10.99537715445614	2.2233857602508778
O	5.026076860947368	-11.91011005445614	-1.1810537937491226
O	3.703924180947368	-9.46906145445614	1.4292095902508777
O	5.437622400947368	-8.36720385445614	4.651448090250877
O	9.475557160947368	-7.498388414456141	7.553920850250878
O	6.256720830947368	-5.96866421445614	8.949632880250876
O	7.677923930947368	-5.182744334456141	12.391581100250876
O	4.313976750947368	-3.6218554044561406	13.362861500250876
O	4.239094420947368	-1.1005702044561403	10.492557000250876
O	3.367558070947368	2.1639462795438598	12.171863100250876
O	6.321691950947368	4.02359238554386	10.688822600250877
O	11.90151856094737	-1.7083648644561404	1.2926602102508773
O	9.594139460947368	-1.2807071744561402	4.297227150250878
O	6.408775790947368	-0.4017405544561403	2.3703496902508774
O	6.219451330947368	2.8665369305438597	0.42896240725087753
O	5.329977390947368	6.51544507554386	1.1192651302508776
O	7.123344880947369	9.93172479554386	0.5775590602508774
O	3.956021770947368	11.90510754554386	-0.04196706574912257
O	3.3899020509473683	9.80903481554386	-3.2261916897491223
O	6.908157380947368	10.22160065554386	-4.6754956797491225
O	2.911036120947368	6.035185235543859	-11.696564699749123
O	5.015953070947368	5.84735268554386	-8.527650199749123
O	6.428074280947368	2.34618203754386	-8.833855309749124
O	9.764134860947369	2.2662447955438596	-7.094289169749122
