28

O	79.70836840174111	4.91153105294344	30.32972411689637
O	78.71334438930674	5.338558450091071	29.434049560050166
O	80.49733428817149	6.661594002179885	34.37589900833704
O	78.55285111715884	7.031476079277208	25.28795268218089
O	80.62049930228218	6.0070324985611165	24.647478099516
O	84.00332002319084	6.53919681676067	27.67931417554975
O	83.50547449986809	5.271240961797147	27.8135386925943
O	83.21677453244439	7.50587113372625	28.30381808598523
O	82.89535165442123	4.915136824021878	29.041162143297026
O	82.67690201415795	7.1148366797261815	29.51782869660896
O	77.96269388476773	4.922683750262866	24.439377377461955
O	79.89887661664267	5.651562687076394	31.548025645611787
O	81.51755566208419	6.165176565558731	33.39997268199311
O	82.43353852431807	5.836453415790199	29.93320463346415
O	82.41975171752354	5.739554043167576	31.415905711664863
O	81.24166849648712	5.5909834915419765	32.156162180617635
O	77.560209402172	4.3969068435914505	29.412438122071
O	83.31201268115028	6.260208958651807	32.31862748314296
O	78.0386891707185	4.964106566279389	26.961359867543223
O	78.51877390121138	4.596149460122513	23.398451227675054
O	79.55658973112693	6.864954781952278	31.38702746514506
O	76.86048993415504	5.733366204544305	24.560574712688066
O	82.8345294802805	6.101238121827272	33.52998501675508
O	80.00103134202632	6.476681903957214	27.38223038405044
O	78.89434629551207	5.435035997830685	28.005620907243404
O	78.73398010524565	4.750753568672501	25.7406559697063
O	79.5806416672041	6.008878530535033	25.648247561949624
O	76.75710732248511	5.099041250430347	28.658138144769346
