75

O	-4.55281583063	0.7235569109319999	5.196696277780001
O	-4.352304380630001	1.164120240932	3.8909719477800007
O	-3.5561290806300008	0.05879781693199987	5.900373727780001
O	-1.4676185994300004	-2.926877313068	4.983756667780001
O	-3.2416346806300007	0.5946509839319999	3.275981537780001
O	-2.34141706763	0.046040242931999875	5.259844037780001
O	-0.3722296606300004	-3.0221281730680003	4.183009097780001
O	-2.7487362706300003	-3.1209822830680003	4.479826847780001
O	-1.7947797996300003	-3.5539739930680003	2.453414977780001
O	0.5810208893699997	-3.456426013068	2.058859187780001
O	-0.8462108096300004	-0.0924055090680001	3.241252747780001
O	-4.237704020630001	-2.833230923068	2.6178060077800005
O	-2.1454711036300003	0.1287024169319999	3.9253944477800005
O	-0.6168132056300004	-2.855019523068	2.7969571977800007
O	-2.9074153906300007	-3.064794673068	3.1521183677800004
O	0.7642919493699998	-2.1945349730680004	1.1846612887800008
O	-0.5059097906300004	-1.7351341030680003	0.6855270247800007
O	-4.99716230063	-1.837330403068	2.836212737780001
O	-2.6390012706300006	-0.3947414820680001	1.3268392017800006
O	-0.6492559706300004	0.7641453689319999	0.8566397617800007
O	-4.28186278063	-3.002212523068	1.2145034457800006
O	1.9636390093699998	-3.8580226330680003	-0.34365445321999927
O	3.2949940993699993	-2.2996164430680004	0.8767794847800007
O	-1.1467468826300005	-0.48615527906800016	1.5992054177800006
O	1.9647901493699995	-2.4848694430680003	0.23697071278000068
O	4.552142839369999	7.714910676932	3.5010205577800004
O	6.216078659369999	4.377285736932	2.7120706377800006
O	3.127343849369999	2.503911796932	1.5190873777800007
O	7.751477629369999	-0.35850386006800006	0.8683984227800007
O	7.4195499493699995	1.682112566932	-2.3599517922199995
O	7.195536039369999	-1.6542970730680002	-4.20417759222
O	-5.05612859063	-10.011998133068001	-10.05928340222
O	-6.851501590630001	-8.211591873068	-7.21100421222
O	-5.214390460630001	-6.748432743067999	-4.213496072219999
O	-6.659585460630001	-3.283239893068	-5.116695632219999
O	-7.521203900630001	-1.644503783068	-8.322423732219999
O	-11.23987875063	-0.7391661930680001	-7.938041932219999
O	-11.64095516063	2.821797306932	-6.580889742219999
O	-1.4796280901300003	-13.343949033068	-4.3902125622199994
O	-1.6256502166300004	-7.291484803068	-5.214303632219999
O	-2.9629658706300006	-4.242315343067999	-9.44223862222
O	1.4475463093699996	-1.6143256530680001	-10.02894020222
O	-0.37099074063000037	10.212413096932	9.229315987780002
O	-4.44560374063	11.992995366932	7.080093117780001
O	-2.3345597406300005	11.754715266932	3.9265465877800008
O	-2.6326184406300004	9.085743936932	1.2468080867800007
O	-5.43446929063	9.641849246931999	-1.3017941822199994
O	-5.615346530630001	6.239234236932	-6.738572252219999
O	-4.90313775063	4.367320506932	-10.00116230222
O	-1.3343345046300004	3.033424516932	-10.11730560222
O	-0.6846896216300004	4.605309106932	-6.72629965222
O	2.7936348193699994	5.831556636932	-7.67914029222
O	3.7445303693699996	2.321247486932	-8.79961159222
O	2.20056751937	0.4147013503319999	-5.744799702219999
O	2.430105449369999	2.7105293569319997	-2.7838932422199996
O	3.2638026693699995	6.270487266932	-3.681983892219999
O	6.74660218937	6.962792016932	-2.303373772219999
O	-1.8055103006300004	-10.116961033068002	6.750137047780001
O	0.8544818993699994	-12.263996633068	3.7438697677800006
O	-2.2896476296300006	-11.334657233068	1.7289666277800007
O	-3.5227107606300008	-14.899110333068	1.1763400047800008
O	-2.9920695006300004	-16.923421233067998	-1.9857337122199992
O	9.37041743937	-5.419041843067999	3.1781457977800005
O	6.4463453593699995	-4.146446923068	5.266441637780001
O	4.3496758693699995	-1.158566683068	4.1272493077800005
O	-0.8680076616300004	4.009802126932	4.349092477780001
O	-2.00773674863	6.741789256932	8.63227094778
O	1.5693159593699997	5.360648366932001	8.45183688778
O	3.3392731193699996	2.082340746932	9.146090777780001
O	6.8059480593699995	1.1569874729319998	7.933206857780001
O	9.32855973937	-1.670136853068	7.702090117780001
O	0.46850127936999963	5.5920670669320005	12.65597339778
O	-0.4409555806300005	2.297119876932	11.003288297780001
O	0.15876158936999962	-0.4191603420680001	13.648815197780001
O	0.35407802936999966	-4.289784903068	13.368173397780001
