29

O	78.25316784179388	4.770969117655505	31.785501547517153
O	77.57614888739292	4.006695144728122	31.084483522990148
O	78.83163115714841	6.063626813740852	31.485400457792664
O	80.24713044675157	6.284312252882005	31.302415023550246
O	79.05088719243551	5.744910557000246	30.100939408433746
O	79.43176588047389	4.3858306415652395	29.97883918486533
O	80.80108043930669	4.714702912045662	29.93795597370377
O	80.7983328400532	4.9125359331195755	28.392624707824535
O	79.70541395717079	5.886073328705248	28.036977158641044
O	79.83432144956195	6.3011897803316455	26.707558457189755
O	79.65345028266809	6.610825954511773	29.184093766508052
O	82.0488403221241	5.042606101267722	28.246591984798336
O	81.29660906274682	6.251329835945843	32.21794144199997
O	80.93088344578196	5.445493162298056	33.09869040441926
O	82.63719181988647	6.294491267109086	31.651141540718644
O	83.44850774464501	5.133034835346125	31.475429823031718
O	83.79436693687143	4.696016394026076	30.21378824183358
O	84.97334649544695	4.313485154409765	29.668740607179057
O	86.01779528759563	4.595978530574499	30.54541005322547
O	87.20158660428011	4.015074287457674	30.1801329961476
O	85.64919384772837	4.597793257345634	31.860235532807774
O	84.35459679858585	4.750404241934743	32.37025132834692
O	82.95959879570955	7.208849775827141	30.584621699208903
O	82.15498852485108	7.866412683067969	29.844905801911025
O	83.79498249374173	6.802743133355815	29.465665425172826
O	77.84759277404495	6.810571340396018	30.80197910450788
O	76.75111118077744	6.0326112010042	30.49271209880448
O	80.89493620172196	6.388115725996174	26.011464862063725
O	78.66098214985836	6.414106323008209	25.937819409714525
