11

O	80.54106952194766	5.741487473761158	34.55455251170304
O	81.8215222363564	5.71610718298866	35.19637928801145
O	82.91535982130581	5.994016023787462	34.42105898106159
O	84.15110359181396	5.669807903644546	34.917787150237785
O	84.27446811489358	4.732498923305788	35.91304978679362
O	83.12924665720054	4.2797796878505485	36.50477846413516
O	82.03793373769241	5.15462922387648	36.45229208749611
O	85.56272541056374	4.42652035359601	36.57305516750459
O	80.86798424564192	4.83144875057431	37.154213101718305
O	86.39102474960599	5.383175555032931	36.47891652180236
O	85.5869942234148	3.81808787017439	37.83892434685316
