71

O	1.328472361771429	-6.642832559312245	2.1425427345461223
O	2.457025301771429	-6.638220749312245	2.6518337745461222
O	0.39582701977142887	-2.020173729312245	-0.6087129860538776
O	-0.4698190757285711	-2.257054119312245	2.1023432445461223
O	0.10112738877142885	-3.2073593693122446	0.06762208354612242
O	-0.21969024422857114	-4.485951349312245	-0.38031342145387764
O	0.31742282277142886	-3.1721097293122447	1.4449825645461225
O	0.5278263847714288	-5.583761639312245	0.06784895454612239
O	0.9113328817714288	-4.315187039312245	1.9697143345461223
O	1.1666022017714288	-5.454855849312245	1.2593423245461224
O	0.7441436417714289	-1.516096279312245	-2.1198294154538777
O	2.3624916617714287	-1.046692506312245	-2.8609252454538776
O	-0.05230686922857114	-0.658867625312245	-2.975041505453878
O	0.7590291717714288	-2.910804819312245	-2.7665605954538774
O	3.535537051771429	-1.785310019312245	-2.5884503154538776
O	2.4981100117714288	-0.8927074923122449	-4.282716445453878
O	4.597317731771429	-1.617194059312245	-3.943260425453878
O	3.3074132317714287	-2.670065749312245	-1.4290852664538776
O	3.685009911771429	-0.2909461960122449	-4.600481805453877
O	3.0605095417714288	-2.180127359312245	-0.30575704445387764
O	2.749393851771429	-3.957247089312245	-1.4715659114538777
O	0.1457462617714289	-6.888819859312245	2.8579732445461223
O	0.5516932227714288	4.684179690687755	7.184593124546122
O	1.2645593917714288	5.828139170687756	3.6077088245461217
O	0.30717729077142886	2.6145728906877554	1.7960924245461223
O	1.5013415117714288	6.642153600687755	-1.6398367114538777
O	-2.2326321382285714	7.083749800687755	-0.8647830774538776
O	-2.801337078228571	6.550768200687755	-4.593975265453878
O	-5.666182418228571	-7.734094699312244	-10.380745825453879
O	-3.1433986382285712	-6.289861609312244	-8.100770965453878
O	-5.486302748228571	-7.005717989312244	-5.1074195854538775
O	-9.174850998228571	-7.251215539312245	-4.619783425453877
O	-9.67950121822857	-10.804141259312244	-3.2297065654538777
O	-9.78721781822857	-10.805540159312244	0.6042443545461225
O	-0.3354891650285711	-3.647063229312245	-14.688801935453878
O	-3.3440061082285713	-2.695870609312245	-9.458420975453878
O	-8.509119418228572	-3.038779639312245	-7.931707715453878
O	-8.18095368822857	7.796494780687755	6.155698924546122
O	4.088835551771429	-0.35856964941224495	12.194450464546122
O	0.7835897017714288	-3.836035259312245	13.488702664546123
O	-1.6815507082285712	-1.4692259393122449	11.826826964546122
O	-3.202884028228571	-1.972389589312245	8.372772634546122
O	-6.180341758228571	-4.356134749312245	8.200553084546122
O	-10.149750418228571	-4.354506129312245	3.1625696445461227
O	-11.45304752822857	-0.23445345591224492	-1.5133735064538776
O	-8.76842454822857	0.254431195687755	1.1545256245461224
O	-9.408172898228571	3.957265900687755	1.5256078545461225
O	-9.03701245822857	4.422195210687756	-2.2406650854538777
O	-5.949009438228571	2.314881480687755	-2.7126572854538775
O	-3.870638368228571	2.479179550687755	0.4479362745461224
O	-5.787681488228571	3.978163270687755	3.3454725645461227
O	-4.156503108228572	7.334089050687755	4.092885254546122
O	8.685520321771428	-4.921372549312244	-7.284388715453878
O	7.255123811771429	-2.304575329312245	-10.717816735453878
O	4.499503161771429	-4.932252449312244	-10.443273115453877
O	5.011394901771429	-6.561727499312245	-13.805904635453878
O	5.680320191771429	7.145378930687755	-5.591084675453878
O	6.694561071771429	4.288703240687755	-3.3034420554538775
O	4.308675471771429	3.095520620687755	-0.6570684522138777
O	1.787870151771429	-1.310936229312245	4.691255924546122
O	4.498008081771429	-2.4811644093122447	9.016527824546122
O	5.423549861771429	0.7415162506877551	7.175317334546122
O	7.5587826917714285	1.9081921306877552	4.2734025945461225
O	7.340932031771429	5.297086250687755	2.5781812445461227
O	8.562191811771427	7.265895050687755	-0.4398097314538776
O	7.847312351771429	10.625242740687755	-2.0006705254538777
O	9.012497331771428	-0.858117712312245	9.049570284546123
O	8.45199105177143	-2.0716603893122447	5.498238304546122
O	11.932425471771428	-2.293999109312245	3.897476004546122
O	13.088380671771429	-2.6758651493122447	0.2165395035461224
O	11.849771071771428	-0.04252867831224494	-2.2310431354538776
