68

O	-3.8488722019183674	4.642847662061225	3.2033718904469386
O	-4.123899981918368	4.879058802061225	1.8570694604469387
O	-3.609713551918368	2.6868274180612257	1.4332085304469386
O	-3.424782901918368	4.013311012061226	1.0622122804469387
O	-3.2069072019183675	1.4223306680612255	0.7970339704469387
O	-2.4732069919183677	1.4489924280612254	-0.4750277355530614
O	-0.3789045129183677	0.8828417790612255	-1.8310619295530615
O	-0.011278161918367724	2.2571590700612254	-2.2222327495530614
O	-0.9321646429183676	3.2407267620612252	-1.8250897995530613
O	-0.6012303129183677	4.474891632061226	-1.2062738055530615
O	1.1891772280816324	2.8504064020612256	-2.4736751795530614
O	1.4996633680816325	4.181240922061225	-2.0500083895530614
O	0.5307910980816324	5.064338932061226	-1.6944710495530613
O	-1.2813600313383677	0.6898036520612254	-0.7434577465530614
O	-3.1498667219183676	1.6427426310612254	-1.5367365495530614
O	1.4857098180816324	-0.12820833793877462	-3.2549976495530615
O	1.2469369480816324	-1.1326828179387745	-1.0549717195530615
O	-3.6265390619183675	2.9289097920612255	3.1528995904469386
O	0.6451742980816324	-0.28726418793877473	-2.0352955195530615
O	3.094810928081632	-0.7346385479387747	8.122950970446938
O	4.644211908081632	-2.0286618879387746	4.878536930446939
O	1.8457321680816323	-1.0512185879387745	2.6333208204469383
O	5.671924258081632	-3.9043032479387745	0.005104402446938605
O	3.290558148081632	-6.558799257938775	1.4046104404469386
O	2.7232225480816323	-7.6071658379387745	-2.2259866595530613
O	-8.956449341918367	-1.0152956579387746	-10.535691299553061
O	-6.178881591918368	0.3093557120612256	-8.315561499553061
O	-8.482121471918367	0.04573801206122541	-5.287715959553061
O	-11.363379401918367	-2.1919630079387744	-4.433651749553062
O	-14.266799301918368	0.2644369220612255	-3.8464392295530616
O	-14.511626201918368	1.2099519490612254	-0.15494003445306137
O	-2.121048593918368	-1.4101148679387747	-14.502434599553062
O	-3.8671929019183677	-2.7195314279387746	-8.832819209553062
O	-7.888630651918368	-5.547483017938774	-6.763985779553062
O	-5.190739551918368	-8.916712887938774	-3.9000405495530615
O	-0.9425350709183677	-9.104171487938775	9.180627140446939
O	1.8631850180816325	6.499821072061225	11.181802200446938
O	-2.9471102719183677	6.962926202061226	12.131711100446939
O	-2.979276041918368	3.2243277020612258	11.471983100446938
O	-4.204239211918368	1.5352994690612256	8.300924860446939
O	-7.988750351918368	0.9889216190612254	8.15269145044694
O	-8.350663661918368	-7.841245887938774	0.3454784394469387
O	-6.224508531918368	-5.660227027938774	2.6327781404469386
O	-4.204202871918367	-8.583094287938774	3.992525600446938
O	-3.3966173219183675	-9.675478387938774	0.4274845914469386
O	-2.5558109919183676	-6.229292947938774	-0.9845331145530614
O	-1.1737756259183676	-4.085308157938774	1.8189104804469387
O	-1.6735282899183677	-5.636856577938774	5.204440080446939
O	1.7665354980816323	-6.629753977938774	6.507563190446938
O	3.0736717180816324	7.395890872061225	-9.029185659553061
O	4.056574008081632	3.7447206020612254	-11.553577999553061
O	0.24319722808163236	3.790211442061225	-11.411139999553061
O	-0.3256081849183676	4.412726362061226	-15.125994999553061
O	12.594226098081633	-3.5764651679387742	-5.579812819553061
O	9.205502598081631	-2.438731627938775	-4.311768719553061
O	7.7559795680816315	0.8074081960612255	-2.9295715295530615
O	5.049380248081632	0.6764824320612255	-0.3467762755530614
O	-0.13758599191836773	3.5459946320612254	3.8689070304469384
O	0.8502307080816325	7.312082452061226	7.499327120446939
O	3.867673878081632	5.224084552061226	6.4671704804469385
O	6.397820568081632	5.071852722061225	3.6568818704469384
O	8.655226798081632	2.1536519260612255	2.8236461404469386
O	11.059227498081633	0.8038724220612254	0.2105902424469386
O	5.311428898081632	9.238170812061226	7.416318010446939
O	4.274284418081632	8.743350162061226	3.786704140446939
O	6.747461458081633	10.805140992061226	1.7069092904469387
O	7.350489758081633	10.836900702061225	-2.1168170195530616
O	8.538525508081632	7.543193832061226	-3.6414535595530615
