57

O	2.4655509799999997	-0.6694018202499998	1.3652369397272728
O	1.5081090899999998	1.4197710807500001	-0.5057299162727272
O	1.7771659899999999	1.84908387075	-1.7904590102727271
O	2.9321920799999996	1.35058949975	-2.3248682902727276
O	3.5985684499999997	0.4047039267500001	-1.0922533102727272
O	2.39700481	0.6241254037500001	0.1329225812272728
O	3.07779589	0.8794293587500001	-3.7286638402727275
O	3.9458408999999994	1.62987723175	-4.294902510272728
O	1.9332572899999998	0.80666186075	-4.551026660272727
O	0.9215394799999999	2.93594725975	-2.8853776902727275
O	-0.0613790413000001	2.29025811975	-3.7841855402727274
O	0.29546267299999984	3.98417030975	-2.1108025802727273
O	2.0269702499999998	3.79274362975	-3.9511493802727276
O	-0.5372317910000001	-8.963655880249998	-0.41781696927272716
O	-0.7724981640000002	-8.174866430249999	3.3110229697272726
O	0.33735191799999986	-4.52938752025	3.1188606797272724
O	-1.3028983900000002	-6.08854429025	8.135109769727272
O	-4.5251906	-4.92456073025	6.401688489727273
O	1.7192317	11.946343309749999	6.818286779727273
O	2.8964207699999998	8.362771039750001	6.410950099727272
O	1.64204438	8.30735125975	2.8193742497272725
O	-1.122738138	10.198850069750002	1.0584459697272728
O	0.7599132509999998	11.994096909749999	-1.7864722202727272
O	0.7933679059999998	9.91495721975	-4.971074350272727
O	-0.9463041810000001	12.626304609750001	-6.999854380272727
O	-4.01028549	12.48584800975	-4.763934070272727
O	-6.64125003	10.34454183975	-6.426290250272728
O	-8.680378170000001	14.02977710975	-1.078830310272727
O	3.20579103	8.88893730975	14.003957579727272
O	0.44767987799999986	6.85389142975	8.944479929727272
O	-3.3571572	8.938738719749999	5.768778549727273
O	-9.423380120000001	-6.19674210025	-1.305603900272727
O	5.47591162	-10.06596659025	-5.461719840272727
O	9.14382718	-9.689798790249998	-6.353149000272728
O	11.119902	-6.49780577025	-6.155423270272728
O	4.9709547999999995	-6.84224668025	-9.165459330272727
O	1.55824682	-6.26152079025	-7.628794250272727
O	0.5075399259999999	-3.3504178302499996	-5.457890670272727
O	-0.3372073750000001	-0.05294257024999993	-7.2201082702727275
O	-3.8051250700000003	1.62104556675	-6.871933990272727
O	-3.5569612900000003	4.55285462975	-4.427110400272728
O	-5.91843435	6.82717395975	-2.4045940302727273
O	-7.26025784	5.04759229975	0.6962870657272727
O	-5.49069451	1.88018090575	-0.3279829712727272
O	-8.22647609	-0.4806101302499999	0.6009627937272728
O	-4.57004528	1.1805487377500001	4.699676029727272
O	-2.93350994	-1.6770897102499998	2.8150185297272725
O	-5.30043938	-3.2979284702499996	0.3465037447272728
O	-6.0271578	-6.80364166025	1.6486415497272728
O	3.16870167	-5.28724643025	6.716890399727273
O	4.1287207399999994	-3.88295075025	-0.2271797202727272
O	6.97059172	-7.04075684025	-3.5229516202727273
O	5.68653724	-8.72318945025	-0.3534073702727272
O	6.5830191	-8.943594220249999	3.308022919727273
O	4.33037602	-10.24236229025	6.086342909727272
O	9.54212353	-10.518116490250002	-1.3184829802727271
O	9.757368	-7.46586252025	0.9367631567272727
