71

O	-3.983395968764704	1.1458581816529405	1.72929388027451
O	-0.1708901687647042	3.2159729316529404	5.12779962027451
O	-1.4363229867647043	3.643777601652941	4.39562560027451
O	-1.7230614677647043	3.1857586896529404	3.07432180027451
O	-2.879508028764704	3.8789532916529406	2.64332904027451
O	-3.0679525987647045	4.8636542816529404	3.56432933027451
O	-2.3438388387647042	4.58712666165294	4.63828059027451
O	-3.4862075187647044	3.7306450716529405	1.32170301027451
O	-3.6917126987647038	4.90257842165294	0.6440805382745101
O	-4.599402478764704	4.981883441652941	-0.3754750467254899
O	-5.340527398764705	3.8734934016529405	-0.7677143097254898
O	-5.4337691387647045	2.8475195196529404	0.13265144627451014
O	-4.3550724187647045	2.6918919826529404	1.0051865462745102
O	-0.5346991357647042	2.9080688476529404	2.2182115202745103
O	-0.7786192377647042	2.7763637006529405	1.0184806422745103
O	0.6532771312352958	3.6677427416529405	2.54382404027451
O	0.5993027012352958	5.13563758165294	2.14810700027451
O	0.4448845912352959	5.95375350165294	3.41251701027451
O	1.4745692612352956	6.59749297165294	3.61800299027451
O	-0.6648749577647042	6.792916561652941	3.60846080027451
O	3.5523148312352957	4.383711671652941	-7.27511951972549
O	2.836179441235296	0.6152971116529404	-7.18658431972549
O	1.545828791235296	0.33753046165294065	-3.67181959972549
O	2.071677811235296	-4.531876318347059	-6.05459776972549
O	5.519569701235295	-3.9043799883470593	-4.48302224972549
O	4.847931211235296	-6.98703817834706	-2.30370122972549
O	-0.3823697087647042	-8.68352741834706	12.819675150274511
O	-2.0732312137647044	-5.369177438347059	11.85290345027451
O	-2.7955078487647045	-4.099862258347059	8.36816583027451
O	-0.7111258387647041	-0.8873144883470596	8.91176537027451
O	2.236956351235296	-0.37652062834705946	11.228388450274512
O	1.1474435612352958	2.3449493876529406	13.65990825027451
O	2.241354951235296	5.728368971652941	12.327779950274511
O	-4.9325049987647045	-11.46078051834706	7.56477028027451
O	-0.9587499917647042	-6.94295760834706	6.54648867027451
O	3.3233530312352952	-5.26420154834706	9.281011350274511
O	12.181902941235297	2.4461870146529403	-4.13428133972549
O	-1.0432716107647042	10.85000663165294	-7.40046681972549
O	-4.428031218764704	12.51585938165294	-7.0593736097254896
O	-0.08714381876470423	13.59766008165294	-3.39320418972549
O	2.7542974412352956	11.14634351165294	-2.89966346972549
O	2.554725291235296	8.186772461652941	-0.2733853027254899
O	4.173569741235296	9.359877531652941	2.89086805027451
O	6.628268281235296	5.086166641652941	6.92745481027451
O	8.061445511235297	2.0940720843529403	8.78481338027451
O	8.647898131235296	-0.8329804783470593	6.44904005027451
O	7.106358271235295	1.2230359336529406	3.56190763027451
O	10.043802641235297	0.00029663165294069316	1.1684227132745102
O	9.239151341235296	-3.6337450783470593	2.0109069102745103
O	5.449162791235295	-3.3469638083470596	1.8592033502745102
O	4.486119631235296	-0.6023541883470593	-0.6204991097254898
O	7.579781851235295	1.3924773366529406	-1.7247414097254898
O	8.216551371235296	0.6149203016529405	-5.38381067972549
O	-11.219269718764703	-4.887998068347059	0.3437160602745101
O	-9.379072288764704	-9.02266301834706	0.6376495362745102
O	-8.535555268764703	-7.36114600834706	3.98423682027451
O	-10.629398458764703	-9.71734831834706	6.14983842027451
O	-9.299080248764705	-12.64812981834706	8.17608137027451
O	-1.9224905887647044	-8.52241691834706	-7.30881161972549
O	-3.8079669487647045	-5.27497209834706	-6.61542357972549
O	-1.9975674227647042	-2.2692176283470595	-5.18295548972549
O	-1.4752513777647043	4.31089765165294	-2.40777333972549
O	-3.236039638764704	8.80550037165294	-4.93253610972549
O	-2.542312568764704	5.781845561652941	-7.15211093972549
O	-4.238726798764704	2.5544634586529407	-8.069406869725489
O	-2.6220173887647045	-0.3997845583470596	-9.883377149725488
O	-3.157188008764704	-4.01958810834706	-10.91594634972549
O	-5.914028138764705	7.959272681652941	-8.86533805972549
O	-6.880675648764704	5.323271631652941	-6.25492236972549
O	-10.151952798764704	3.787812561652941	-7.59776758972549
O	-12.025115358764703	0.6003474216529405	-6.45435576972549
