12

O	77.8917203983861	4.712069208361786	29.11962899022165
O	77.87199954933554	3.977884184325154	26.642618021936528
O	79.0144529795235	5.419609382590391	28.888431063345852
O	75.83946123601055	4.17536851502173	27.688493664624207
O	79.16432960144915	6.579416409837597	29.64947655716969
O	79.81816737016128	7.793822003296119	29.415357785183044
O	79.7489643532957	8.808222077894975	30.366923092584354
O	79.9046761734686	8.399498655359512	31.686739970372475
O	79.31990957020979	7.1723966873506555	31.983844348481963
O	78.82499580489508	6.341315701047675	30.97833738615512
O	77.2457104093523	3.790728159570552	28.02505430673495
O	77.65840570503319	5.082649833164756	30.77652440168875
