74

O	-2.5387973478	-5.93958960956	-1.5077046350799996
O	-1.6715151678	-5.36095825956	-2.3711074170799997
O	3.6272944722	-1.8327823495600004	-0.16772158507999974
O	3.3164109022	-2.7827233995600005	-2.05826402708
O	4.6987304521999995	-2.5656535695600002	0.3882892159200003
O	4.316552702199999	-3.70482204956	-1.6476052270799997
O	1.4847250522000002	-0.9637394995600003	-1.0131310630799997
O	1.2559885322000002	-2.1271813295600004	-1.8420498070799998
O	2.7405582322	-0.35311852056000015	-1.5572433840799997
O	4.7487443022	-5.06754911956	0.3028720689200003
O	0.6633074822	-4.09127604956	-0.017755286079999766
O	3.6672422322	-1.5307786395600003	-1.5247937850799997
O	4.8199036822	-3.7437109695600004	-0.34018719807999975
O	-1.0214694978	-4.2126416095599994	-1.8736072670799997
O	-0.6412817127999999	-4.37075467956	-0.5679090308799998
O	0.4002947632000001	-1.7723196695600003	-2.8475896370799996
O	4.2789882822	-5.0620768495599995	1.45133774292
O	1.6989179722000003	-4.74766650956	-0.19722314707999972
O	-1.4231148478	-2.8766028495600002	-4.1930309570799995
O	0.7012433122000001	-4.053573689559999	-3.8003856970799994
O	4.203727392199999	-6.11136374956	-0.46651227407999973
O	1.0268874522	-3.2809270895600005	1.0694786229200002
O	-1.8257139578	-5.50404713956	-0.0012960030799997746
O	-0.4130789241999999	-3.22208815956	-3.1621034970799995
O	1.7747651922000003	-5.40598250956	16.71313754292
O	-1.0700747988	3.91311808044	5.8227045229200005
O	-3.9799908078	2.05654047044	4.17136028292
O	-2.0655226078	0.3928072834399998	1.4622682029200005
O	-7.4415170978	-0.3928548905600002	0.9845440429200003
O	-6.7908525678	2.89803074044	-0.8852536820799997
O	-8.1519967578	1.1486648244399997	-3.99076534708
O	1.2950669322000001	-6.42598997956	-9.92361615708
O	3.7525004322	-3.5402652495600004	-9.56911748708
O	4.814269852200001	-0.7694845835600002	-11.874627757079999
O	8.5935181022	-1.2135657495600003	-12.33496245708
O	10.5262642222	0.7972874074399998	-9.69337107708
O	-4.6739866478	-10.666093359560001	-11.91878925708
O	-2.3634102978	-5.34612209956	-10.065210197079999
O	-0.4804521297999999	-1.0338527095600003	-12.632075757079999
O	-2.7575231278	11.13960784044	0.11461167592000032
O	0.07135651520000008	13.58415404044	1.0023100829200002
O	5.0844578122	1.6321649004399996	10.27446634292
O	7.3708553122	-1.0707509295600004	11.62305814292
O	9.2486931722	3.0364954304399996	8.029777022920001
O	6.8346117622	5.06122466044	5.90970366292
O	5.7040032322	4.32074382044	2.4221886229200003
O	8.161762742199999	5.18153427044	-0.3619214710799997
O	7.1306345021999995	7.2930541704400005	-3.37484183708
O	6.3338946722	5.38138201044	-6.5319988770799995
O	4.5447543322	5.68865147044	-9.869426817079999
O	0.7618145822	5.63716988044	-9.47433623708
O	1.1817460522	5.333600440440001	-5.7072136770799995
O	-1.6395274778	7.79844623044	-4.95211325708
O	-3.9612422278	5.72147375044	-7.14844170708
O	-2.9760876278	2.2777448204399997	-5.9201476270799995
O	-1.9042283577999999	2.5732499804399995	-2.30522073708
O	-1.4252697978	6.21076537044	-1.2358686770799996
O	-4.1460304178000005	6.97983905044	1.3117698129200002
O	-2.3105891378	-12.440804059560001	-6.1128416870799995
O	-2.7128011078	-15.36014985956	-8.51106360708
O	-10.5552032778	-5.2548210295599995	1.1932788329200004
O	-7.081305327799999	-6.0966352195599995	2.5975586029200004
O	-4.1952933478	-3.6202976295600005	2.30202892292
O	2.4854217722	-1.0853741395600003	3.24809841292
O	5.1724582122000005	-1.3026868195600003	7.817618142920001
O	1.3655296222000002	-1.3798720095600003	8.02549468292
O	-1.4749173478	-3.86176652956	7.790440332920001
O	-5.1294254778	-3.0671716995600002	7.341105012920001
O	-8.5038054778	-4.62678990956	6.62677941292
O	-12.0434461778	-3.37809482956	6.085453862920001
O	1.4178046522	-0.28085836056000024	12.16881354292
O	2.9500295622	-3.63262671956	11.441308942920001
O	2.2723250122	-5.70038800956	8.35680588292
O	0.9859611722000001	-9.104452059560002	9.55654084292
