18

O	80.69115009880329	4.315591043087984	32.277985217195216
O	82.11139799829007	5.75245377911103	31.36383347717068
O	81.59630075322784	4.046334343096796	33.343826345425086
O	82.96924559539113	5.714280352805443	32.465438091788435
O	77.37926706291783	4.912043171497993	30.604214523242177
O	80.92279944217206	4.445425749532955	29.727691881919185
O	83.87949120934188	4.456235329186219	34.38067689166925
O	81.46962337216613	4.531419700722829	31.109935129973483
O	82.8564090917692	4.646058303370751	33.34692021301075
O	78.68818910362229	4.941978427885096	31.111393617624344
O	85.053101970414	4.522700319786233	33.8819817212061
O	78.69943184824528	6.048997104249204	28.707975267002567
O	79.87757134936302	6.6767244512433965	30.51910724593183
O	83.75305400928836	5.398221096349442	35.42716395244077
O	78.71476318763811	3.560064918541955	28.715300074848574
O	76.68371985778357	4.514254173252391	28.03840440622749
O	79.57104729102792	5.498044578496106	29.717828278741905
O	77.45974179580674	4.163371102291743	29.188370326224177
