66

O	1.3849008825744678	1.4761940451914897	3.921449581851064
O	1.8210862625744677	2.0755654311914897	1.743730001851064
O	-0.5759097164255323	2.2490146171914898	2.527143221851064
O	-0.2953480634255323	3.4736097881914896	2.915196911851064
O	-1.2375408811255324	4.578754448191489	1.9058407118510639
O	-0.3768160684255324	5.62792731819149	2.2132201018510638
O	-2.5386319374255324	4.25086521819149	2.393071271851064
O	-0.9267903314255324	4.04796588819149	0.23298356485106386
O	-1.7391165434255322	4.609598878191489	-0.6744572551489361
O	-2.5025031174255323	3.7607985781914897	-1.5474788281489362
O	-1.9034315874255323	2.5758050551914895	-2.059175998148936
O	-2.355508967425532	2.30797543519149	-3.375808988148936
O	-3.2360731374255325	1.4073292951914897	-3.878114818148936
O	-3.0020579274255326	1.3294061111914897	-5.189587858148936
O	-2.032537698425532	2.18792403419149	-5.508573918148936
O	-2.0338747834255324	3.03886611819149	-4.4785176281489365
O	-1.4438555314255324	1.9315261571914897	-0.9102794431489362
O	-0.8121642614255324	2.69233912719149	0.12744141185106383
O	0.7766491625744676	1.4648628161914896	2.606424991851064
O	4.837844452574467	-3.4494911618085107	-5.000095278148936
O	6.141381832574468	-2.3097935718085107	-1.573170898148936
O	3.0183605325744676	-0.6501066218085105	-0.49245953314893615
O	6.733812322574468	-0.7071311618085101	3.475053191851064
O	4.867016432574467	-4.07547174180851	3.8655360118510638
O	4.025394142574467	-2.9800058218085104	7.408053561851064
O	-9.253674167425533	5.53488521819149	9.763803321851064
O	-6.411230467425533	5.735161258191489	7.335883961851064
O	-8.210256557425533	3.4239823281914896	4.8701946518510635
O	-10.771371397425533	0.7179121011914896	5.441453841851064
O	-13.794967317425533	1.9086788961914896	3.390272121851064
O	-13.754766817425532	0.3483549681914897	-0.09026749614893614
O	-2.864798507425532	8.47900407819149	13.536964821851065
O	-3.8166932574255323	3.9702317481914897	9.512009641851066
O	-7.313449257425533	-0.11449659180851035	9.464320461851063
O	1.7844270325744676	-11.27231417180851	-0.9278876481489361
O	3.1943369325744673	0.3042744881914896	-11.790471878148935
O	2.5190097025744675	3.50442102819149	-13.725341778148938
O	-1.5522443614255323	-0.4933722518085104	-12.929691078148934
O	-1.2821061414255324	-3.04110728180851	-10.157041488148938
O	-2.6352514474255324	-2.7872837018085104	-6.679059328148936
O	-6.312531717425532	-3.8126371318085104	-6.390495948148936
O	-7.681913117425532	-6.2868660018085105	-3.812804668148936
O	-8.962698717425532	-4.69982456180851	-0.5947591361489362
O	-9.815375707425533	-5.53905792180851	3.0110024418510637
O	-6.682936437425532	-6.10092058180851	5.099517481851064
O	-4.530031187425532	-5.459593731808511	2.0760142618510637
O	-2.0899594444255323	-8.27911312180851	2.8043901918510636
O	-1.5987449584255324	-6.88758893180851	6.315013761851064
O	-1.2855149994255324	-3.2134704518085107	5.3652541418510635
O	0.20203620257446775	-3.04292295180851	1.874472521851064
O	0.26473152257446775	-6.334326251808511	0.13621959385106386
O	3.905144972574468	-7.32674885180851	-0.21136810614893614
O	-0.6819913204255323	11.23857494819149	8.024992431851064
O	9.700813882574467	3.48248105819149	6.175808151851064
O	8.023306342574468	5.035477618191489	3.0879748118510637
O	5.4562169825744675	3.1879788681914896	0.9706420518510639
O	0.9454163325744678	1.8824035661914897	-4.388208238148936
O	1.7685709125744675	2.9814667181914896	-9.414042418148934
O	4.841032902574468	2.3859006941914895	-7.211393298148936
O	7.002989872574467	4.31612183819149	-4.790756578148936
O	9.393232282574468	2.8627591581914897	-2.268831888148936
O	11.614088882574467	3.70933524819149	0.6734832618510638
O	13.814325082574468	1.7989654281914897	3.082266891851064
O	5.993567532574468	5.183492498191489	-10.362294778148936
O	4.632737172574467	6.82195782819149	-7.2328115981489365
O	6.622713042574468	10.04982298819149	-6.717344528148936
