80

O	1.6766192926778198	-1.2385956135762	3.2779850745199997
O	0.9240956326778198	-1.3570442135762	-0.4949728854800003
O	-0.71156535132218	0.4130192397237999	2.30359603452
O	1.71647523267782	-0.25184488957620016	3.9941659745199996
O	0.9186636826778201	-2.3472765835762	-2.8615941054800005
O	-0.16162833732218007	2.0425680464237996	2.8467629245199997
O	0.4616563126778199	-0.29019520357620016	0.23541193151999984
O	2.29672217267782	-2.3844011635762	3.7914519745199997
O	3.0724822426778196	-1.8331370335762003	-2.00117439548
O	-0.5574813723221801	-1.5819028035762002	5.8673733745200005
O	0.26509413267782	-0.25169672057620013	1.66679751652
O	-0.8376778483221801	2.8175193464237998	1.8556646845199998
O	0.12435522267781995	2.4257207864238	6.0191293345200005
O	0.70418865267782	-1.5033406535762002	2.1843119345199997
O	1.2530077626778198	2.1359414264237997	2.51258845452
O	0.8801368626778201	-2.6642852735762	1.4431224885199998
O	-1.79442757232218	-1.6284284335762003	6.5623957845200005
O	0.63829563267782	-2.6083887835762	0.07065660251999983
O	0.82260061267782	-1.7085729035762003	6.39533393452
O	-0.3278103193221801	0.9315112204237999	6.91453030452
O	-0.66446820732218	0.14884454242379988	5.81578492452
O	-1.39032778732218	1.0181662174238	5.0498776345200005
O	-0.62923270032218	2.0552453864238	4.51078110452
O	-0.65057655332218	-2.8024132335762	4.64334756452
O	-0.04591363732218001	-4.0089908035762	5.15537760452
O	-0.0025997173221801173	-5.227007323576201	4.54481485452
O	-0.44083102532218	-5.210545223576201	3.22356652452
O	-1.53733677232218	-4.400634463576201	3.01118380452
O	-1.53526127032218	-3.2452305435762	3.73939035452
O	1.6278356126778197	-1.4466198035762001	-1.8941801154800002
O	-8.06486942732218	2.6499200364238	-3.89787689548
O	-5.466080107322179	0.45931061012379987	-5.61668100548
O	-2.88594577732218	0.3889658516337999	-2.9748808354800005
O	-1.1903067212131802	-2.0231339235762	-7.62741560548
O	-0.20351292932218001	1.6726218664238	-7.993969925479999
O	3.42528743267782	0.45230048352379987	-8.03680642548
O	15.294005452677819	0.33031836922379987	2.47530706452
O	12.366712052677821	0.07629815242379989	4.877812194520001
O	8.982281452677821	-1.1446840835762	3.9476534645199997
O	7.44687613267782	2.1841576364238	5.09874283452
O	8.736027092677821	5.6947002564238	5.22222896452
O	8.44000214267782	6.7039708264238	8.90144823452
O	5.08372275267782	8.4492138764238	9.54173721452
O	12.92715515267782	-6.4965310535762	0.4107974065199998
O	9.48291115267782	-1.4571067535762001	0.1991124555199998
O	10.57066425267782	3.8015858964238	0.5446349545199998
O	-13.043933647322179	1.5166569464238	2.19171631452
O	-14.06829454732218	-0.45731455657620007	5.26456245452
O	-12.037352547322179	4.9293926964237995	5.60367529452
O	-10.08411743732218	6.545655726423799	2.7562296845199996
O	-6.263948197322181	6.3697869064237995	2.54022449452
O	-4.38149548732218	8.9802741364238	4.62675076452
O	1.8815325226778201	10.1581214064238	3.6422837945199995
O	5.3770998026778205	10.8233291064238	2.21366482452
O	5.756598922677821	9.2426963264238	-1.2244783654800004
O	2.1731353326778198	8.0570123064238	-1.1020799454800003
O	1.4560672926778198	8.9665473864238	-4.71064604548
O	4.50430756267782	6.9905485964238	-5.84035040548
O	3.91873852267782	3.8949023164238	-3.69002197548
O	0.19265113267781997	3.4486905164237998	-3.0667702454800003
O	-1.73645540732218	6.5227397464238	-4.21791374548
O	-3.74194046732218	5.585800726423799	-7.335454725479999
O	2.74479158267782	-11.2799958935762	3.29676840452
O	5.94289482267782	-11.4192926935762	0.09960453251999979
O	7.284833832677821	-8.8770780435762	2.63423587452
O	10.28364015267782	-10.9186848935762	3.76934712452
O	13.836946852677821	-10.415594493576199	2.56773841452
O	0.4391518326778199	-7.5143935235762	-8.40530860548
O	-1.45836009532218	-7.4597791035762	-5.0995913354799995
O	-2.40900269732218	-4.1958496235762	-3.51605318548
O	-5.03322341732218	0.06315481142379986	1.7433709555199997
O	-9.91723528732218	-0.3251692515762001	3.6818747045199998
O	-9.46489618732218	-1.8242517835762002	0.19658499651999983
O	-8.04037179732218	-4.9740619335762	-1.3641521454800003
O	-7.088561917322179	-5.4286817835762005	-4.99822097548
O	-5.345783927322181	-7.783927313576201	-7.42088243548
O	-12.47154084732218	-4.246425613576201	2.2074034445199997
O	-8.92545922732218	-5.461665163576201	2.7146424245199996
O	-9.07574758732218	-9.3305032435762	2.65426179452
O	-6.149599547322181	-11.9245487935762	2.51513974452
