68

O	2.891390433294118	3.4310471130235287	-1.9117580976274515
O	1.601601073294118	2.762199723023529	-2.3811569776274517
O	0.6757664732941178	2.611068973023529	-1.2493679886274518
O	1.7502202832941176	2.520598763023529	-0.2560902836274516
O	1.8772250532941177	3.9869035130235293	0.2580990783725484
O	2.412535173294118	4.598287153023529	-1.0385459796274517
O	1.7971940032941176	1.309980373923529	-2.7040208376274517
O	0.4277041732941178	0.841121806023529	-2.8411464976274514
O	-0.18567127270588224	1.536591673023529	-1.7614303476274515
O	2.7237505532941175	0.715653240023529	-2.128461777627452
O	-1.1160517107058823	1.059788014023529	-1.1145856016274516
O	0.06541474929411772	-0.0581455869764711	-3.8546286376274517
O	1.0859667132941178	-0.726199656976471	-4.709995307627452
O	-1.1544612327058823	-0.15522129697647102	-4.611639157627452
O	-1.4418996127058823	-1.346955826976471	-5.002042627627452
O	-2.263955186705882	0.518422667023529	-4.199479687627452
O	3.1580134632941177	2.4196251830235287	-0.7733390084274516
O	1.8574727132941176	-5.58045724697647	6.625475802372549
O	-1.1124618317058823	-5.469389586976471	4.244207092372548
O	-0.24746834170588228	-2.132474466976471	2.3843209023725485
O	-5.166830456705883	-4.317541316976471	1.0509002223725483
O	-5.987086176705882	-2.207938666976471	4.204315962372549
O	-8.239730836705883	-0.0995852769764709	1.8969501623725482
O	-2.1262869067058823	12.558608013023528	-5.600332687627452
O	-1.0124694317058822	8.95469539302353	-5.147356077627451
O	0.8606235532941178	9.87918790302353	-1.9576235976274516
O	0.3142555832941176	12.609535813023529	0.5967086323725483
O	3.6159967432941174	14.58455461302353	0.5556120523725483
O	6.037887853294118	13.236826113023529	3.1951001323725485
O	-6.558043646705883	7.946699833023529	-10.30843473762745
O	-4.533679796705883	7.549353143023529	-4.560148027627452
O	-4.681958036705883	10.95081783302353	-0.42230093162745164
O	-7.226759196705883	8.02829386302353	3.039074662372548
O	-3.3099633467058824	-0.8259231569764711	12.81472700237255
O	9.623321303294118	-6.95745128697647	5.723677642372548
O	12.077605603294117	-3.049120046976471	7.466797082372549
O	8.680518203294117	-2.118836696976471	8.880527872372548
O	6.361057233294117	0.534168715023529	7.470135412372549
O	7.145700423294118	4.115970573023529	8.625711782372548
O	-3.3974757867058822	9.042268143023529	6.712784232372549
O	-1.3689365987058824	5.841102313023529	6.949498572372548
O	-3.939054506705882	4.019144203023529	9.07698758237255
O	-6.642233166705882	4.864176833023529	6.538059552372548
O	-4.663611656705882	4.012375223023529	3.385951022372548
O	-2.0591851367058824	1.332605402823529	4.085786032372548
O	-1.8321813167058822	0.746328254023529	7.941119242372549
O	-3.263653446705882	-2.6897729069764713	8.677674782372549
O	1.3611915932941177	-0.4524134069764709	-11.664682497627451
O	2.0575907432941176	1.046001776023529	-15.102807997627451
O	-3.1201049767058824	0.273213243023529	-12.096568297627451
O	-1.7116428907058823	3.6678780430235287	-11.06360729762745
O	-2.572772686705882	5.5035520730235294	-14.286889397627451
O	-9.658137646705883	-8.49570404697647	-5.437730287627451
O	-7.007044926705882	-6.105801256976471	-4.156965847627452
O	-3.2019061967058824	-5.877085036976471	-4.364168257627451
O	-1.1948475307058823	-4.270785036976471	-1.5941198906274516
O	4.779162473294118	-1.759379026976471	1.7267984523725484
O	9.097321703294117	-4.762969996976471	2.5504851423725485
O	5.868859113294118	-6.71344456697647	2.0030913623725484
O	3.673777403294118	-7.87244618697647	-0.8580623946274516
O	0.11013722029411777	-9.07757528697647	-0.5773085046274516
O	-2.9450166467058825	-10.04020168697647	-2.6059029376274516
O	-6.5176170167058824	-11.05400358697647	-1.9037053076274517
O	9.125465863294117	-9.09809518697647	0.35126412237254834
O	7.543957873294117	-6.6992229169764705	-2.119041717627452
O	7.510492243294117	-8.52133432697647	-5.501461407627451
O	5.702116583294117	-7.605527306976471	-8.80821935762745
O	1.8936481132941179	-7.44287779697647	-8.636305057627451
