19

O	75.78698842331994	3.815463328334517	29.386829056505075
O	77.90630916615336	2.93890796939342	29.207673802872048
O	77.66926063921626	5.1351287444886005	30.43642638970728
O	77.8227251737124	5.730812691154077	29.274297690883373
O	79.35084879258302	6.619317238120186	29.33148019870489
O	79.40655816962534	6.6560162380152965	27.941644721947114
O	78.98113387572154	7.611968790577165	30.288400612421004
O	80.54517069586021	5.4375960446411025	29.9263614020299
O	81.72286663287646	5.980981558665341	30.267709897038884
O	82.23987643698958	5.752272511425425	31.58898984910373
O	82.0742475667721	4.4708633396919595	32.1852179542299
O	83.19040052694922	4.141099665052419	32.99459276331988
O	83.3755639126663	4.1203491954311735	34.33777994775731
O	84.46267457425773	3.380750231291141	34.56577217889708
O	84.97033509383489	2.984924401890512	33.3977065494615
O	84.43627999760652	3.8489755964417487	32.529765960438155
O	80.70247590893744	4.243561167994725	32.07188223501158
O	80.02193686862232	4.5896752197424995	30.85870191593034
O	77.0395916108404	3.7393213854758485	30.111105166210155
