26

O	77.35350024758694	3.6314578163586475	29.294739968045036
O	76.2587025588579	3.76905210570072	28.802981190464966
O	80.14404625959635	6.432021823087517	29.435375384667662
O	77.93197906226956	4.776132921719544	30.085018072352245
O	78.44084417867792	5.906946026347896	29.285890903378256
O	80.37447505730913	4.760246100186169	27.663017925586345
O	78.9284627497395	4.707804742834892	27.499901956526756
O	78.01778967431423	5.519387101628842	28.01410228039184
O	79.1256311697959	4.4423198168840194	30.791176554683926
O	79.7425847090786	5.5199871467235635	31.56107942841785
O	80.64199815247883	4.872883874406111	32.51792047866434
O	79.90789370882072	4.562186678170326	33.55416106758819
O	78.79979781130315	5.2609119488696825	33.99874315463123
O	78.89483821726174	5.52858835656766	35.40441921042074
O	81.99539905446994	5.373856638088748	32.91965693604594
O	81.75583598694615	6.642941741097471	33.43196201836562
O	82.8899623064018	6.776533540372473	34.67730249037832
O	83.18727487906523	5.158999470325233	34.9085818493357
O	82.75149485863666	4.680185153903293	33.756288194665416
O	83.34661380337295	4.6979563059424825	36.23114894512223
O	80.96000549134095	5.799786306808974	27.023048726203612
O	81.00801605776167	4.823934396703949	29.061568114695383
O	78.35688482754938	4.629017577748004	26.195285805461214
O	78.99005631174485	5.145871057312082	25.257875318274387
O	77.20962857766122	3.9261199134395293	25.8662520688869
O	78.9560829640973	6.457704181340736	31.94856391655577
