67

O	-4.8697958316222225	3.258164649106666	2.7379942837355555
O	-4.4912312616222225	4.699302879106667	2.640642943735556
O	-5.643892941622223	2.6359594091066665	3.8622734737355557
O	-4.988561641622223	1.2059328291066662	1.431845655735556
O	-4.049029921622223	2.1773455391066663	1.703920913735556
O	-4.3605169416222225	-0.10926805789333383	1.313099602735556
O	-3.093137591622223	-0.29089187189333376	1.9057054737355559
O	-3.890042461622223	-0.23347763689333378	-0.15008550326444403
O	-3.2858002516222227	0.9922994101066662	-0.359928186264444
O	-2.976269631622223	-1.4192610908933336	-0.006227063264443999
O	-3.4394377016222224	-2.5352211008933336	-0.699954776264444
O	-3.0371132016222226	-1.647539320893334	1.4973249047355561
O	-0.29807451162222276	-5.667900600893334	2.8739618337355557
O	-1.6180366166222226	-5.543838880893333	2.741949873735556
O	-2.2059340326222228	-4.480393600893334	2.192078213735556
O	-1.4737183526222228	-3.3816461208933335	2.087306253735556
O	-0.11993353162222276	-3.514470550893334	2.0725125537355558
O	0.45171958837777737	-4.708989340893334	2.352516343735556
O	1.8258975383777774	-4.857754920893334	2.243764443735556
O	0.3883742083777775	-2.3083510108933334	1.945099253735556
O	-0.6143934116222227	-1.569172320893334	1.400343297735556
O	-1.7360343216222227	-2.097238640893334	1.881988373735556
O	6.158075608377779	4.147912099106666	2.058702133735556
O	2.8342954083777774	2.626793729106666	1.2610659207355561
O	3.9761471483777773	6.818655609106666	-1.9833510662644442
O	5.542406218377778	3.811095659106666	-3.785565336264444
O	3.1516236783777773	4.544992289106666	-6.684260436264444
O	-10.936402371622222	-1.959087200893334	-10.895579476264444
O	-10.998587241622221	-2.5123353308933334	-7.086536816264444
O	-9.019254161622223	-0.6189596908933337	-4.481870846264444
O	-7.374809831622223	-3.849403720893333	-3.2635051462644444
O	-6.663162231622223	-7.0945626808933335	-5.085879896264444
O	-8.586205821622222	-9.750119010893334	-3.0703986462644437
O	-6.375517391622223	-11.158831210893334	-0.26838910126444404
O	-11.260584041622222	5.273886489106666	-8.861149906264444
O	-6.927633431622223	1.405196872106666	-7.017717536264444
O	-5.323195541622223	-3.4229046908933336	-8.790510646264444
O	-0.3208800616222227	-2.3236838108933338	-9.669136276264444
O	5.402723068377778	0.07499644210666623	12.167161823735556
O	4.149785018377777	-4.698651970893334	12.425419223735556
O	5.644474248377778	-4.810365160893333	8.948664163735556
O	3.6979608283777776	-4.926788630893333	5.697494043735556
O	2.474215298377777	-8.421230520893333	4.712512513735557
O	3.097110278377777	-9.958357910893334	1.270896742735556
O	0.2338830083777772	-9.377527230893334	-1.153338146264444
O	-0.39430200162222273	-9.641102810893333	-4.922464756264444
O	1.1131892483777772	-6.682586290893333	-6.792503666264444
O	2.3172228383777775	-5.268601820893333	-3.405450626264444
O	5.773631268377777	-4.327372370893333	-5.0040118662644435
O	4.0134773283777765	-2.360654500893334	-7.744397876264443
O	1.4032160283777775	-0.6659677608933339	-5.557241186264444
O	2.9437169983777776	-0.16092452889333375	-2.1252522062644443
O	6.072261008377778	-2.112017600893334	-1.607619526264444
O	8.875728828377778	0.46544359810666625	-1.309762026264444
O	-10.879295021622223	6.866314989106667	-2.560933336264444
O	1.2296641083777775	11.859519689106666	-2.618947236264444
O	-0.06070527162222272	10.316611239106667	0.640902374635556
O	0.8460356583777773	6.764664539106667	1.572132073735556
O	0.5853065483777775	0.4458771661066662	5.410022263735557
O	1.8107065883777773	0.5343191353066662	10.754766023735556
O	3.1449979983777774	3.514297859106666	8.819973243735555
O	2.000591008377777	6.874465629106666	7.5268382937355565
O	3.8212163583777774	9.033451409106666	4.995172823735556
O	3.4941725283777774	12.121270689106666	2.803969213735556
O	2.256482888377777	4.876196179106667	12.873329823735556
O	-0.6025549216222228	5.218729419106666	10.417611563735557
O	-2.3412276986222227	8.507345729106666	11.389139323735556
