75

O	-1.6670910052244896	-0.4264740978632653	0.2713779003061223
O	-2.8618795352244897	-0.24815812486326533	0.2664134883061223
O	0.13560027677551045	-3.7406697308632655	-0.9187882936938776
O	-1.0483857992244896	-1.1610282208632654	-0.8892652086938777
O	-1.2590931242244894	-2.6210688308632655	-0.9023057926938777
O	-0.16060187622448951	-3.4750659908632655	1.4959376533061222
O	-1.4498176892244894	-2.8318146708632654	1.2850850133061222
O	-2.1493239652244895	-2.7505964208632654	0.1641532963061223
O	0.3779233247755105	-1.1378367408632655	-0.8901500706938776
O	1.0341171247755105	-1.8510653908632655	-1.9835226366938776
O	2.4035972047755103	-1.3367681308632655	-2.040571926693878
O	2.3570210747755103	-0.2597784278632653	-2.7802748966938777
O	1.4819642447755106	-0.03576697666326532	-3.828054056693878
O	2.1869565647755103	0.4018681111367347	-4.9976992466938785
O	3.6309587647755106	-2.1512854008632654	-2.3129780766938777
O	3.3956572147755106	-2.7252445208632654	-3.556210986693878
O	4.930169284775511	-2.7575166108632656	-4.262747176693878
O	5.65373083477551	-1.5945699208632653	-3.323430906693878
O	4.83121874477551	-1.5930692908632653	-2.2888200366938776
O	6.53469080477551	-0.6906691878632654	-3.9511302066938776
O	-0.2087688632244895	-4.827138300863266	1.4446471433061223
O	1.0411842847755104	-3.1451357708632655	0.5969220233061223
O	-2.5501780652244896	-3.1344855408632655	2.1409643433061225
O	-2.5866147352244893	-4.267849710863265	2.651787303306122
O	-3.5230944952244894	-2.2334925308632654	2.5411773433061224
O	0.3497588227755105	-1.9827407108632655	-3.061649616693878
O	5.04916871477551	5.911968609136735	4.021567433306123
O	1.3005174647755104	5.2750151991367344	4.496746193306123
O	0.8691609947755106	2.6206858691367345	1.7986463733061222
O	-3.8678774352244893	4.075844629136735	4.071076913306122
O	-3.4145994052244895	6.635786379136735	1.2351763033061223
O	-6.64677834522449	5.191484709136734	-0.2569878926938777
O	-5.69534913522449	-7.008312050863266	-10.396343976693878
O	-4.18306098522449	-6.226412650863265	-7.016280756693877
O	-1.0739863002244896	-4.505615510863265	-8.571121436693877
O	-0.8342468672244896	-2.7948234908632656	-11.945704376693879
O	1.8550784347755105	-4.843005290863266	-13.761481876693878
O	5.3016696747755105	-3.3987631808632655	-13.047675676693878
O	-11.44730386522449	-7.836809330863265	-4.954777016693878
O	-6.969511835224489	-3.7987020408632652	-5.9491688966938785
O	-5.59990540522449	-0.9995395208632653	-10.299619806693878
O	-6.12381730522449	3.8692819591367345	-8.399425786693877
O	2.7929618447755105	12.480219749136735	-2.2637876466938778
O	11.59582373477551	1.6636007891367346	5.561940823306122
O	14.11872993477551	1.1351031491367345	1.4046755733061222
O	11.62234493477551	3.6556659191367347	0.07931443530612237
O	8.61513414477551	2.8387330391367347	-2.116774286693878
O	9.48269093477551	2.7670772391367344	-5.8147609466938786
O	-1.2208822342244896	5.075831549136734	-10.260106856693879
O	1.0713698547755104	5.033569559136734	-7.180372486693878
O	-0.07274745922448955	8.518729179136736	-6.000526546693878
O	-3.7111304652244894	7.378808639136735	-6.2060722566938775
O	-3.2765709752244896	3.9729387991367346	-4.551600986693877
O	-0.32615049022448955	4.123111439136735	-2.1120796466938776
O	1.6958888247755106	7.268943079136735	-2.5265089766938775
O	1.1295138347755105	9.372920799136736	0.5935756633061222
O	-4.4206844852244895	-10.723209250863265	3.883265103306122
O	-8.610616955224488	-9.102724720863264	3.084377993306122
O	-7.15266176522449	-9.672538650863265	-0.4157142686938777
O	-9.54729681522449	-12.459729450863264	-1.4229957826938777
O	-10.344190455224489	1.7153687391367345	9.708554423306122
O	-7.669981005224489	1.0071432091367345	7.124915073306122
O	-4.4250125152244895	-0.9884401378632653	7.101445553306123
O	-1.5659308842244894	0.01679983443673468	4.801719173306122
O	4.82306067477551	-0.6110804058632653	1.5681255233061222
O	9.36975001477551	-1.2731737608632654	4.155599303306122
O	6.55899892477551	0.25869368013673466	6.235271443306122
O	3.464578994775511	-0.8156217928632653	8.112005373306122
O	0.5988588747755104	1.4142615591367347	9.213668543306122
O	-2.9361486552244895	1.3865126491367346	10.617170223306122
O	8.97558919477551	-2.0977530108632654	9.004428733306122
O	6.14904778477551	-4.001564950863266	7.3489902433061225
O	4.82341414477551	-6.356035350863265	10.109230823306122
O	1.5938242747755105	-8.520116910863264	10.171603423306122
O	-1.7207341652244896	-6.630128490863266	9.966797523306122
