67

O	-3.3404110262374997	2.6778046880208333	2.574392465625
O	-2.1418940062374996	0.7796677740208333	3.065945135625
O	-1.6546624292374998	1.7500849200208333	0.717049985625
O	-2.6627046362374998	2.6778656080208334	0.11617661462499995
O	-1.5700083722374996	3.9745859680208335	0.5336546156249998
O	-1.1821230362374997	3.9380507580208333	1.969675525625
O	-2.6217362962374997	4.911646508020834	0.3367748826249999
O	-0.1978171022374997	3.7335281680208334	-0.43856236037500007
O	0.8538773437625002	4.536364918020833	-0.8806773333750001
O	1.6037166737625002	4.009884298020833	-1.9558995643750001
O	1.3813511537625003	2.791078818020833	-2.505287474375
O	1.3086728837625003	2.746499618020833	-3.950180014375
O	0.15214793376250024	2.935841538020833	-4.648169784375001
O	0.3804122237625003	2.6439085380208334	-5.913963514375
O	1.4998755237625	1.9566484210208333	-5.922103814375
O	1.9672398737625005	1.8487670050208334	-4.678400404375
O	0.9062041037625004	1.8879592420208333	-1.6455092643750002
O	0.22498543376250035	2.387149318020833	-0.5789799159750001
O	-2.1460130462375	1.8608354750208334	2.154621185625
O	-0.19340581223749964	-6.896961261979167	-3.166251334375
O	-2.3590102062374996	-6.1258580919791665	-0.11532494137500005
O	-1.7180986592374996	-2.488622351979167	0.10199806962499991
O	-4.6517620862374995	-4.243789441979167	4.287315105625
O	-0.9978147358374997	-4.869795351979167	5.444087985625
O	-1.7736597002374996	-2.505413861979167	8.342836255625
O	0.4436092237625002	13.143600988020834	6.630782535624999
O	-1.2498754772374996	10.489239218020835	4.576269055625
O	2.0179505237625	9.747085858020833	2.729628185625
O	5.627507643762501	10.120489328020835	3.754309405625
O	7.0968342037625005	12.536517088020833	1.1472582456249998
O	8.598117613762499	10.594321688020834	-1.787391484375
O	-6.5374189662374995	11.283853758020834	9.971541885625
O	-1.9379039442374997	8.114436498020833	7.502096125625
O	3.361389363762501	8.139933188020834	8.182291625625
O	7.0341097637625	-8.278073151979166	2.580999895625
O	9.951048163762499	-8.928000411979166	0.18354477962499993
O	-0.8613391372374997	-5.369552501979167	-10.922312714375
O	-2.4603539962374996	-3.4454602119791673	-13.784801914375
O	3.0836917937625	-2.7497883419791673	-12.334559114375
O	4.376997903762501	-3.705021331979167	-8.904212224375
O	4.5178222737625005	-1.4589374019791668	-5.854892724375
O	7.586784013762501	0.8211749460208333	-5.721303634375
O	9.9926386637625	1.0037774140208333	-2.735273494375
O	9.1605819637625	3.8149453080208335	-0.2967736153750001
O	9.8996147637625	4.900291998020833	3.2749528256250002
O	8.0030089637625	2.797339278020833	5.822957165625
O	6.4823112237625	0.7847540150208333	2.986578345625
O	6.870004383762501	-2.5495366519791673	4.7934080056249995
O	5.0584167737625005	-1.1292438519791668	7.827392525624999
O	2.2822362937625007	0.6157028420208334	5.956212965624999
O	1.6142659637625003	-1.3148458719791665	2.725973885625
O	4.235938953762501	-3.8374267919791665	1.986706775625
O	2.6256225937625004	-7.255441361979167	2.371861895625
O	-9.1855401362375	9.801260078020833	4.206952995625
O	-10.0853579162375	-3.1858904919791673	5.998661795625
O	-9.6977838962375	-1.8476864219791669	2.410441955625
O	-6.282569876237499	-1.5956264719791668	0.6684537756249999
O	-1.5486728942374997	-0.3302494419791666	-4.620405014375001
O	-2.1877899662374998	-1.9730174619791667	-9.647444384375001
O	-4.1143636362375	-3.911536281979167	-6.990384134375001
O	-7.3396963762375	-3.7009954819791666	-5.023093794375001
O	-8.2175415562375	-5.643042601979167	-1.914518814375
O	-10.7223316162375	-5.9549473519791665	0.8969638156249998
O	-11.1163857362375	-8.084394081979166	4.002263595624999
O	-6.4963356962375	-3.944880541979167	-10.670221514375001
O	-7.216768336237499	-1.0433605319791666	-8.336130314375
O	-10.9687226662375	-0.34132808197916664	-8.539446314375
