55

O	0.978407362072727	-0.14692671363181808	3.1529635353863634
O	1.9657310820727272	-1.1617435379318182	2.9350561953863634
O	3.276082652072727	-0.7650792429318182	2.9133360553863636
O	4.200349302072727	-1.636869882931818	2.3989192153863637
O	3.8074076220727266	-2.646798042931818	1.5563299953863636
O	2.466690542072727	-2.858218362931818	1.4000965783863637
O	1.662547202072727	-2.437317752931818	2.465590165386364
O	4.7348843620727274	-3.689488712931818	1.0649849933863638
O	0.293925812072727	-2.741604062931818	2.4512418253863637
O	5.741470212072727	-3.834760472931818	1.8238078293863635
O	4.240195422072727	-4.915007162931818	0.5889690033863637
O	-0.464721782927273	0.9680390070681818	-7.444858774613636
O	-2.033720407927273	4.2182582470681815	-6.188853354613636
O	-1.136829997927273	3.830533907068182	-2.5225612346136366
O	-4.333944557927273	8.165584377068182	-3.5008823046136364
O	-6.818515417927273	5.292598107068182	-2.947750874613636
O	-0.402725860927273	5.356720257068181	10.935758805386364
O	-0.38295029192727303	1.621799857068182	10.228766865386364
O	-2.5124020079272733	-1.223080832931818	11.530471605386364
O	0.04889696787272698	-3.594445052931818	13.149617505386363
O	1.289258122072727	-6.187307042931819	10.631623985386362
O	0.15154047007272697	-9.116023592931818	12.776034805386363
O	-3.4814138979272733	-7.9817591629318185	12.642625505386363
O	-2.636000977927273	12.413616507068182	12.621745105386363
O	-3.474093717927273	7.195209187068182	9.566339775386362
O	-6.115818407927272	2.668423527068182	10.741138035386363
O	-8.653417297927273	-3.261332822931818	-5.818410344613636
O	-7.900247687927273	-6.909795212931819	-6.729532364613636
O	6.965075332072727	-1.514597342931818	-8.636374914613636
O	10.693912282072727	-1.188259582931818	-7.960906434613636
O	12.265746382072727	-0.9061636769318181	-4.543861374613636
O	10.316205482072727	-5.914406522931818	-8.649964734613636
O	7.593884172072728	-5.661884442931818	-6.010659124613636
O	3.827331782072727	-5.469422662931819	-5.6530190946136365
O	1.966968532072727	-4.311650182931818	-2.543000104613636
O	1.5087830320727271	-7.032421182931818	0.10956074538636362
O	-1.887853277927273	-7.970027502931819	1.6252575083863636
O	-2.596068627927273	-6.154201612931819	4.897556705386363
O	-5.580525627927273	-5.385152432931818	7.1687871253863635
O	-7.792518767927272	-2.636281982931818	5.733720665386364
O	-5.5471669479272725	-2.445585742931818	2.6887095953863636
O	-8.429158327927272	-2.1027618429318182	0.22186778538636376
O	-6.533389547927273	2.633255387068182	2.8276633753863636
O	-4.212686997927273	1.9433112570681819	-0.09329166461363636
O	-5.488797007927273	-0.8650559119318181	-2.293280694613636
O	-6.449625137927272	0.6992934920681819	-5.629390784613636
O	0.29012725907272696	8.258634057068182	-2.4798245646136365
O	3.549146412072727	1.8390452770681818	-1.9246046646136363
O	7.537272362072727	0.26166054406818184	-5.248792624613636
O	5.314826212072727	3.070489057068182	-6.553072704613636
O	4.901526812072727	6.815861877068182	-6.192439984613636
O	1.8884532320727272	8.833204377068183	-7.281524564613636
O	6.783853312072727	2.596143447068182	-10.538077094613637
O	9.363728232072727	3.757061067068182	-8.028936034613636
O	8.608056192072727	5.392873527068182	-4.683375084613636
