19

O	84.47987848957945	4.512176826915551	33.482783220421204
O	84.1458403633611	5.7169356700543466	32.865579141070505
O	81.94020710953744	5.121621544212832	33.04081399768275
O	82.94667425279219	5.610998976431274	32.21684196760009
O	80.48722715227694	4.990489983226487	32.84696659722383
O	79.87807431226	5.435184017476663	31.58666986039018
O	78.54108218462665	4.9065721737004715	29.470427970749043
O	79.56009353110298	5.304583709105744	28.480420670701488
O	80.72022263635243	5.869756672032822	29.03525381633972
O	82.05175968283963	5.5307739906797195	28.677883522219357
O	79.84122173093851	4.861621002198291	27.223038544434406
O	81.17793761427026	4.700845661107612	26.738933546886916
O	82.23592661905343	5.30093910845709	27.343523896777906
O	78.94204068390732	4.660372300931872	30.81697557279837
O	79.67574774011197	6.684669483813528	31.443550453225107
O	76.80378121303107	4.460269147595298	27.651307078633664
O	76.87733965583345	2.7769297042042687	29.402607461465845
O	82.89734296632685	3.9614819232783645	33.909255893849775
O	77.2845576747861	4.088032656505675	29.011368106033185
