12

O	76.1707438343131	3.781760587483878	26.15056999475577
O	76.68008723491647	2.23865854883865	27.93692092816287
O	80.18350498906976	6.824370704121264	29.890891380867178
O	79.79665859619713	6.565184289209132	31.096181709034408
O	81.04436368049976	7.911303217873734	29.93359144018115
O	77.56780298557922	4.526657941587454	28.301763222097684
O	78.77037133662236	4.579625544549787	27.550045812417398
O	79.52019414780337	5.777823009754577	27.610557451636524
O	79.31394315238566	6.477824138939972	28.80590335662294
O	77.95850687962374	6.809008267600067	28.58348305777803
O	77.01270087750436	5.793310013513555	28.47594616835844
O	76.48895930795	3.6106981506592524	27.585121108351256
