13

O	81.59904793498971	9.00610231867163	33.713539192090245
O	81.23610400920595	7.526502730390518	33.85309382043734
O	80.58929447949421	7.053741603627206	32.46530698483899
O	79.46523732965652	6.123886235246242	32.63802187682828
O	78.63975735780973	6.394796947854923	33.562951614025536
O	79.651145295414	4.620493188904641	32.48997553336103
O	81.0545949770555	4.680608477645143	33.15428684832305
O	80.76441002018588	4.856229790616995	34.40552185822403
O	82.13140097487393	5.44078090560582	32.463167896397024
O	82.93961891042842	6.047990856082707	33.685323728357176
O	84.37251747855721	6.153662038631506	33.24545218884966
O	81.40238589053041	6.33470376547638	31.421648719788198
O	82.44413296095429	7.4525178414121775	30.850888191489492
