20

O	80.10623103599337	5.894977745936327	29.787061366209297
O	80.76531205677671	5.933540348440507	28.462931434396516
O	79.89698907146088	5.328796054966794	27.76299881427063
O	79.11105079413007	4.282183268935189	28.4044512925121
O	79.09578105830404	4.900918492990133	29.636397197007422
O	77.79515263368161	4.730279014675077	30.289407406772746
O	76.88375989057813	4.239787426570414	29.12978884909548
O	76.87768927938588	5.2393759184857736	28.395819662466923
O	82.51261609768079	5.262308357699084	28.450245009420563
O	83.06608449385945	4.469669239170779	29.97265305219829
O	84.45366611101284	4.609699136876514	30.382721979757555
O	84.47913078346103	3.7266066138861733	31.54733705386359
O	85.02552620077189	2.634882891587508	30.758102134871265
O	84.26077187735382	1.9527666866435525	29.95485430844405
O	79.7786194770736	4.989193831447204	26.29966968845513
O	79.74685184491642	3.783587773440439	25.88073408663918
O	78.49376342099043	5.555068843819431	25.91780402362541
O	77.51013386908767	6.181158339182809	30.726467150723327
O	78.67115846689168	6.432541295140888	31.71139172686165
O	77.76657822785279	7.0758378687930765	29.67261049005286
