80

O	0.7251456343529414	-0.029443198792157177	1.616751378862745
O	1.2061114743529415	0.1580827122078428	0.5333180188627449
O	0.14334191435294152	-1.4573946507921574	1.9557788688627449
O	-0.8400073956470586	-1.400418830792157	0.9740078688627449
O	-0.8783238356470586	-1.4079588707921573	3.117168158862745
O	-2.2012993066470585	-1.3693105307921571	2.860905548862745
O	-3.153686505647059	-0.6589515907921573	3.517705428862745
O	-2.856841894647059	0.8340946132078428	3.364395188862745
O	-1.3973448116470588	1.0115282392078428	3.023755298862745
O	-0.8087136156470587	2.192571519207843	2.571391378862745
O	-1.1514465996470586	-0.12118374679215715	2.702309998862745
O	-3.7265279756470586	1.2931399432078428	2.567946938862745
O	-1.8330486716470586	-2.4440994507921574	0.9173254018627449
O	-1.5777353766470588	-3.483248910792157	1.5342134288627451
O	-3.0478926556470585	-2.173568500792157	0.19535586186274495
O	-4.365546435647059	-2.551018050792157	0.7487902938627449
O	-5.266342495647058	-2.1665457107921573	-0.25835293713725505
O	-6.588463125647058	-1.790727490792157	-0.04477401613725507
O	-6.985045755647058	-1.3272646207921572	1.173878230862745
O	-7.831041375647058	-0.2051742797921572	1.235709446862745
O	-6.092551775647059	-1.489287740792157	2.200908528862745
O	-4.958451445647059	-2.193069350792157	1.9015018288627448
O	-3.139020495647059	-0.6846820007921572	0.14268367286274494
O	-4.104674585647059	-0.2321428677921572	0.7682098028627449
O	-2.0750077256470587	0.19512042920784278	0.12961227086274493
O	1.3049826543529413	-1.3651033507921573	2.540959888862745
O	2.210528444352941	-1.8465726407921572	1.5571431988627449
O	-1.1920950856470587	2.792838899207843	1.5614299388627448
O	0.16807162435294143	2.829096559207843	3.344436278862745
O	-2.3418185286470585	0.8910283652078428	-8.748648821137255
O	0.5889785943529413	2.3889536092078427	-6.765504101137255
O	0.04736895435294142	0.6392300866078429	-3.570684301137255
O	4.572625334352941	3.5063468692078428	-3.428599181137255
O	5.652770884352941	0.1035758352078428	-4.830092791137255
O	7.997223424352942	-0.12750224779215724	-1.807317881137255
O	10.144149684352941	2.5283198792078427	-3.442284881137255
O	3.148805814352942	-6.869230320792157	11.605355298862746
O	1.6691179543529413	-4.268855890792157	9.262842608862744
O	0.03866982435294131	-7.0753781007921575	7.239007458862745
O	0.8333956143529415	-10.694729840792156	6.602866998862745
O	-2.2983023096470587	-12.538123740792159	7.874693838862745
O	-4.826182505647059	-13.071682240792157	5.049417348862745
O	6.959297864352942	-0.05263352279215716	12.722637998862744
O	5.016051934352942	-3.1428947507921574	7.8190874988627455
O	5.628113474352942	-8.287910890792158	6.311402478862745
O	7.897959654352942	-7.567034420792157	1.6861920188627448
O	3.3340556843529416	-6.122066880792157	-11.242387901137255
O	-10.247946015647058	1.8281881992078428	-8.277260741137255
O	-12.291993715647058	-2.573777330792157	-7.384686301137255
O	-8.79246933564706	-3.8600224207921574	-8.088873941137255
O	-6.249775315647058	-4.965409290792157	-5.453742181137255
O	-6.713932935647058	-8.619330460792156	-4.387442471137255
O	4.264480254352941	-10.832409640792157	-0.666811349137255
O	1.9182777343529411	-8.490620810792159	-2.5725544711372548
O	4.352157924352942	-7.949627240792156	-5.448338721137255
O	7.081041344352942	-6.9728013607921575	-2.958622441137255
O	4.942733654352941	-4.697911430792157	-0.746807081137255
O	2.2794244743529415	-3.138606880792157	-2.942476051137255
O	1.9241168943529414	-4.794854910792157	-6.294607101137255
O	3.1010115143529413	-2.250783400792157	-8.891889601137255
O	-1.5138915506470587	7.261724339207843	9.490077468862745
O	-2.0651152596470586	7.889512479207843	13.208806098862745
O	2.9731460243529417	7.061554379207843	10.012831278862745
O	1.8222992143529415	3.592681769207843	11.162016898862746
O	2.7854525443529417	3.918068559207843	14.807269898862746
O	8.51756088435294	10.926147459207844	-0.6513666921372551
O	6.092464844352941	8.003143419207843	-0.23406334513725502
O	2.3407484243529417	7.660998549207843	0.16304231886274495
O	0.5636371343529414	4.6277496892078425	-1.1790107211372551
O	-4.996264305647059	0.3853607692078428	-2.5587615911372548
O	-9.59704200564706	1.9039563292078427	-4.447505781137255
O	-6.566806205647058	4.060753439207843	-5.208834041137255
O	-4.535034145647058	6.832899249207843	-3.647145801137255
O	-1.0822538046470587	7.922066179207842	-4.6596040111372545
O	1.8511899143529413	10.109340659207842	-3.659076111137255
O	-10.044505755647059	6.6983280192078425	-5.103847681137255
O	-8.29162985564706	6.283363049207843	-1.772974771137255
O	-8.468679545647058	9.680679129207842	0.0007692598627449532
O	-6.6145482156470585	11.069016759207845	3.128586308862745
O	-2.8001361626470587	11.191210959207844	2.924919778862745
