15

O	82.16003064895469	4.934123542685905	27.851943287510466
O	82.67333573240226	5.133277438387777	29.141876243175567
O	81.3908164450044	3.7617488491843663	27.797847069864897
O	81.66958580963185	5.11819106959128	30.109383034591936
O	80.29235996046188	3.856322400172811	28.660649394324473
O	77.29515566504396	5.315665809446351	28.763767035838786
O	79.55608304961754	4.227644596840321	30.892426175416478
O	80.73251688400188	4.09034504361227	29.972294167580028
O	78.72220881147784	5.648121428700318	28.68767195941565
O	80.09035471134264	6.757346530547206	30.46200282876707
O	77.77198931942318	6.113889380732035	31.16472586440752
O	77.89802655242892	4.914120179287632	26.181780792513276
O	75.64855214031421	4.401306362836603	27.062543244677798
O	78.9653588873386	5.825124642933	30.3567005300881
O	76.95332382211744	4.95179275127268	27.278279125661754
