63

O	6.8287491395672	0.21793888100600056	-0.4192863334800005
O	5.4880472395672	-0.04120322899399964	-1.1090562308800005
O	4.3307983395672	0.22257458100600047	-0.032481011880000465
O	3.2186023495672	-0.7318104289939995	-0.1331549838800005
O	3.5280006695672	-1.9485667089939998	-0.3177671490800005
O	1.9322187595671998	-0.37461500899399947	-0.8641124618800005
O	2.7123374295672	0.42176543600600047	-1.9466037678800006
O	3.2456581395671997	-0.5218194089939996	-2.6578392178800008
O	3.4637605695672	1.6356899050060005	-1.5261643178800006
O	4.727456909567199	1.5863415190060004	-2.4833588278800005
O	5.1328541495671995	3.0108532110060002	-2.7368764678800006
O	3.5864512195672	1.5304724690060005	0.01953926411999951
O	4.6796630495672	2.6202148310060007	0.5466657451199995
O	-5.865652070432801	1.2456318447060004	-6.606654427880001
O	-6.794222290432801	0.2523604210060004	-3.010178897880001
O	-3.2778268204328	-0.11236630899399946	-1.5955226178800004
O	-7.0812811104328	-1.6113833589939996	1.9485834021199993
O	-6.4223510204328	-4.839657608993999	-0.0752276918800005
O	-5.2701424104328005	-6.377746848994	3.2374452721199996
O	9.066042559567201	-8.699088288994	10.00673354212
O	9.7859325795672	-5.561408128994	7.89741528212
O	7.2651954795672	-3.0692452089939994	6.61136863212
O	8.3429960995672	-3.7373924989939997	2.9912726521199993
O	9.880649489567201	-6.736535788993999	1.3390591921199997
O	13.2483349895672	-5.506441018993999	-0.016549320880000495
O	12.8867511895672	-4.4027184489939994	-3.6482904178800006
O	4.588678599567199	-3.9047340189939996	13.692663142119999
O	4.161317239567199	-5.014477208993999	7.70144280212
O	6.146286029567199	-8.939814488994	4.57182591212
O	-5.641627940432801	-7.900175798993999	-8.736468137880001
O	-2.6713331704328	7.780652791006001	-9.88391197788
O	-0.8038767604328001	11.069903461006001	-9.513557957880002
O	1.6385111595672	6.507806731006001	-12.063610657880002
O	0.41063033006719984	2.9808863410060003	-11.42996685788
O	1.7999633595671998	0.7220803420060005	-8.621163267880002
O	4.8370312195672	-1.2675445289939995	-9.77278400788
O	6.7226888195672	-6.268278908994	-6.30072742788
O	3.8352119695672	-10.218113388993999	-2.4408880278800007
O	2.1902991495672	-7.093235778994	-3.9316474278800007
O	-1.0733297804328001	-9.095212188994	-4.72420679788
O	-1.3104369404328	-10.268591988993998	-1.1117309478800004
O	-0.4400170344328002	-6.982680078993999	0.5389038061199996
O	-1.5539303604328	-4.098695658993999	-1.7155802078800004
O	-2.6513245704328	-5.398905828994	-5.14622256788
O	-6.3997034404328	-4.892885608993999	-5.40946104788
O	1.9818870995671998	6.801785041006001	9.948884242119998
O	0.3391799057071998	3.509371621006	12.610824942119999
O	3.6891641295672	2.1434825180060004	11.441219942119998
O	5.3734233595672	2.0643603720060004	14.854862942119999
O	-8.4250620504328	0.5593819180060005	7.101994182119999
O	-6.227383480432801	3.1627019710060003	5.35607190212
O	-4.3822859404328005	2.351194871006	2.1496552121199994
O	-0.003533863432800155	3.472792551006	-3.3025128278800007
O	-0.46938580843280014	7.717037341006001	-6.64474233788
O	-3.6425281204328	6.815835491006001	-4.7396301878800005
O	-5.170052710432801	7.313393221006001	-1.3046205798800004
O	-8.0913380104328	5.381764561006	0.14307886111999946
O	-10.020728410432799	4.7400453610060005	3.3458838421199992
O	-3.5574204804328002	11.155293161006	-5.19679788788
O	-1.8348217304328003	9.865132531006001	-2.0281652578800005
O	-2.6997473204328	12.486168011006	0.6672397621199996
O	-2.2561685104328	12.335508711006002	4.5107477521199995
O	-4.152662600432801	9.562757801006	6.3036425521199995
