23

O	75.63062262223855	4.934810372172084	29.983939371132422
O	76.33863627090825	3.1258725878289346	28.713878879004035
O	78.05852201660714	4.295120905723336	30.04898125727358
O	78.03952714347191	5.370656415755079	28.97773454256279
O	78.56748325469997	6.362219441131558	30.19052185457743
O	78.5854126976677	7.753586540404749	29.80657106223445
O	77.72922383362042	6.436530958710697	31.46364455055703
O	80.26647080919525	6.003221894874878	30.28890696970403
O	80.83431108728584	6.698853029336901	31.30087317063264
O	81.76376428911128	6.178846498204875	32.256836431765954
O	82.08159970920843	4.791911569799181	32.425712993517294
O	83.5341906834019	4.561664681620868	32.499214880428624
O	84.5296294378339	4.574405957390476	31.614054781121247
O	85.32557951216782	3.539375925694793	31.742429563395174
O	85.10021996049201	3.0753787379137236	32.94896057974087
O	83.92024099609576	3.539465055208543	33.334779105743394
O	81.23901445911288	4.118261512119864	31.512895314895935
O	80.57871590114232	4.648550535626832	30.34317157170516
O	80.73043754535297	4.057456070487374	28.999268167162814
O	76.57527970856617	3.844246292100595	29.941444812169102
O	80.38850104442538	4.812828298932942	27.948567729534712
O	80.43816697260546	2.758155574518679	28.726754066493832
O	82.15249876768289	4.031125627751204	28.778201951981917
