79

O	2.7160380691200006	-4.121552581958	-2.412106323564001
O	0.5599656191200004	-0.5272529719580002	0.28850052643599877
O	-0.2115713488799994	-1.2947336819580002	0.9834088064359987
O	1.2565958091200005	-1.6262006219580003	-0.4842906775640011
O	2.0061367491200004	-0.9702661319580004	-1.4960095095640011
O	0.13987092612000057	-2.507778421958	-0.8476367925640012
O	-0.37567330687999945	-2.6922162019580003	-2.444529623564001
O	-2.0261846108799992	-3.2797935519580004	-2.1514929865640013
O	-2.2400096208799996	-2.8284653219580003	-0.6986632995640012
O	-0.9784082658799994	-2.8801344619580003	-0.0822219535640012
O	-3.2287056708799993	-3.887879261958	-0.24769902556400114
O	3.4238563691200006	-0.8338014119580004	-1.269008806964001
O	3.86002915912	-1.6804048119580004	-0.4652820105640012
O	4.335214709120001	-0.7393869839580003	-2.419837463564001
O	5.740425239120001	-0.7370758909580003	-2.3430508835640014
O	6.177484109120001	-0.8420418919580004	-3.593444003564001
O	5.285871429120001	-1.5707017019580003	-4.224297953564001
O	4.113391499120001	-1.5549174019580003	-3.529741583564001
O	6.565125299120001	-0.7776612669580003	-1.0821188665640011
O	2.7882297491200005	-2.0102303919580002	-3.983856623564001
O	2.6106081391200004	-3.3910293719580005	-4.020098293564001
O	1.7211539691200004	-3.9968642819580005	-4.908241913564002
O	0.9948376791200004	-3.222106951958	-5.806736803564002
O	1.1707670791200004	-1.8408796319580003	-5.7295863435640015
O	2.2063257491200003	-1.2889031719580002	-4.977173843564001
O	-3.2902540708799997	-3.0008953419580005	-2.8160966035640014
O	-1.8544000408799994	-4.745327411958001	-2.1315694965640013
O	-4.24030569088	-3.992910031958	-0.9659900815640011
O	-3.4425210408799995	-3.896887621958	1.1359893564359989
O	1.1516690691200004	9.399168758042	-3.5458315735640014
O	-1.5436737208799995	7.945256828042	-1.2842902703640011
O	0.1670505991200006	4.626677478042	-0.7805654015640011
O	-4.34481005088	5.103570968042	2.251614136435999
O	-1.5409279408799994	6.617134058042	4.453114326435999
O	-2.3619989108799992	3.8384393580419998	6.983492926435998
O	4.492666969120001	-10.429878671957999	9.929086216435998
O	5.348573989120001	-10.043443771958	6.208294596436
O	3.6558160691200006	-7.813091491958001	3.628622696435999
O	6.974805649120001	-5.958912401958	3.0932188164359986
O	9.90679094912	-5.249518171958	5.284227486435999
O	12.81483134912	-6.794095001958	3.2814851664359987
O	-2.4652042508799994	-10.829414971958	7.264790776435998
O	1.3031026791200004	-6.147816401958	6.138088116435998
O	5.810335609120001	-4.548668711958	8.636391666435998
O	4.389881899120001	0.2595592099419997	10.088530916435998
O	3.3399043191200004	8.309385848042	-11.087645433564001
O	8.13924415912	7.254544338042	-11.140619183564002
O	7.960808889120002	8.348176378042	-7.503698833564002
O	7.896303459120001	5.973167938042	-4.514659353564001
O	8.88362273912	2.2483537080419995	7.837263446435998
O	7.742298859120001	3.9073880580419997	4.608263366435999
O	6.419347969120001	7.0201547780419995	6.345578926436
O	4.375142029120001	4.864646938042	8.735324636435998
O	3.0063484491200003	2.493954238042	6.1527612664359985
O	2.7268046491200004	4.273367098042	2.758849806435999
O	4.497591599120001	7.567063158042	2.799116966435999
O	1.8346150791200007	10.304438528042	2.6139719464359987
O	-5.660204740879999	-8.419276411958	-3.651227503564001
O	-5.914436100879999	-12.147456871958	-4.149919503564002
O	-7.366824850879999	-8.608657851958	0.5644249764359988
O	-3.7064550508799994	-9.731160451957999	1.0009653064359987
O	-4.513676060879999	-13.304326771958	2.0592847564359986
O	-4.494670630879999	-14.593815671958	5.637811526435998
O	-7.964183700879999	-14.904684371958	7.1892046164359975
O	-12.85849825088	2.6410140880419997	3.2302772364359984
O	-9.24780258088	2.012351628042	2.1969108264359987
O	-7.481080290879999	1.2451995680419996	-1.0900794495640012
O	-3.9119609608799997	2.3618254280419997	-1.6364375845640011
O	2.4875531991200006	2.844683888042	-5.043572503564001
O	2.8736252191200005	4.564277948041999	-10.125178483564001
O	-0.2869482278799994	5.667149838042	-8.300891193564
O	-3.7210576008799996	4.360668958042	-7.413990443564002
O	-6.084735300879999	5.7352436080419995	-4.813048543564001
O	-9.25118475088	4.898766658042	-2.8985243335640014
O	-1.3498792698799995	5.230229808042	-12.525396183564002
O	-1.7667320808799996	2.0648099080419997	-10.413516933564
O	-4.919610460879999	0.32300739404199974	-11.795394983564002
O	-6.912568610879999	-2.6796325119580002	-10.327355223564002
O	-8.52961105088	-2.099825871958	-6.929124533564002
