65

O	-4.66525708568	0.16094379764000055	2.6790861702000006
O	-1.03007196868	5.448400627640001	1.5162127202000004
O	1.2951042743200003	5.10104275764	1.4142173302000005
O	0.021061181320000122	3.272680147640001	0.42583266320000057
O	-0.16462717167999985	3.6568986476400003	-0.9375251797999994
O	-0.9458111346799999	2.6272132266400003	-1.4232657397999993
O	-1.1517181076799998	1.7185830262400006	-0.5449171217999994
O	-2.5280257856799997	1.2497672726400006	-0.1664242717999994
O	-3.56217075568	2.2769013916400005	-0.2980393837999994
O	-3.71102257568	3.042563477640001	0.9274362602000006
O	-3.09927785568	2.4757305066400006	2.0756934502000006
O	-3.40734665568	1.1023133526400006	1.9843578802000006
O	-2.73004824568	0.5404734976400005	0.9597406832000006
O	-0.09232940867999984	1.9703511296400005	0.29391984230000057
O	-0.03324300367999988	4.448033627640001	1.4452219302000007
O	0.2526156243200002	-5.892503812359999	6.331083410200001
O	3.32730401432	-4.698084842359999	4.4424345702000005
O	1.7679695843200003	-1.7046417123599995	2.6843775802000005
O	6.95834486432	-2.75569715236	1.1427021702000006
O	4.84215762432	-4.93315261236	-1.2011105597999996
O	6.22284815432	-2.756931602359999	-4.022867949799999
O	9.56374675432	-4.5617346123599996	-3.5295876597999993
O	-1.20791936968	10.13151353764	-9.1727684898
O	-0.20036319367999988	8.82384751764	-5.764962649799999
O	-3.5177063556799997	6.95699815764	-5.441288709799999
O	-5.88439039568	5.51190059764	-7.9706036898
O	-9.202899715680001	7.34684782764	-7.338963709799999
O	-11.38328884568	5.36090621764	-4.8965140497999995
O	6.62585430432	11.12336799764	-8.2446748798
O	2.69438864432	6.636660277640001	-7.025674199799999
O	-1.08784884268	4.18038040764	-9.9435691598
O	2.35440154432	3.9444146776400006	-11.5329686598
O	0.6090032543200001	-0.7181305523599995	-9.6251595698
O	-1.4466869076799997	-13.16010596236	-7.4224028097999994
O	-1.8523152056799999	-11.23763486236	-1.0965488997999993
O	-3.8435357456799997	-3.0367665723599995	12.5163241402
O	-8.50885628568	-2.2821309623599992	11.0559438402
O	-7.3773944156799995	-4.255180072359999	8.0215017302
O	-6.5471693556799995	-2.9749654123599996	4.611796120200001
O	-9.550108735679999	-2.1034836823599994	2.3809941602000007
O	-9.86881587568	-3.4627319723599994	-1.1684310897999994
O	-8.86425980568	-1.0790396623599996	-3.9087771397999993
O	-7.83023745568	-0.9452975423599992	-7.547332689799999
O	-4.32186477568	-2.2960072523599995	-8.0845939698
O	-4.00794007568	-2.942070222359999	-4.336916289799999
O	-2.3410906256799997	-6.37947292236	-4.883421139799999
O	0.2755410743200002	-4.724568832359999	-7.109332499799999
O	0.8992704743200002	-1.6555299223599995	-4.959258379799999
O	0.3460342543200001	-2.6371644923599993	-1.3302473297999993
O	-1.34592619868	-6.0156090323599996	-0.9792469197999994
O	1.1912276243200002	-8.334856562359999	0.6254672102000005
O	6.0719652043200005	11.80819773764	-1.8159317197999996
O	7.219208494320001	15.00901543764	-3.5448030297999997
O	11.71700065432	0.47789777764000063	1.6012314202000004
O	9.19574535432	1.9589997186400006	4.0092562002
O	5.61376512432	0.7285566766400006	3.9424853202000003
O	-1.3404135876799999	0.7912689166400005	5.704049490200001
O	-3.16327483568	0.35785650764000065	10.761639540200001
O	0.37151276432	-0.9195659223599995	10.1132939402
O	3.90697636432	0.3780674276400007	9.7885831802
O	6.86208367432	-1.4635911623599993	8.3189543702
O	10.451237454320001	-1.0437487523599995	7.144724530200001
O	0.26031603432000017	0.7313439866400006	14.1568374402
O	1.21796080432	3.229194507640001	11.4642825402
O	3.8758268843200003	5.4831627676400005	13.0799949402
