71

O	-3.9244425707450983	2.405978247333333	-3.252272677745098
O	0.5222505892549016	-0.16253233866666683	-3.202655817745098
O	1.6269388492549017	-1.3828763986666668	-1.347458704745098
O	-0.8866686157450983	-0.48792252866666663	-1.0550563977450982
O	-1.4487578657450983	0.7891821793333331	-0.709756078745098
O	-2.797587620745098	0.8802756713333332	-0.20551999774509805
O	-3.5526235907450987	0.19549694133333317	-0.905125433745098
O	-3.477786320745098	1.9174994303333333	0.5857622022549019
O	-4.589107320745098	1.5660169103333332	1.392972722254902
O	-4.843185970745099	0.26566995133333315	2.062231552254902
O	-5.147645460745098	2.6890112813333333	1.734160702254902
O	-5.058414510745099	3.468063021333333	0.683011652254902
O	-4.048715000745099	3.0075741713333333	-0.13075943574509807
O	-3.3215567507450983	3.907166501333333	-1.0402142817450981
O	-3.067893250745098	3.6395818613333333	-2.382868597745098
O	-2.5631609107450983	4.637826561333333	-3.239796747745098
O	-2.2584061447450985	5.900881391333334	-2.746270747745098
O	-2.3374718207450984	5.993734531333333	-1.360429884745098
O	-3.342801680745098	5.282565341333333	-0.767787610745098
O	0.4649171892549018	-0.6102856586666667	-1.799484007745098
O	4.652374799254902	5.072654081333333	6.345681112254901
O	6.037337269254902	2.5571484373333333	3.816629932254902
O	2.748870989254902	1.4371958493333332	2.360609432254902
O	6.932065949254903	-1.4529643686666667	0.43409970925490193
O	5.880085269254902	-3.3063626686666665	3.630766002254902
O	5.156232429254902	-6.304371558666666	1.366217342254902
O	-8.377153580745098	-11.952831888666667	-5.018905217745099
O	-9.289156400745098	-8.254245278666668	-4.733789697745099
O	-6.891175630745098	-5.3088794486666675	-4.468359587745098
O	-8.421832400745098	-4.397163478666666	-1.1002067457450981
O	-10.1265545707451	-6.366029258666668	1.6109346822549022
O	-13.582118950745098	-4.6850659786666675	1.864586612254902
O	-13.5588147507451	-1.8897149886666669	4.468510892254901
O	-3.464553700745098	-9.308047688666667	-9.994384127745098
O	-3.7212871707450983	-7.418939008666667	-4.191121657745098
O	-6.059901080745098	-9.555739388666668	0.16323362725490187
O	-1.9101953677450982	-10.033224088666667	3.249183212254902
O	4.105677989254902	-1.8745709586666668	12.559012402254902
O	1.391088949254902	12.278243111333333	5.754141992254902
O	-3.0481254607450983	12.149732211333333	7.891261762254902
O	-1.8749770847450984	8.758316121333333	9.111359552254903
O	-2.9263048507450984	5.385100731333333	7.641889722254901
O	-6.191117670745098	4.049401151333333	9.108506972254903
O	-4.542412910745099	-7.436725958666667	7.199480602254901
O	-3.008791670745098	-3.968335538666667	7.335777652254902
O	0.1238355692549018	-5.094977718666668	9.158837452254902
O	0.6957319792549017	-7.803352158666668	6.539200882254901
O	0.003326649254901781	-5.676702658666667	3.463084132254902
O	0.9413331892549015	-2.0703239386666668	4.205262482254901
O	1.5729086092549018	-1.5126208586666667	7.9014336622549015
O	5.295050729254902	-0.820393538666667	8.309151412254902
O	-0.9328566967450983	1.8886700673333332	-11.577848597745097
O	0.8581202192549016	-2.232653468666667	-12.103876797745098
O	-2.659613700745098	-2.916341188666667	-10.783195097745098
O	-3.9943090307450984	-4.6336548786666665	-13.912994897745097
O	-4.324756350745099	-8.388058088666668	-14.391305597745097
O	12.314429349254901	-2.842272498666667	-6.510739297745099
O	9.001187149254902	-1.9555561786666669	-4.921771357745098
O	6.713488489254902	1.1027958463333332	-4.916460737745099
O	4.592656089254902	1.8725025783333331	-1.9169576077450983
O	-0.5921047767450983	5.349840281333333	1.7958984422549022
O	-0.41099565974509833	10.679162331333332	2.715468742254902
O	2.9241003292549017	9.047113481333334	1.8525010822549022
O	4.870628049254902	7.899067531333333	-1.185709021745098
O	7.910707319254901	5.628518471333333	-1.1818625637450981
O	10.201317749254901	3.600713751333333	-3.4383744777450977
O	2.999225819254902	13.113372411333332	0.23450191325490188
O	1.631697959254902	10.471276741333332	-2.140865957745098
O	2.8126579092549022	11.449755711333333	-5.647173317745098
O	2.7399614592549018	9.439878121333333	-8.954654367745098
O	4.803011209254902	6.229659701333333	-8.996666687745098
