20

O	81.67082623334682	6.7046873904576305	29.6105034840597
O	80.97771409722144	7.8496017739180655	34.95645367456047
O	82.09652192718643	7.626789558565557	33.94697875936598
O	81.98961678531312	6.637804905505267	32.92310149192493
O	83.24180563456446	6.59422014359691	32.264492641238085
O	84.0824589457123	7.32196274027834	33.050038090770514
O	83.3599751187878	8.043025966347448	33.893995740622174
O	83.56876127129492	5.678970568167801	31.172616646105666
O	84.71054421135864	4.945364735106839	31.35423869841981
O	85.36703428546765	4.382221099725671	30.29519495883944
O	84.89460828037515	4.526035097371807	28.996050058896262
O	84.02032955947082	5.554145799073975	28.771105562583934
O	83.21836596405417	5.929905760560464	29.850356639819218
O	81.17363759485725	5.439349894349845	33.26969208465302
O	81.30260599009229	4.484235648305943	32.50332313201525
O	81.11524130466347	5.117454789295911	34.67943992167745
O	82.39374502474189	4.523180839083874	35.25083049386414
O	83.04829467951356	5.575052448979731	36.12090069239699
O	82.99206839181608	5.229778558061742	37.30179021206746
O	84.3417493633864	6.049450105475672	35.84508062245393
