10

O	81.90496380408636	4.261966300849605	29.722878433282375
O	77.70523191006008	2.3393073224432217	28.519803145795237
O	76.62221397865514	3.1614074454531647	26.54924164131826
O	76.74171787661663	4.533206690119357	28.750782568732344
O	77.82431585848674	5.1135802056406146	27.93849646458919
O	79.19437728632086	4.926989368441644	28.63983895543523
O	79.58319546462498	6.18255934576735	29.459631304644265
O	79.05551472552641	4.034146938169626	29.884817967574154
O	80.88759780199481	4.864879874853179	28.258353186987243
O	76.57440447911809	3.116110872450494	27.99032199867658
