22

O	84.99987406735555	5.267050684142651	32.23253516731794
O	84.45274475334467	4.286963716852189	33.015150162879245
O	82.43374246880684	5.4048680148222505	32.89100162843988
O	83.28215150057493	4.629666506257594	33.63038036909284
O	80.95239119041744	5.273198815726234	32.81422234803047
O	80.20829862727429	5.799149663269814	31.657389714766737
O	78.55104851637996	5.3018364385651555	29.624521523666075
O	78.99518636906764	5.594235247624626	28.254255574769445
O	78.40283240611434	5.170051702923904	27.050422097057847
O	79.25254610595172	4.889373873473403	25.943336312185195
O	80.29735787149589	5.596137836372755	28.03511464361736
O	81.06953016091533	5.958438282125258	26.913436233015453
O	80.4106760468153	5.677417077867091	25.779850692239364
O	82.32860544793313	6.618670184378498	27.30861963440608
O	79.2875240732705	5.123320493277435	30.791183650969977
O	80.3613832515051	6.982693643653128	31.196714106143492
O	76.24966760999216	5.168315748164441	28.5314467458298
O	77.49112933462375	3.4003393282640957	28.25707404555029
O	83.0217456128532	5.939975385951068	28.152951197135284
O	82.3034500956594	7.964404676293459	27.74587675681254
O	83.55959150879221	6.09692052340999	31.781935331425885
O	77.2592944370257	4.393821439345722	29.339113764313016
