19

O	84.38268737912968	4.976066943041923	32.39990410049707
O	83.8986505852693	5.041106423896765	33.70426148089456
O	81.82583127498607	5.363378717478323	32.899914177417806
O	82.5971493406437	4.641625855677978	33.80852981164995
O	80.36739373776301	5.044565215483294	32.74750979006412
O	79.69137876726056	5.591687916331518	31.5647405341454
O	78.35092528175984	5.087039265352862	29.391623040034027
O	79.26645847586127	5.373976914722021	28.228511639587794
O	80.4351368372516	6.061015465081274	28.530709151975586
O	81.73921633212254	5.617097869708186	28.23427537325358
O	79.46294511451737	4.490736562592995	27.192536256541825
O	80.76385155710547	4.122779240563862	26.76288058648277
O	81.81213906826284	4.965789865241467	27.01260737755751
O	78.8781450278512	4.815156134483654	30.677184622032364
O	79.6863436718931	6.82687679643655	31.27289526416062
O	75.90143085310447	4.379258456955949	29.04169440912041
O	77.4915095579868	3.4054274896551293	27.557737203384967
O	82.91971400163006	5.356071065323231	31.55439612303971
O	77.29012564755388	3.9849035881596166	28.913814910889688
