24

O	77.94259949348925	5.208119401870051	26.427289848364957
O	77.92750118351024	5.891189244709135	27.59589782957734
O	82.35623080729604	4.5465172457376255	32.49064288035411
O	81.22193764786522	6.323753161584926	32.1328736174692
O	83.68808871194966	4.967636161125454	32.28319005177431
O	82.46051388650788	6.924317658493636	31.78011112431118
O	80.00633922052808	3.827125146085441	32.345588002660776
O	79.63012689017063	4.968519352624493	31.540164437512527
O	80.46923838383721	4.416566455266624	33.643400193035916
O	84.3135700052732	6.39115226494842	30.320626964594123
O	80.78716709344421	4.430536528388838	29.10935760760035
O	81.48913870489177	5.403148043928085	33.160554801382034
O	83.64037479602833	6.186112430465972	31.61519376555772
O	78.42525670956582	5.175281507922302	28.704235526172063
O	79.54159794935823	4.451718818566879	28.38077045897732
O	78.28603796063084	5.1701905424330645	31.688497355132185
O	84.65166427025132	5.347707067292948	29.740464525358256
O	81.62800265390399	5.339055917396295	29.16534257140992
O	76.37912305985299	6.007674220068365	30.268366041637808
O	78.52036118032649	7.218821439146831	30.291817598493573
O	83.70407503691204	7.294886733258767	29.431624953588653
O	81.51147106898743	3.3427887990066356	29.622311828436708
O	79.27974756144226	4.1548578401436185	26.692105364886984
O	77.85263512756005	5.845495996569845	30.19905150986523
