65

O	-2.38055754472549	-0.8198376628431375	-0.8141013583411763
O	-1.5979751627254903	-1.5463274828431377	-1.7783457513411762
O	-1.4660498107254902	-1.0398254628431376	-3.164010711341176
O	-1.8265241547254902	-3.0441627128431374	-1.9895643413411763
O	-2.9221691847254903	-3.1115524528431378	-2.880120171341176
O	-1.7002934357254902	-3.7428740428431375	-0.7056809363411762
O	-0.7026337616254903	-2.704885792843138	-0.01144268634117629
O	-0.2906565357254903	-1.7969965728431379	-1.0889959843411763
O	0.7251656852745096	-0.7786733128431375	-1.3156770773411761
O	1.91993065527451	-1.2528990128431379	-1.5326043043411763
O	0.5112454252745098	-0.1725178798431375	-2.6185052313411763
O	0.22742833527450967	-2.7498302628431377	-2.0690433413411764
O	-0.6738830317254902	-3.204031112843138	-2.951554161341176
O	-0.5741648797254904	-2.8592775928431378	-4.175598161341177
O	-7.1105775747254905	7.186879717156862	0.4500746066588237
O	-3.69871168472549	6.780996167156863	2.081864648658824
O	-2.9573911447254906	3.1783615171568624	0.9216859086588237
O	0.7619996352745098	5.2983861471568625	4.4608133586588234
O	-1.8920345847254902	3.6753789071568623	6.7157025486588235
O	0.8331276252745097	1.2810805091568624	7.925763228658823
O	2.4519004852745097	4.2212812271568625	9.743967778658824
O	4.43487518527451	-13.882646952843137	4.151269098658823
O	2.85494803527451	-12.759447352843138	0.8494890986588238
O	2.49897492527451	-9.215305852843137	-0.3539859023411763
O	-1.3032493177254902	-9.637009452843138	-0.5536020629411763
O	-3.7302775347254906	-11.772509552843138	1.3546214386588238
O	-5.44828678472549	-13.882636052843138	-1.3640358243411763
O	9.65761509527451	-8.861845802843138	2.161616218658824
O	3.7493301252745104	-7.5470295828431375	2.871403718658824
O	-0.3534753187254903	-10.120387552843138	5.179981098658824
O	-1.8311502347254902	-6.482076082843138	8.567630978658825
O	-9.59688432472549	8.064508567156862	-7.040118421341176
O	-12.885838204725491	4.535410527156863	-7.975728291341176
O	-12.69845930472549	4.015196897156863	-4.217512061341177
O	-10.83478040472549	1.2578390431568625	-2.419419291341176
O	-6.93203001472549	-6.976522482843138	6.834581818658823
O	-7.54528169472549	-3.8878927028431374	4.722726128658824
O	-8.060618394725491	-1.6208414128431379	7.763921228658823
O	-4.718765724725491	-2.776370642843138	9.179455188658824
O	-2.70184019472549	-2.5946388828431375	5.961485298658824
O	-4.151799014725491	0.12141889915686244	3.7518853086588235
O	-7.51566352472549	1.3345158021568624	5.039189558658824
O	-7.0317138147254905	4.906420247156863	6.270711208658824
O	8.53139485527451	-1.1631714528431374	-6.533154061341176
O	11.04121769527451	-3.2940976928431374	-8.439227881341177
O	10.67692089527451	-1.8088137828431377	-2.6203733813411763
O	8.738602095274508	-5.043228162843137	-3.0601979813411764
O	11.726705395274509	-7.354430742843137	-3.4315588213411763
O	13.14067979527451	-9.584161952843138	-0.7028340713411763
O	16.33274299527451	-8.225897672843137	0.8703221086588236
O	9.095209565274509	8.259606397156864	5.0667168686588235
O	6.40229626527451	5.9982127071568625	3.540773798658824
O	4.88307871527451	5.741031967156863	0.09638824965882375
O	1.2998739952745095	4.566733007156863	-0.26736192534117625
O	-4.691540914725491	2.5031790671568626	-3.839800041341176
O	-6.92731554472549	5.332850437156862	-7.716565501341176
O	-4.669076164725491	7.245069147156863	-5.303777571341176
O	-1.0082191867254904	8.004227137156862	-4.7328494913411765
O	0.5074169952745098	9.429468717156862	-1.565776221341176
O	3.81256088527451	10.090267387156862	0.1625409776588237
O	-4.34430649472549	9.151311497156863	-9.221460001341176
O	-1.8154470447254902	6.408560797156863	-8.591010501341175
O	1.4358010852745096	7.561599407156862	-10.264901001341176
O	4.99859497527451	6.078757197156862	-9.974114311341177
O	6.5888668252745095	6.262412777156863	-6.507216851341176
