76

O	-3.2686861426060005	-4.27460148606	0.80597437038
O	-4.235822582606	-3.2778946160599998	0.9421146803799998
O	-3.5328992826060004	-2.2093597960599998	1.5145110703799998
O	-2.274902806606	-1.8632563560599997	0.87923625038
O	-1.6233801706060003	-2.86874321606	0.14155872437999983
O	-1.8878689816060001	-4.0578702260599995	0.7433954303799999
O	-1.1569415106060004	-2.27741701606	-1.1520639036200002
O	-1.6466391536060003	-0.9167426760599998	-1.34960282162
O	-1.9201270126060002	-0.6509984540599999	0.050728480379999885
O	-2.581685390606	0.3044345599400001	0.38734855337999985
O	0.031778097393999616	-2.4575408460599997	-1.3965242996200002
O	-2.300736783606	-0.34411625405999985	-2.46711595962
O	-1.7980838176060003	0.49471671494000014	-3.5030757496200002
O	-2.533354991606	1.4791462639400001	-3.89515875962
O	-0.7642660326060002	0.31995559694000014	-4.43307429962
O	-3.747525622606	-0.5120572950599999	-2.6877148596200002
O	-4.804836412606001	-0.3477061190599999	-1.7295545996200001
O	-6.111577672606	-0.6255234920599999	-2.24842156962
O	-7.185744612606	-0.8394095090599999	-1.34287588762
O	-7.114988902606	-0.25413642705999984	-0.08242004862000013
O	-5.823732022606	0.13394902454000013	0.27442125437999987
O	-5.131009792606	0.6635587599400001	-0.8673740916200001
O	-5.338046932606	-3.14544103606	-0.04963647262000015
O	-6.442390532606	-3.30842087606	0.48872060038
O	-5.215549852606	-3.41214075606	-1.3842435706200003
O	-8.037284862606	-0.6901011470599999	0.8762136403799998
O	1.7442304173939998	3.57910414394	8.33672150038
O	3.152246277394	4.7851625139400005	5.00424333038
O	1.7779623173939996	1.8660887139400002	2.90391766038
O	5.033132907394	5.317128303940001	0.0737783313799999
O	7.446138477393999	2.7263187339400003	1.5869642003799997
O	8.325673727394	1.7709487339400003	-2.01847885962
O	3.4543214373939994	-10.18292009606	-11.619986129619999
O	0.3656222373939997	-9.73422274606	-9.36209217962
O	-0.5582348426060002	-6.69718690606	-7.4050066996199995
O	-0.44653954260600015	-8.73974674606	-4.178035379620001
O	1.4271277473939996	-11.80006369606	-3.12834765962
O	-1.3350696316060002	-14.35646829606	-2.2925188596200003
O	-2.207608365306	-14.23658909606	1.42621743038
O	1.3944564073939998	-3.3095857460599998	-13.92107552962
O	2.676853357394	-4.74306913606	-8.12993426962
O	5.142688627394	-8.94168324606	-5.793741989620001
O	-5.419059072606	3.41355376394	11.68274287038
O	-9.196968402606	3.49005882394	11.331644970380001
O	-6.394611402606	-1.3017652160599997	12.89353337038
O	-2.659165984606	-1.73084988606	12.25917587038
O	-1.2511783036060002	-3.37736848606	9.09632283038
O	-1.1095927626060003	-7.19787438606	9.22614055038
O	7.474879577393999	-9.07112612606	1.35886004038
O	5.549203837394	-6.54295536606	3.4752225203799996
O	8.700607827394	-4.77203817606	4.6740685203800005
O	9.862423527394	-4.34834269606	1.0740367703799998
O	6.551036047394	-3.24348007606	-0.3753879156200001
O	4.5122063773939995	-1.4370441460599999	2.3126095103799997
O	6.100523187394	-1.8558844060599997	5.75351959038
O	7.461894307393999	1.5508767839400002	6.784415300379999
O	-6.6576788726060006	3.41075066394	-8.80053728962
O	-2.979986173606	3.57326892394	-11.31130292962
O	-3.4974162726060003	-0.18370638205999984	-10.866955129619999
O	-4.250319362606	-0.9500008560599998	-14.52962622962
O	-1.8079202946060002	-2.3881545860599998	-17.04885742962
O	5.046624237394	11.52911950394	-6.18423386962
O	3.6837120773939995	8.41382469394	-4.57004149962
O	0.3628069373939997	7.46303312394	-2.99239308962
O	0.21174191739399983	4.89285187394	-0.2587398446200001
O	-3.005151144606	0.49431864294000016	4.252230540379999
O	-6.444428752606	2.22792899394	8.089433380380001
O	-4.104954332606001	4.9192110839400005	6.77822988038
O	-3.755054012606	7.24864447394	3.8059973903799995
O	-0.6341511526060002	9.03796835394	2.69373200038
O	0.8255940973939997	11.00009710394	-0.18710846862000013
O	-7.904627452606	6.85491567394	7.69933988038
O	-7.634112462606001	5.53819724394	4.12967220038
O	-9.434323812606	8.18290739394	1.9303804803799998
O	-9.478666932606	8.63094748394	-1.9573469296200001
O	-6.116888552606	9.22490075394	-3.70140273962
