68

O	0.19209799697254898	1.3737069492196075	-0.7309313647647062
O	1.4457994399725491	0.8221717992196076	-0.8303394277647063
O	2.0880574999725487	1.1774643632196076	-1.9298764927647063
O	0.9505788599725491	0.8867655132196075	-2.643815662764706
O	0.04141471197254898	1.8457008792196075	-1.9647508027647063
O	3.099365139972549	2.3056968042196075	-2.050944332764706
O	3.389390039972549	2.9510215622196077	-0.721620658764706
O	4.756682459972549	3.4045678122196072	-0.8096256617647062
O	5.151140489972549	4.6085249022196075	-0.25525015216470615
O	6.431461339972548	5.115424552219608	-0.09589072676470616
O	6.500492719972549	5.815055522219607	1.2333793872352938
O	5.698609089972549	2.6070179022196074	-1.1035743957647062
O	7.538246229972549	4.119709492219608	-0.30763637176470615
O	6.621756719972549	6.198315772219608	-1.1598510767647061
O	2.8415523099725486	3.5125775322196073	-2.911910452764706
O	1.472883339972549	3.6410028922196074	-3.499950702764706
O	3.188893559972549	4.832587302219608	-2.293991382764706
O	2.965039689972549	-4.211526557780392	7.804125297235293
O	-0.576731956027451	-3.0895465177803927	6.891861947235294
O	0.170106990972549	-1.8552551977803926	3.442217247235294
O	-5.179523780027451	-1.7781940177803923	4.604000077235294
O	-4.564757940027452	-5.304823537780392	3.181139667235294
O	-7.013892310027451	-4.372568097780393	0.38423667223529384
O	-4.7665046900274515	0.6878641772196076	-14.680903842764707
O	-1.547642430027451	2.0115993932196075	-13.089568942764705
O	-0.950730798027451	2.6945808122196073	-9.434896072764706
O	1.941043279972549	0.15801637221960751	-9.434088592764706
O	2.602390419972549	-2.9746801277803923	-11.498413642764707
O	6.012261459972549	-2.2959767377803924	-13.143234142764706
O	8.865071229972548	-3.788770637780392	-11.039952342764707
O	-7.934574310027451	5.740985872219607	-10.176489322764706
O	-4.288372630027451	1.2463876182196074	-8.209560852764707
O	-2.638880190027451	-3.323005917780393	-10.509747742764706
O	-4.398482680027451	-6.776095887780391	-7.038442612764706
O	0.9447913399725489	-12.565019697780391	4.209223087235294
O	9.686865749972549	-0.3908279377803925	9.606807257235294
O	13.18789903997255	-1.8459691377803926	6.436658827235294
O	10.62330923997255	-4.502505377780393	5.562907487235294
O	8.455147449972548	-4.554062537780393	2.462283157235294
O	10.14340003997255	-6.088975627780393	-0.6258270757647062
O	0.499873785972549	-9.068272397780392	-6.777833932764706
O	1.9639003299725488	-7.844707297780392	-3.469858102764706
O	-0.044546104627451025	-10.370099297780392	-1.4090610027647061
O	-3.2571732100274513	-9.147319397780391	-3.073299292764706
O	-2.538682710027451	-5.413092407780393	-2.859950322764706
O	-0.381248098027451	-4.7053136177803925	0.18959700623529385
O	1.018886059972549	-7.880592337780392	1.6426044072352939
O	-0.678235979027451	-8.418961297780392	5.010193397235294
O	-2.506245610027451	11.386185732219609	-1.6157299227647062
O	-6.681162800027451	10.051999102219607	-2.851176312764706
O	-4.455121980027451	8.962902592219608	-5.765912552764706
O	-5.988782890027451	11.253542572219608	-8.401390542764705
O	-8.508031250027452	10.195751302219607	-11.051209742764707
O	-12.155956660027451	3.3811998622196073	6.642631397235294
O	-8.862263550027452	2.6720911822196074	4.907825257235294
O	-5.364750390027451	4.164268572219608	5.042984697235294
O	-2.2676737100274513	2.0475885952196076	4.308003507235294
O	4.724387659972549	0.6031820282196075	3.200988977235294
O	8.553213249972549	1.9269730212196077	6.715320337235294
O	5.029720099972549	1.6632195650196075	8.158265327235293
O	1.862380139972549	3.7323509422196075	8.423703037235294
O	-1.587511290027451	2.4616202362196073	9.337470197235294
O	-5.258879340027451	3.4260823922196075	9.496573587235295
O	7.120178469972549	4.761109572219608	10.403764857235293
O	5.251800009972548	6.025399162219607	7.348935747235294
O	3.792733029972549	9.458320632219607	8.337412887235294
O	1.219409889972549	11.682144802219607	6.445424487235294
O	-2.237449370027451	10.170795492219607	5.959387077235294
