79

O	-1.3969081759607853	-0.3132353538039214	1.7597183753784313
O	-0.5760768079607852	-1.3154375408039214	1.2152142553784313
O	-1.5195751739607852	0.8985448681960785	6.069388925378432
O	-1.1516676509607853	-5.200137780803922	-0.9434072346215687
O	-3.2791869479607856	-4.545756960803922	-1.8267580946215687
O	-6.107794217960786	-2.6949500908039212	1.2541832753784314
O	-5.571627867960785	-1.6827424808039213	0.5048236583784314
O	-5.244272447960785	-3.1604381308039216	2.2445212053784314
O	-4.755809647960785	-0.7246510048039214	1.1549165253784313
O	-4.499354527960785	-2.1750167708039214	2.870807145378431
O	-0.6760830789607853	-4.145896750803922	-2.9873656146215684
O	-1.3913236429607854	-0.12030792680392144	3.1848312253784314
O	-2.681428347960785	0.8094030081960786	5.1303122253784315
O	-4.166066807960785	-0.9516279008039216	2.3626086653784313
O	-3.899253307960785	0.032208748196078524	3.4437460553784316
O	-2.610200268960785	0.46116145019607857	3.7788203253784314
O	0.5734646820392149	-0.7320844948039215	0.47013124837843134
O	-4.634710617960785	0.2868269555960785	4.573520315378431
O	-0.3239551679607853	-2.621482890803921	-1.0074527046215687
O	-1.3946824779607854	-4.463158070803922	-3.9266935846215683
O	-1.1032264349607854	-1.2070980308039214	3.7775270753784316
O	0.41591640203921454	-4.836351770803922	-2.5209351446215686
O	-3.955899847960785	1.0969947001960785	5.350368545378432
O	-2.213415971960785	-3.3083595308039215	0.5005066093784314
O	-0.9984422829607853	-2.2455906708039213	0.19594952837843133
O	-1.2122574889607853	-3.1207024508039214	-1.9977889146215688
O	-2.084858792960785	-4.057752780803922	-1.1800131646215686
O	1.2242074020392146	-1.8392172208039215	0.22987061737843134
O	-2.0175965959607853	9.093231529196078	-2.225270724621569
O	0.2501162420392147	6.5371486391960785	-3.8886372546215684
O	0.07640092203921478	4.016731059196078	-1.1711441246215686
O	3.5690248320392146	2.5440303991960787	-5.097908794621569
O	5.6732416420392155	4.6583347491960785	-2.605456604621569
O	7.881407362039216	1.5507382891960786	-2.1450324746215683
O	7.711797972039216	-9.918194960803921	9.19914737537843
O	4.029243702039215	-8.848109050803922	9.31186784537843
O	2.0586600720392148	-7.0399622808039215	6.599391375378431
O	1.4628888220392149	-4.141642100803922	9.00525095537843
O	3.362526062039215	-2.752468380803921	11.93112919537843
O	0.8098747820392145	-3.0297802508039213	14.80217479537843
O	5.763080822039214	-12.284678260803922	2.3962095053784314
O	5.064848942039214	-6.534384100803921	4.289936185378432
O	7.229942062039216	-3.8360198608039218	8.390968695378431
O	9.593849982039215	0.03487466419607854	5.8249416453784315
O	5.589759482039215	12.666673039196079	1.9274892553784313
O	-9.831512637960785	9.565155929196079	-0.9265759946215686
O	-10.549633597960785	10.225422829196079	3.887916985378431
O	-6.796722307960785	10.788598139196079	3.9066634753784317
O	-4.187513307960785	8.283231219196079	5.055135295378432
O	7.209060772039216	3.646395489196079	9.06425420537843
O	4.443486942039215	5.213284809196079	6.977432365378432
O	6.773167682039215	7.461247849196079	5.002653825378432
O	8.964410082039215	4.466642379196078	4.1336955753784315
O	6.226505392039215	2.1179754791960783	3.2271645353784315
O	3.2093726020392146	4.0356153091960785	1.8553905853784314
O	3.6013442820392148	7.763104989196079	2.488655545378431
O	4.098517022039214	9.44360439919608	-0.8942571786215686
O	-4.293442837960786	-9.93233706080392	-2.9131424346215686
O	-5.310319657960785	-13.438721260803922	-2.0938225346215686
O	-0.00254279796078527	-11.155653760803922	-3.8407882146215684
O	-0.1159037279607853	-10.996564060803921	0.006998803378431326
O	0.4600175720392148	-14.71391206080392	0.5446097073784313
O	5.616629732039215	-17.91300856080392	-1.4731549546215688
O	5.023970922039215	-2.7430636408039213	-12.11478650462157
O	3.5228200820392144	-1.9828609808039213	-8.735534054621569
O	0.014356902039214692	-1.8070850908039215	-7.230315874621568
O	-0.7118904999607854	0.5311408031960785	-4.344551684621568
O	-4.647376367960785	3.4553799691960787	0.9684516153784314
O	-9.400676557960786	5.787876799196079	0.010589785078431335
O	-7.1034523479607845	5.487216079196078	-2.9738437646215683
O	-6.0949898079607845	3.056228399196079	-5.670329694621569
O	-3.081553907960785	3.2789663691960786	-7.940722264621569
O	-0.9970507919607853	1.2416213291960787	-10.361180504621569
O	-11.215927537960784	5.272619169196078	-4.503849814621568
O	-9.620960097960785	1.9324746291960784	-3.590765454621569
O	-10.937377877960785	-0.5419699488039215	-6.240877154621568
O	-9.787610687960784	-4.170554360803921	-7.029145194621568
O	-6.170572307960786	-4.563917750803921	-8.164220474621569
O	-6.415697427960785	-1.8106769508039213	-12.63280540462157
