14

O	82.77572312040066	6.758657372238151	34.90701141641021
O	82.03366615497873	5.785969937037601	35.63305878939523
O	81.08032526146351	5.384723921307003	34.619878372961594
O	81.67758927649335	5.561313065295204	33.282071201421836
O	82.92160732515724	6.255892067278369	33.74152148824001
O	82.43635068305937	5.191171444093113	36.89222608333343
O	83.46354289554127	5.713406978894925	37.62091703702731
O	84.01557986006091	4.786046429810812	38.367144096154036
O	83.86131035622712	3.6805765326223456	37.6351063356605
O	82.63657312346635	3.850173855996641	37.11396749286894
O	79.924852244612	5.1272688318539075	34.95655097815698
O	80.86160598303718	6.382041098576251	32.33470233533692
O	81.73161644461182	7.367007638411998	31.60121968352474
O	84.20561545003056	6.0701585911080675	32.99597690050974
