64

O	3.1042651219591835	4.039375609877551	-2.9209704020857146
O	2.4301889219591835	4.617897779877551	-1.8356111120857144
O	3.5271932119591836	2.738482259877551	-2.6081004020857144
O	1.3800689419591836	3.8171317898775508	-1.3885845420857144
O	2.4265010119591834	1.918762367877551	-2.3314876120857146
O	0.028052616959183485	0.289774849877551	-3.9799399120857144
O	0.4831888619591834	1.600196621477551	-0.9962478520857143
O	1.6826585019591835	2.457749636877551	-1.2707766380857144
O	0.5294799819591834	1.648947935977551	-3.7475243320857143
O	-0.6221882203408164	3.463974909877551	-2.4708916520857147
O	-1.7239441980408166	1.2165839418775508	-2.3365694220857143
O	2.1419071819591835	0.4697339098775508	-5.620238292085714
O	0.8802245019591836	-1.640725480122449	-5.390078312085714
O	-0.48806519704081647	2.005652102877551	-2.4385276120857147
O	1.0069855319591836	-0.2481529501224491	-5.079144612085714
O	5.739205251959183	-2.3646466701224487	5.762769107914286
O	5.331050381959183	-4.111411760122449	2.3899910979142853
O	2.761376361959184	-1.7556268901224492	0.8814688279142857
O	3.7418964019591834	-6.100383260122449	-2.2642084220857144
O	0.9726890319591835	-7.296483590122448	0.12155325591428567
O	-1.1802651210408164	-7.792506010122449	-2.9935814120857147
O	-10.326494778040816	4.023316979877551	-8.195595852085715
O	-6.714685868040817	3.7481737998775513	-7.1190042420857145
O	-7.674918148040817	4.513945199877551	-3.5019950920857146
O	-10.865534658040817	3.9306876498775507	-1.5554018920857142
O	-11.895355458040816	7.455500039877551	-0.42569386108571433
O	-10.507651058040816	8.223146809877552	3.0458957579142854
O	-6.210121308040817	0.422163059877551	-13.978149922085715
O	-6.364054968040817	0.0028260198775509338	-7.893264642085714
O	-10.397936568040816	-0.5998107001224493	-4.381542212085714
O	-8.815482868040815	-4.959440780122449	-2.0554493620857146
O	-1.1772659300408166	-7.729279790122448	9.064703537914285
O	9.175198271959184	4.376983469877551	8.112045877914285
O	5.744390541959183	7.144354119877551	10.348030677914286
O	3.705730961959184	3.959963339877551	10.155499477914287
O	0.8961648019591836	3.253789189877551	7.659404277914286
O	-2.4941025680408164	4.553992709877551	8.890786377914287
O	-5.657462128040817	2.428660416877551	9.146452707914285
O	-7.9606558180408165	2.478125581877551	6.139100137914286
O	-10.752618258040815	0.5947400898775508	4.379224087914286
O	-9.495738628040815	-2.6258467701224486	2.7710257979142856
O	-6.0056554980408166	-1.9028143601224492	4.046384427914286
O	-5.289917168040817	-5.490259820122449	5.055566117914286
O	-6.2958501780408165	-6.659368470122449	1.5676812379142857
O	-4.409019978040817	-3.9440491001224487	-0.44941057108571436
O	-1.3708771570408165	-2.992425200122449	1.5407849979142858
O	-1.4309623890408165	-4.233171340122449	5.117263407914286
O	1.3528705119591837	-6.796237490122448	5.409662397914286
O	3.986235451959184	5.359984779877551	-11.452459422085713
O	-0.8004179890408165	3.699030439877551	-12.434716522085713
O	-2.1889176380408166	4.669324439877551	-15.871946822085715
O	6.037017081959183	-6.602467060122449	-7.563799182085714
O	6.818348251959184	-3.049416550122449	-6.293556502085714
O	5.231654391959183	-1.706136350122449	-3.0730712320857143
O	3.7978465419591836	3.111005259877551	2.1699641579142854
O	7.585693931959184	5.740597119877551	4.8510635279142855
O	8.687922261959184	2.484983445877551	3.1924348579142854
O	9.764756441959184	1.2226229408775509	-0.20488639888571433
O	9.930855041959184	-2.3800998001224487	-1.2926609120857142
O	10.468565141959184	-4.670397730122449	-4.258267372085714
O	10.388759041959185	-8.39637592012245	-4.928378942085714
O	12.068100941959184	5.235799459877551	3.1411561679142856
O	9.830081641959184	5.453727479877551	0.07637213691428568
O	12.265553441959185	6.071211569877551	-2.8492436520857143
