72

O	5.536057125819999	-1.3429287463999997	4.062289764906001
O	5.108187065819999	-2.2729226263999998	3.121848304906
O	2.9781008458200002	-1.4569548363999996	3.4259306549060002
O	3.78349943582	-2.5700488063999996	3.235531224906
O	1.63140895582	-1.3469388563999996	2.854765714906
O	0.99130266582	-0.0459453263999996	2.640086954906
O	-0.42772152718	1.5439557806000004	1.1592833539060001
O	0.30549578582000003	2.8523199336000005	1.0314568229060002
O	0.10464752882	3.8891147736000002	0.1275227289060002
O	1.23394805582	4.701576083600001	-0.09632892609399979
O	1.6160256358199998	2.6762855036000004	1.2369854949060002
O	2.68480514582	3.5708026136	1.2787800949060002
O	2.2873819658200003	4.796383023600001	0.8162810169060002
O	3.66042530582	3.3169689936000006	2.363000274906
O	0.34756512382000004	0.38357225360000036	1.4293836349060003
O	0.8308142858199999	0.7637681546000004	3.606832574906
O	-0.51212548218	1.8074307746000002	-1.3906807550939997
O	-2.4292486641799997	2.4388830036000004	-0.12918040409399978
O	4.28965260582	2.2448722696000005	2.266445264906
O	3.3569119458200003	3.7332660936	3.663624304906
O	4.092895695819999	-0.40979504639999953	4.201114534906
O	-1.26443391418	1.5187252456000004	-0.19387502409399981
O	3.69227367582	-5.497835236399999	-6.1261637950939996
O	1.0064579658200001	-2.8330522563999994	-6.631465745094
O	0.66206412882	-1.7783679263999996	-3.032234865094
O	-3.0064304641799997	0.6295795246000003	-6.307555275094
O	-4.68741133418	-2.6646937864	-5.260530185094
O	-7.408568644180001	-0.49402449639999957	-3.675171635094
O	-9.947299234179999	4.3261094636	11.335760734906001
O	-6.13069272418	3.9490861836000004	11.409776634906
O	-3.7927295541799997	3.9619382736000004	8.444494274906
O	-2.6071527841799997	0.4496406046000003	9.362925264906002
O	-4.23257349418	-2.4353555163999996	11.129536034906002
O	-1.88796556418	-3.077127216399999	14.115019934906002
O	0.72881014582	-5.7172842263999994	13.231414334906
O	-8.298162334179999	9.8381668736	6.571715714906
O	-6.552533294180001	4.038970323600001	5.787425654906
O	-8.18042037418	-0.5564456963999995	8.027917604906001
O	-9.62046788418	-3.1541766164	3.773265294906
O	-3.16008849418	-11.7335968464	-4.8384373350939995
O	11.44115989582	-5.2821282664	-4.399115325094
O	12.17140819582	-7.882213696399999	-0.2600150920939998
O	8.61046331582	-9.032712846399999	-0.9140423550939998
O	5.53430538582	-7.7810143063999995	0.9426197209060001
O	4.878016295819999	-9.5372729464	4.280996124906
O	-6.64905852418	-7.3867036164	5.343368444906
O	-3.5758818141799997	-7.341799036399999	3.105062604906
O	-5.37996856418	-8.8080817464	0.1010181516060002
O	-8.07820828418	-6.1326740964	0.40524030490600016
O	-5.77289477418	-3.1596334464	0.9668208759060002
O	-2.47737052418	-3.8210979463999992	-0.7967895260939999
O	-2.15202566418	-7.411984886399999	-1.9298150350939995
O	-2.25353264418	-7.3762478664	-5.731617905094
O	2.18430164582	11.7330685536	1.9329849149060003
O	-2.21942656418	12.4198904536	1.1311047029060002
O	-2.15952668418	10.6922334136	4.541342454906
O	-3.50875214418	13.6590804536	6.539032454906
O	-5.33099457418	8.1229287036	-10.488120565093999
O	-3.80406004418	6.1838938236	-7.594977885094
O	-0.34130121818	5.9069708136	-6.049668135094
O	0.81360102582	2.6845489336000004	-4.503135525094
O	5.19840482582	-1.6378454663999995	-0.6385335740939999
O	10.300882295820001	-2.4690987163999996	-1.9630059150939998
O	8.05051816582	-1.2366607263999998	-4.767882575094
O	6.59647217582	1.9980319186000004	-6.098189455094
O	3.72812783582	2.3270197816000002	-8.558315695093999
O	1.3273042358199998	4.8225576936	-10.129379065094
O	12.043361495820001	0.3904319086000003	-5.482272995094
O	9.78525685582	2.5947803536000005	-3.364216375094
O	10.587533695820001	6.206163703600001	-4.357772055094
O	8.73504984582	9.534976373600001	-3.688595275094
O	5.139725095819999	9.769061303600001	-4.891823075094
