81

O	-1.4077344554200002	1.3331323101060002	2.3843671151399994
O	-0.0712001784200002	-1.2923401598939999	2.8501997551399993
O	2.78298344758	-0.2864192142939999	2.4125483751399996
O	1.7521819875799998	-0.24552581899399992	3.7849734651399993
O	1.4714197175799997	-5.548185059893999	3.9861041751399995
O	-0.13107605342000023	-4.195332649894	4.1389078251399996
O	0.3356878125799998	-0.14323195999399993	3.3175192651399996
O	0.0343016855799998	1.108706760106	2.5942903951399994
O	-2.06970784242	1.2632975201060002	3.4746352151399997
O	-1.7750235124200002	2.501577130106	1.6773407651399999
O	0.7883045075799997	1.4733442801060002	1.5899004451399996
O	1.8306965975799998	0.5610540301060001	1.2347879541399998
O	1.7013318575799996	-0.23920992019399992	0.03402124213999966
O	0.38135625957999975	0.40148193110600006	-0.4329069598600004
O	0.5690543975799998	1.3283084701060002	-1.1786139248600005
O	1.4608164675799997	-1.614926149894	0.10929842713999965
O	2.4103171175799996	-2.4700158998940003	0.7059573841399996
O	3.5160538075799996	-2.4616809298940003	0.06145850113999965
O	1.9447582475799998	-3.760621509894	1.1178027111399995
O	1.9931962575799997	-4.783077059894	0.09445778213999967
O	2.2515550675799996	-4.559516699894	-1.2634485048600004
O	1.6595667875799998	-3.900614269894	2.3488938451399997
O	1.7996690275799998	-6.074127929894	-1.9714202248600006
O	1.5176728975799998	-6.894637449894	-0.5392592668600004
O	2.19262556758	-3.2298391798940003	3.4094195551399995
O	1.96530662758	-3.3931013998940003	4.80657594514
O	1.84118816758	-8.256249899894	-0.3751905428600003
O	1.1355186375799997	-2.468530469894	5.72419759514
O	1.6072348975799997	-6.001146849894	0.3914895481399997
O	3.2213342575799997	-2.963830749894	5.390484885139999
O	1.1281921975799998	-4.605686809893999	4.79313414514
O	-5.79479874242	-4.610301469894	-6.46601817486
O	-5.69760225242	-0.8972394378939998	-5.538504354860001
O	-2.47580928242	-1.041806088894	-3.5882267948600006
O	-4.345653432420001	4.068287230106001	-4.121160904860001
O	-2.12461655242	3.492221510106	-7.2096982048600005
O	0.08513589557999979	6.349231990106	-5.9445649648600005
O	14.01204000758	6.102252810106	2.2884617451399993
O	12.36406450758	2.8204939901059998	3.4829274651399995
O	8.70346617758	1.855140120106	3.3560058151399996
O	9.47675052758	-1.220575515894	1.1306393071399996
O	12.25583630758	-1.7959494898939998	-1.3098034548600004
O	14.00493780758	-4.916141979893999	0.09903316313999966
O	8.19556288758	9.158959570106	5.903163805139999
O	7.615406117579999	5.028076450106	1.4394032351399995
O	11.02518420758	3.342416060106	-2.3464257548600003
O	-7.279124722420001	-11.338833849894	-2.5451680448600005
O	-7.4774800824200005	-13.274049149894001	0.6968710841399997
O	-3.53771473242	-14.362228649894	-3.3092883848600003
O	-2.48680316242	-11.760671249894001	-5.854421464860001
O	0.23938903757999974	-9.146458519894	-5.2411671248600005
O	8.960164687579999	-0.3739890748939999	-8.50338077486
O	5.6462475975799995	-2.247253569894	-7.90034694486
O	3.9648576575799996	-0.579743523894	-10.95143692486
O	4.94190146758	2.870900210106	-9.68655993486
O	4.020745607579999	2.379005630106	-6.08798336486
O	1.1828059175799999	-0.20426642519399993	-5.830783124860001
O	0.5667620575799999	-1.895803119894	-9.14392251486
O	-2.82214406242	-0.7153096688939999	-10.42747442486
O	-0.7585430254200003	3.037459870106	10.18266320514
O	0.7588203475799997	3.679322680106	13.61685997514
O	0.2614662235799998	7.232837040106	8.770596535140001
O	3.5677238775799998	5.320752440106	8.421516135140001
O	5.48722734758	7.284403320106001	11.06617837514
O	8.00233291758	10.048069950106	10.37573827514
O	6.6016391275799995	13.552708350106	10.89731737514
O	-8.29556015242	10.824115050106	0.033966069139999666
O	-6.0063177124200005	7.795760060106001	-0.045575492860000344
O	-5.9907834624200005	4.392467620106	1.6107614151399998
O	-4.455102802420001	1.3902836801060001	-0.11348258486000035
O	-1.9697228324200002	-5.311611699894	-0.6813565448600003
O	-4.8326679524200005	-9.607629769894	0.14567650213999966
O	-6.90492377242	-6.443740599893999	-0.6138428548600003
O	-8.10482148242	-3.283104399894	1.0779020601399996
O	-9.31800099242	-0.08802987889399994	-0.6138147938600004
O	-10.13904202242	3.573154790106	0.02492128013999967
O	-9.33181218242	-8.773219749894	2.1448632051399996
O	-6.92362579242	-6.337600489893999	3.8033885051399996
O	-8.939449552420001	-4.939197349894	6.818201205139999
O	-8.04720659242	-1.9510257098939998	9.153319705140001
O	-7.88114096242	1.517460010106	7.534032465139999
