69

O	5.278004628876	3.748500526084	0.9716976752154003
O	4.9435612788759995	3.878620296084	-0.37570624278459963
O	2.8749626188760002	3.029187026084	0.12361065521540038
O	4.019208008876	2.914668236084	-0.6679330877845997
O	1.5981874188760001	2.279554666084	0.0930553952154003
O	1.0057857988760002	1.763998333084	-1.1494711037845997
O	-0.6101537111239999	-0.01559337391600013	-2.2069522047845997
O	0.02468051787600012	-0.39837329391600007	-3.5313046647846
O	0.310715848876	-1.7352252339160001	-3.8129154147846
O	1.646334548876	-2.1847208339160002	-3.9122369847845997
O	0.986756718876	0.44570330008399994	-4.1031161847846
O	2.276802938876	0.004950216084000036	-4.4316626247846
O	2.454916058876	-1.3334906039160002	-4.6582779847846
O	0.18502019887600007	0.589980802084	-1.2051335527845997
O	0.8820441988760002	2.455388976084	-2.2133057347845995
O	-2.930319221124	-1.258265103916	-2.1674696847845993
O	-0.9615789961239999	-2.573358523916	-2.0774656347845997
O	3.7078701288760003	3.350353406084	1.6041861552154004
O	-1.5212380281239999	-1.234890573916	-1.7052091267845997
O	4.762083208876	-4.796291553916	6.1218207652154
O	1.6603368988760001	-6.1318220139160005	4.309376765215401
O	1.0344236488760001	-3.117446613916	2.1316441452154002
O	-2.9062676811239996	-6.830364063916	1.6521232952154006
O	-4.0036893911239995	-4.664491083916	4.626962505215401
O	-7.113165241124	-3.844033843916	2.5624185952154
O	-10.874144391124	8.672490576084	-6.6577789747846
O	-7.051382021124	8.718677696084	-6.9897335947845995
O	-4.665647321124	5.842418636084	-6.3683092747846
O	-2.8871823411240003	7.883373406084	-3.6764478547845996
O	-4.063032221124	10.599920306084002	-1.3368389747845997
O	-1.740189585124	13.546495146083998	-2.1766783647845998
O	1.3280733988760003	13.542757846084001	0.09708137521540028
O	-10.083868031124	2.2107180460839997	-10.3571398647846
O	-7.337252401124	3.436611456084	-5.0425410947846
O	-8.192149121124	7.193488486084	-1.3043045457845996
O	-9.007445551123999	4.1217912260839995	2.7935044352154
O	-0.9491799101239999	-1.1999253239160002	12.6001205052154
O	12.307638508876002	-3.5419377939160004	3.9898214952154007
O	13.330630908876001	1.2570610508839999	4.7289136552154005
O	10.050999308876001	1.182175950084	6.638123405215401
O	6.758901628876	2.585158436084	5.337285605215401
O	6.332032168876	6.334836426084	5.7456155952153996
O	0.5451020088760001	9.070641016084	5.398458735215401
O	-3.1377321411240002	10.018739046084	5.3523768952154
O	-5.419535841124	6.970139916084	5.658986055215401
O	-2.330808401124	4.753300096084001	5.8771674552154
O	-3.777427701124	2.499223726084	8.5733180452154
O	-6.890637831124	1.952871179084	6.444875735215401
O	-5.127045061124	1.369824045084	3.0896297952154
O	-1.7332739101239998	-0.16357769391600008	3.7702856252154002
O	-0.7717122027239999	0.007002706083999888	7.428229215215399
O	-0.7799095763239999	-3.566118083916	8.7281827952154
O	0.09374318287600014	-3.0531321439159997	-12.2132989947846
O	-4.344838111124	-3.974978443916	-11.8966014947846
O	-4.128272851124	-0.18279015391599995	-11.4924696947846
O	-6.0183873911240005	0.694600991084	-14.6939488947846
O	-4.640669301124	-10.024076253916	-2.8266894347845994
O	-1.2234240301239998	-8.559362163916	-3.7414345347845996
O	0.42219184887600014	-5.960453763916	-1.5323427097845996
O	5.488284118876	-1.0725122139160002	0.44134638521540026
O	10.647772608876	-2.240798063916	0.7417541252154003
O	8.277641908876001	-5.229393593916	0.9919088952154003
O	6.295513068876	-7.497481043915999	-1.3059354777845997
O	3.4755408088759996	-9.804527953916	-0.2813803177845996
O	0.7302143288760001	-12.047595253916	-1.6288158617845996
O	11.923231908876001	-6.563540473916	-0.9873366765545997
O	9.255365308876002	-5.247445763916	-3.3521781647845996
O	9.449188908876001	-7.440347393916	-6.484615004784599
O	7.029359868876	-7.709874663916	-9.4845120947846
