24

O	82.26464165590997	4.36726804837682	29.90157099916671
O	77.92671304018876	5.197405630766358	30.539350397275253
O	77.73703835720359	4.438145623960461	29.636910586283644
O	78.94616856720016	5.7138461107220735	31.41737597842507
O	80.11482688236903	5.367761458076123	31.99004317270989
O	79.888155311959	5.804010030802884	30.289153009566174
O	80.31725521475144	7.224293962310584	30.10050623081832
O	81.71845635269545	6.766958761757486	29.868351469487205
O	81.7805019424524	5.879908180181921	28.656563520541834
O	80.50586224275935	5.410931385903077	28.118685296623187
O	79.84539336222059	5.57069959574883	26.84946782888412
O	79.72823556337069	5.048414765819617	29.09612957579845
O	81.29785423928575	5.984731100412531	32.5350575230132
O	80.87133551937787	7.094795267308571	33.042419942767054
O	82.7061255130832	5.758649051558434	32.767620600465094
O	83.03054090552315	5.525620590700822	34.13009770803622
O	83.92181506426492	5.943187968978405	31.90275736183704
O	84.75641381173602	4.9755424440413005	31.34940865482722
O	85.4594129902864	5.100598632148109	30.12275549556115
O	85.09035828826775	6.132801759151785	29.23693610185643
O	84.93862743919551	7.2638728700376625	30.00771115065872
O	84.15688754652881	7.035543984946436	31.118181493440183
O	79.57699516517702	6.6920104014405375	26.321644516681108
O	79.04168304303641	4.509790468821888	26.414518592057917
