21

O	26.882531539299027	5.055439996432016	4.848494603351551
O	26.005460973234975	6.301696654065787	4.944561634777889
O	24.704171006373077	6.087632886333093	4.287321514749148
O	23.953410766911915	7.068827022049575	4.046530092003589
O	24.26862304165392	4.725526192340891	4.352477437731777
O	25.063971194515023	3.616149898846343	4.386173656671594
O	24.22760211999811	2.271399321856551	4.527588898353079
O	25.08858043754443	1.1712105626118392	4.027698368598902
O	26.461362803507164	1.3197797269833467	4.606779441587411
O	27.100565630068928	2.670912147152816	4.379567356014342
O	26.272277228612552	3.716543324782138	5.133417011890155
O	28.508007657400626	2.6118617530846633	4.900301467736279
O	29.327918669131606	1.4655867003813248	4.39009009993163
O	28.678658951361502	0.13161946304736216	4.627015696138509
O	27.29746041512352	0.2484901168235829	3.9871350213016084
O	26.79841965334862	-1.1526453344500511	4.103891564963261
O	28.04933104475104	-1.959714873150612	3.7542997513529115
O	29.224711133416886	-1.004102593128301	3.808059368010512
O	30.37618772714964	-1.5640151497681913	4.323612706942189
O	28.61364928076785	-0.22479028912504062	6.085615514643932
O	26.27139443309926	3.2041905257708394	6.5540886824791365
