99

O	3.06465559106923	0.3559294358076929	1.151047701698718
O	3.85265825106923	0.7457950164076929	2.399516121698718
O	2.9688932710692306	1.310387709807693	3.434089011698718
O	3.4743994710692307	1.879876081807693	4.4389710816987185
O	1.6440889510692303	0.7689273489076929	3.387259941698718
O	0.9831442010692302	0.31152273180769285	2.285188791698718
O	-0.4519081809307699	-0.25755943619230715	2.690211861698718
O	-1.21990784903077	-0.21074482219230717	1.4104008016987182
O	-0.4329164979307699	-0.7064739581923071	0.23660919169871814
O	0.9184938210692299	-0.018974313192307135	0.06940661869871811
O	1.76087665106923	-0.3592012181923071	1.300985131698718
O	1.5394477510692302	-0.5496503581923072	-1.1906523613012818
O	0.65152152106923	-0.49301421819230706	-2.397982098301282
O	-0.6697341429307699	-1.184626968192307	-2.205912158301282
O	-1.2900980859307698	-0.529163078192307	-0.9732646353012818
O	-2.6458157389307697	-1.1559615881923073	-0.9591724693012819
O	-3.01675319893077	-1.152017688192307	-2.443889588301282
O	-1.7335299209307697	-0.8373707381923071	-3.208874898301282
O	-1.6235166609307699	-1.5273637081923073	-4.399127878301282
O	-0.5234728319307699	-2.6734230181923073	-2.0645548883012816
O	1.76114562106923	-1.8763144081923073	1.3053822216987183
O	7.7121068810692295	7.408170821807693	-1.9548568983012817
O	8.737461741069229	9.984412691807695	-4.557524308301282
O	5.232620461069231	11.459399421807694	-4.842596328301282
O	-6.71114865893077	7.831236091807693	-7.819476438301282
O	-4.0928562689307695	7.0018380618076925	-10.45043086830128
O	-1.36521987893077	9.221204861807694	-8.98344027830128
O	-1.96140804593077	8.193603261807693	-5.367162988301282
O	-2.04423942893077	4.456845711807693	-6.015988098301282
O	0.9123457810692301	4.600776531807693	-8.395869558301282
O	2.88056671106923	6.328906111807693	-5.619066008301282
O	1.78630914106923	3.8069168518076926	-2.998309208301282
O	2.8240941410692297	0.9816027578076929	-5.346223178301282
O	6.2445755510692305	2.572752181807693	-5.814896348301282
O	6.56404503106923	2.983156411807693	-2.0384776683012817
O	5.72072508106923	-0.6901141281923072	-1.7326412083012817
O	8.533594341069229	-1.6312531381923074	-4.161493778301282
O	10.992899721069229	0.5342339068076929	-2.226099318301282
O	9.89602242106923	-0.6767050981923072	1.2128099316987182
O	10.17605852106923	-4.300870028192307	0.07403688069871811
O	13.886537321069229	-3.8412909781923075	-0.5804309963012819
O	12.083283421069229	-5.380270678192307	4.449455221698718
O	5.1017280010692305	-8.093765278192306	3.7803244816987176
O	1.6348682810692303	-6.499855078192307	3.7907886216987183
O	1.09413490106923	-7.0580145581923075	7.508391401698718
O	4.637943601069231	-5.936257248192307	8.30411048169872
O	4.35985084106923	-2.721401858192307	6.306661241698718
O	0.90369846106923	-1.8461485681923073	7.656394041698718
O	2.0511115010692302	-2.3983352881923072	11.228678131698718
O	5.09149715106923	-0.15601862519230714	10.72224143169872
O	3.03089398106923	2.483123961807693	8.920306851698719
O	0.6020313210692301	2.479288821807693	11.829478931698718
O	4.88434410106923	5.8868435818076925	12.09493043169872
O	1.4528089010692302	7.5104504018076925	12.050553131698718
O	-3.4152689489307697	10.874874521807694	9.356066931698718
O	-1.78273672493077	7.8733516818076925	7.700601771698718
O	1.9680859410692302	8.512639801807694	7.469022331698718
O	2.8876039710692307	6.214397231807693	4.567675861698718
O	6.0594252210692305	8.234992801807692	4.010323741698718
O	6.240606121069231	12.703750021807693	1.1665385516987183
O	3.0176324610692307	10.712340701807694	1.1924062816987182
O	0.83617075106923	11.544414821807694	4.176976691698718
O	-2.84732916893077	10.710750141807694	3.7637696116987183
O	-8.26831416893077	8.473138221807693	1.957650101698718
O	-7.622405638930769	6.588355741807693	-3.105448448301282
O	-10.913791658930771	4.653454631807693	-3.188896158301282
O	-9.43268357893077	2.9265134418076926	-0.12564114330128187
O	-11.36863157893077	4.774075041807693	2.575884711698718
O	-12.704561378930771	1.697290914807693	4.389439901698718
O	-9.25588111893077	0.09634266280769288	4.452803531698718
O	-7.68454692893077	3.373130371807693	5.602398011698718
O	-5.33670565893077	1.102577182807693	9.311864761698718
O	6.87496006106923	-6.412821658192307	14.210900131698718
O	-4.30736824893077	-10.025006478192307	9.862298431698719
O	-7.87319182893077	-8.967390238192307	8.90718549169872
O	-6.551749098930769	-5.560411028192307	7.8435436416987185
O	-3.8345155989307695	-7.167166948192307	5.731873571698718
O	-6.405727068930769	-9.463143678192306	4.095885481698718
O	-8.56713824893077	-6.497469178192307	3.085137231698718
O	-5.52127449893077	-4.818540018192307	1.5551209416987182
O	-4.57015475893077	-8.035550338192307	-0.23471424680128186
O	-8.02708372893077	-8.212106918192307	-1.808027808301282
O	-7.888488798930769	-4.556972768192307	-2.802579558301282
O	-4.45081391893077	-4.6228532881923075	-4.406728508301282
O	-5.185625088930769	-7.926595328192307	-6.151117258301282
O	-6.46410819893077	-3.2795339681923075	-8.620247988301282
O	-3.67444947893077	-5.242998228192307	-10.352675468301282
O	-4.62443158893077	-1.8159819981923073	-13.46672256830128
O	-7.5707979089307695	2.647116541807693	-14.39620396830128
O	-2.3935383889307698	2.485645361807693	-12.161969368301282
O	2.6308447610692305	-1.5719301381923074	-10.622172668301282
O	8.338857081069229	-6.977572398192307	-7.744808228301282
O	4.88443879106923	-5.818603948192307	-6.660208408301282
O	3.20690030106923	-7.2461911981923075	-9.773827768301281
O	5.03439247106923	-10.549090778192307	-9.24162822830128
O	4.198584381069231	-10.942904078192306	-5.568000608301282
O	0.59713825106923	-9.803740378192307	-5.985457828301282
O	-0.04129333893076992	-12.201036378192306	-8.901629438301281
O	-1.0443192493307698	-12.978002378192306	-2.690839788301282
