21

O	26.9079389295	5.167542488073009	4.6030995456353025
O	26.104629635935293	6.400921402650852	4.884528352222578
O	24.69644792946097	6.313657596837372	4.3714543902018335
O	24.102848350761914	7.300250037246144	3.9366108427742486
O	24.009072815282938	5.0273400295456465	4.602573916232652
O	24.868180460558996	3.8351947207239476	4.339826291219115
O	24.1476388023463	2.5339067988274007	4.498574367273751
O	25.009039831870403	1.3844481290690562	4.043884299913035
O	26.389002241427	1.392137456354884	4.636568731734666
O	27.052813633241477	2.7395193218910188	4.3634437992234
O	26.237660775810642	3.870966163745215	4.948339570561992
O	28.463950750363367	2.6990893838541172	4.876082916321442
O	29.270040444690892	1.5382678119177409	4.3711871464686745
O	28.60278616410402	0.20046779659485692	4.626587420190149
O	27.217060826816446	0.3297627906352567	3.9990798168988317
O	26.725539181984836	-1.0776745217892107	4.086509417807471
O	27.971523934937558	-1.8986883019173704	3.744157625529623
O	29.150532663621647	-0.933649805234636	3.8115748314025084
O	30.28804649476918	-1.5146549482200624	4.33995598153051
O	28.563988292690905	-0.16035799323658728	6.084010903071272
O	26.06510020828218	3.6836360101685797	6.451634694047984
