21

O	26.909808365092452	5.1236238223931565	4.60589068352266
O	26.108646227836285	6.35696508853257	4.899603293755846
O	24.700197891156694	6.280748718919914	4.391718869691467
O	24.118483510072735	7.226223143458498	3.89505510516315
O	24.00257024219298	4.9993297321731776	4.614004758045791
O	24.862426194366453	3.8144340549108158	4.342151201874442
O	24.139357275246827	2.511556478217468	4.461858682698279
O	24.981356971984606	1.3375315733278528	4.052694674353339
O	26.366142184164126	1.3424866997881175	4.633803259950869
O	27.03863385546538	2.6868684588639553	4.380139431437365
O	26.23067266502791	3.830616760897426	4.9531120807374975
O	28.454964319184572	2.6564951333762483	4.883124088435261
O	29.26345784670183	1.498523613269879	4.374250613657917
O	28.596928550679678	0.1717121570137483	4.610043457602187
O	27.20589180703927	0.2876140885824108	3.998352869143138
O	26.727282323968016	-1.1254447375198782	4.097139240810882
O	27.975841392965375	-1.9422301672507338	3.7586124194701696
O	29.146007849988685	-0.9661131482021597	3.79571005150846
O	30.30036133369373	-1.5227585939214492	4.3129926130983725
O	28.586253971741034	-0.22740310563709243	6.057805497787246
O	26.054710856780122	3.645917333505695	6.455894497298113
