29

O	27.457379069289736	2.8638050043243806	4.2669656021029985
O	26.09148658286506	2.802647740876481	4.053879619298862
O	25.383103898748043	3.943771148307998	4.411204456675463
O	26.059735150683093	5.059877604174831	4.728847548468723
O	27.27871658744611	4.817247447307625	5.414845055649844
O	27.783974528714673	3.492641838211161	5.485299091682361
O	23.992331875072303	3.8026455119083096	4.719360528428988
O	25.569682744311613	6.393391379036742	4.784100330902211
O	25.873176031970324	7.504488280707749	4.80313052677433
O	28.19825623519438	1.675688289567001	4.145385080137387
O	27.822793789989742	0.422611230037667	4.669743755660016
O	26.564137261786044	0.3097020679768445	4.877793865534718
O	28.46398796098181	-0.6951055283505128	3.9996162406481623
O	29.45320957606433	-0.22225205681359372	3.1477525259938837
O	27.491621801623417	-1.3706621476399363	3.12178145001343
O	29.249320473080054	-1.6969052386977423	4.703823861344484
O	31.490681789531415	-1.3695586341312567	6.0062003383690055
O	30.259558975013903	-0.5527618907186447	5.588422732054893
O	29.52596144610844	0.023636909492106284	6.978690660229137
O	30.99066855063686	0.1227096193525894	4.6360564294014335
O	30.29866472540132	0.37920833475313986	8.02487214763918
O	29.847465909394742	0.16648172360627078	9.278724032424705
O	28.76934010924686	-0.530362839188496	9.704492661160783
O	28.29461212741853	-1.206210958282804	8.618230611933676
O	28.38423281275483	-0.6994574884254965	7.360285691606984
O	28.000957416365036	-0.17218960923726923	10.786729439915998
O	23.886137716776673	2.987924252061405	5.873560203294762
O	23.073354616411777	4.695304786730608	4.846992163374042
O	23.49927089632653	2.9115166189618282	3.741246446080479
