21

O	26.883185061430268	5.064398195433755	4.871784475553856
O	26.006265678624047	6.31238803496752	4.943551566341981
O	24.710797396930648	6.093750803373942	4.277138626697595
O	23.953767753187197	7.076999448863414	4.0540473486836035
O	24.27530703568439	4.731329978209917	4.345229822418239
O	25.063850208237834	3.619603264128152	4.398999183355415
O	24.168099568534103	2.3043975919782977	4.522037273664408
O	25.074931747164094	1.2184715815006637	4.044175842752359
O	26.463218708486657	1.3301293233532077	4.5947041057852855
O	27.10529801511736	2.6951421842532883	4.367996439027756
O	26.275092123034717	3.7252045414257284	5.137332860845676
O	28.513263168656124	2.620513855886691	4.884730626036602
O	29.308450831009562	1.4581653850433072	4.369086999013517
O	28.654401233711287	0.1263823796151493	4.613031128258216
O	27.27025829316094	0.23660548401834136	3.9759256140717314
O	26.76804185952224	-1.1624469856743789	4.12247306975264
O	28.012062682894932	-1.9871475057246684	3.7844252620774035
O	29.190508876110677	-1.01660710085532	3.7979567465680777
O	30.34807205272825	-1.569314647583212	4.30732619240597
O	28.59920792299376	-0.2276465315524019	6.072313539542081
O	26.293982892123005	3.187534942455915	6.555855465249356
