26

O	28.34010929910631	0.42006339329252596	3.1097776904291115
O	28.829234544285036	0.48064244330432504	4.487952937511545
O	27.53502414053975	-0.8652700910755087	2.951314990977079
O	27.244569307258498	1.4351269950479077	3.281875821687107
O	27.936500494602676	-0.48578813202740356	5.09805648354995
O	28.215778503070187	1.6904044743310294	5.1492227414968275
O	26.122397115114453	-0.6897388975048733	3.624084243537911
O	27.92862865208987	-2.053158462758044	3.5703826614756755
O	27.594793430406455	2.3900931613348724	4.172690001801214
O	26.60796252092639	1.5527679279086504	2.26323921511924
O	26.473722392899276	-0.010687500968943997	4.943237560551519
O	27.73737648132242	-1.8240674839959627	5.010249041040467
O	27.607443006260805	1.6037617818630712	6.218619431797698
O	26.936862462681542	3.5753007420244973	4.446666628906339
O	25.58687514146167	3.5407289910751634	4.574847960671977
O	27.527758197015974	4.709424804428056	4.161136169461874
O	25.037789473950127	4.7990064550648555	4.812255019524971
O	24.77396090551171	2.5560450771549683	3.9629660194368252
O	27.00111130757862	5.965814390938908	4.304925834828403
O	25.6990158518137	6.00979206704781	4.826956471684081
O	23.683664046802573	4.828431458305699	4.717054211175656
O	23.384983849169856	2.690744304331097	3.8474620021932657
O	24.931726257653033	7.162022792922062	4.570982192065488
O	22.984696042544968	3.6012945945207604	4.743103661799864
O	24.50366569089946	8.29581646448101	5.122449751131367
O	24.040919263283914	6.965967890450577	3.750664728289515
