99

O	2.3356195507076922	0.2756241326410254	2.3089886168717957
O	2.625104460707692	0.4494810986410254	3.7687837668717954
O	1.5192190507076917	1.1372313316410254	4.514384816871796
O	1.7754694007076919	1.9126669506410257	5.436364306871796
O	0.1477485807076917	0.6924598849410254	4.185698066871796
O	-0.05398756929230819	0.5511303066410255	2.7110332568717954
O	-1.4696416572923083	0.21054514864102547	2.3598780468717955
O	-1.6983770112923082	0.18318977964102545	0.8746733668717955
O	-0.6667171532923082	-0.6099905793589745	0.1229539058717957
O	0.7204559807076918	-0.13976581335897453	0.4982058578717956
O	0.9739379207076919	-0.2730986893589745	1.9942234468717956
O	1.705529480707692	-0.9312933493589745	-0.31515202312820434
O	1.4982887707076917	-0.8628175893589746	-1.7981164931282043
O	0.10559302070769183	-1.2821534193589743	-2.1762184531282043
O	-0.8318779282923082	-0.41005989935897447	-1.3470464931282042
O	-2.1558502042923084	-0.7605324193589745	-1.9412350631282043
O	-1.8298858052923082	-0.8604661093589746	-3.4327290031282045
O	-0.32807861329230825	-0.8909960293589746	-3.5601755031282045
O	0.13422523070769188	-1.7350843093589745	-4.552747073128204
O	-0.0859402392923081	-2.7531056793589745	-1.9389021831282043
O	0.8109855907076917	-1.7171760093589743	2.4535972968717954
O	9.09164851070769	5.811330610641026	1.3844694768717958
O	11.60108261070769	7.8758751706410255	-0.5909760531282043
O	8.902300910707691	9.846411430641025	-2.4274788431282044
O	-1.0932717203923081	7.855866240641025	-10.215535173128204
O	2.177830670707692	6.325867430641026	-11.406171073128204
O	4.396635070707692	8.233016020641026	-8.965694993128205
O	2.135472700707692	7.733452800641025	-5.9455916131282045
O	1.6108821107076918	4.005666670641025	-6.438206783128204
O	5.264062810707692	3.4048773206410257	-7.288868573128204
O	6.167105410707692	5.103958160641025	-3.9935665431282046
O	3.5936364507076917	3.1013995506410255	-2.0339349031282046
O	4.952528700707692	-0.10256273435897456	-3.5913991231282045
O	8.49666374070769	0.8575784646410254	-2.5739672031282046
O	7.275070300707692	1.6439658006410256	0.9442075868717957
O	5.678738980707692	-1.7957467793589745	0.9658325868717957
O	8.986948110707692	-3.4417294593589745	0.06099794987179566
O	10.773453810707691	-1.4923760193589746	2.8026387268717956
O	8.12062178070769	-2.1108198293589746	5.454851806871796
O	8.125478910707692	-5.833570629358975	4.670847916871796
O	11.778177410707691	-6.061138379358974	5.696762466871795
O	7.746685520707692	-6.6985759493589745	9.473280266871795
O	1.3358649707076917	-8.303263049358975	5.8914260268717955
O	-1.4202469912923081	-6.175553099358974	4.323704446871796
O	-3.587246429292308	-6.229292119358974	7.447508736871796
O	-0.5787620702923082	-5.605310109358975	9.682077736871795
O	0.6401387707076918	-2.6340262293589745	7.655198286871795
O	-2.8090055492923085	-1.0663796493589746	7.316733786871795
O	-3.4314049592923084	-1.3987398093589745	11.063058826871796
O	-0.0965047192923083	0.25640606064102545	11.886973026871795
O	-0.6357359762923082	2.9762006106410257	9.279912196871795
O	-4.026384129292309	3.6866070206410257	10.810562126871796
O	0.29700073070769184	6.386649420641025	12.833055026871795
O	-2.3966076492923083	8.515427330641025	11.215567226871796
O	-4.891406589292308	12.274271270641025	6.544459686871796
O	-3.321684269292308	8.872821940641025	5.870883166871796
O	0.2111359607076917	8.892242140641025	7.297379616871796
O	1.822968340707692	6.164837330641025	5.1803914868717955
O	5.255126090707692	7.577207840641026	5.997994096871795
O	7.483710500707692	11.591063970641025	3.3685058268717953
O	4.235328850707692	10.155531060641025	2.0449742768717956
O	1.201154030707692	11.666052270641025	3.7415797868717955
O	-2.0411286492923084	11.384970570641025	1.7825463468717957
O	-6.498433719292308	9.850814650641025	-2.1419916631282043
O	-4.1391322692923085	7.321096820641025	-6.3392610531282045
O	-7.388474629292308	5.942625250641026	-7.796400613128204
O	-7.713138439292308	4.3601772506410255	-4.339097483128205
O	-10.215736759292309	6.790319910641026	-2.8254653831282046
O	-12.768300389292309	4.197723130641025	-1.6858844731282043
O	-10.05948637929231	2.0816709206410255	-0.062164701128204325
O	-8.521431329292309	5.173311140641026	1.5523190068717958
O	-8.471252239292308	2.9982040606410254	5.989335406871795
O	-1.2054816333923082	-5.771531309358974	15.984493126871797
O	-9.93318732929231	-8.014854339358976	7.295647076871796
O	-12.478717089292308	-6.519314959358974	4.842089046871796
O	-10.199356669292309	-3.5101425593589743	4.349626506871796
O	-7.207123889292308	-5.753391219358974	3.6954422568717957
O	-9.23557160929231	-7.790534359358975	1.1809637168717957
O	-10.160606009292309	-4.659482669358974	-0.7805286351282044
O	-6.501260379292308	-3.6819690593589742	-0.8867835921282043
O	-5.508014439292308	-7.191278029358974	-1.9613664731282043
O	-7.922450519292308	-6.976209129358974	-4.883986653128204
O	-6.662611569292308	-3.525627599358974	-5.828192133128204
O	-2.951913949292308	-4.325028579358975	-5.755319983128205
O	-3.507939129292308	-7.647200929358974	-7.545969103128204
O	-2.686019669292308	-3.1652896393589742	-10.469710573128204
O	0.1363005607076917	-5.735032909358974	-10.739977373128205
O	1.283161970707692	-2.5764749193589744	-14.064868273128205
O	-0.06556440929230822	2.1654936806410254	-16.331029173128204
O	3.5331770807076923	1.4320746816410255	-12.051797973128204
O	6.532856800707692	-3.1759160493589746	-8.332079703128205
O	9.313484910707691	-9.063060459358976	-3.0697778931282045
O	6.023037090707692	-7.251263349358974	-3.6496592731282043
O	5.586562050707692	-8.735820749358975	-7.1363218031282045
O	6.337420450707692	-12.207602729358975	-5.7526030831282045
O	3.9611172807076924	-12.041264629358976	-2.8045074431282044
O	1.1730909607076916	-10.398896329358974	-4.800034613128204
O	1.3841059107076916	-12.976156729358975	-7.6196293731282045
O	-2.2911736892923082	-12.870638929358975	-2.4524973031282045
