21

O	26.90626355386986	5.145658956915547	4.597067154028296
O	26.092417895064955	6.372350567222672	4.875916190480732
O	24.67701954355794	6.262092626717114	4.392376729426055
O	24.06558575216536	7.231617596279536	3.944908385066226
O	24.00129351431272	4.974825214019671	4.65166559249586
O	24.875335342906773	3.799798490805233	4.344343791524921
O	24.164679787853686	2.492402675223064	4.525613569890472
O	25.02890494751405	1.3546578398718048	4.0418255789496165
O	26.410359354281162	1.3629955094346489	4.630730697429514
O	27.061932811698163	2.716639129706353	4.3583352759183045
O	26.247296871660673	3.8433587142842356	4.9513376465502965
O	28.468305968867764	2.661319067098864	4.880022291335399
O	29.274519148085663	1.4975359769475105	4.382420584875688
O	28.61647980919076	0.16374741040190344	4.624143800335573
O	27.224042249466944	0.281789861338799	4.006971692153322
O	26.73684253118943	-1.1264381323276573	4.124295293615366
O	27.980960406568798	-1.9510204392447628	3.786844901878683
O	29.155047132725574	-0.9756392771667011	3.806227925799282
O	30.309218435401707	-1.5359147497904682	4.320902696041034
O	28.58801134380422	-0.22909765751023614	6.073796438708441
O	26.09898940693009	3.6579854106126035	6.457576652991936
