20

O	26.813458853292342	3.459760911091223	4.387679777307346
O	23.835747370374225	6.502210910607008	4.596189580051025
O	24.297122840080704	7.667163387483679	5.222968430673172
O	25.48893496452574	3.1365669140273575	4.488105237461768
O	23.112985535497813	6.85597889352953	3.626408439823024
O	24.44091742120584	4.067598395045616	4.5232094164852334
O	24.727657909096223	5.4101908643635515	4.2729054911072035
O	26.020454883867135	5.773247297935711	4.227689931029015
O	26.980686674907222	4.796544742656723	3.9933063568451757
O	23.04843847076956	3.671538833390342	4.679588685741324
O	27.929727593795317	2.6120477905594144	4.342479433832057
O	27.754528064934547	1.2314898038895044	4.147020815622588
O	27.090969469853274	0.6503922721801274	5.003530679067798
O	28.918752344178785	0.3016911481488527	4.018281693693525
O	30.098829837317485	0.7923323982611161	4.430965675900858
O	28.828026754830482	-1.0576166194215104	4.613091876356928
O	28.815764127687306	-0.3914822639636526	2.7524072502233654
O	22.1961672578932	4.732885483344875	4.793970849658249
O	22.313658926237885	2.9416218924087874	3.8249684810636233
O	22.682855340694076	3.1485669869309145	5.86747566204973
