99

O	2.9566361694294865	-0.20344865164102577	1.387322486546155
O	3.6893684094294863	-0.14959544164102578	2.7242587265461546
O	2.801242139429487	0.29984951835897417	3.8102157865461543
O	3.258695379429487	0.6342126757589742	4.927267516546155
O	1.4360737694294867	-0.0543034866410258	3.5763707065461547
O	0.8114880494294867	-0.21272350964102582	2.373280156546155
O	-0.6971308915705133	-0.6875866836410258	2.5713841065461547
O	-1.3505380665705133	-0.35219977364102584	1.273028546546155
O	-0.5168779745705133	-0.7135304136410259	0.08394717254615491
O	0.8782102494294866	-0.1554400556410258	0.1041650185461549
O	1.5775819894294867	-0.7856942136410259	1.3204880065461548
O	1.558478609429487	-0.5443540136410259	-1.177969328453845
O	0.8270839994294867	-0.10760688764102577	-2.413363433453845
O	-0.5747883425705134	-0.6840671936410259	-2.4295583034538453
O	-1.2148720705705134	-0.19951838164102587	-1.130808971453845
O	-2.6355889105705135	-0.6208935636410258	-1.3262203934538452
O	-2.8617909105705133	-0.2799420636410259	-2.798719283453845
O	-1.5057322475705133	-0.0407535276410258	-3.4182695034538453
O	-1.3824138745705132	-0.5311251436410258	-4.7033449234538445
O	-0.5850867585705133	-2.1814535536410258	-2.557930663453845
O	1.4277670694294868	-2.270818313641026	1.049212796546155
O	8.568467909429486	6.689312236358974	-0.021485216453845102
O	10.072291749429487	9.555858016358973	-2.020550683453845
O	6.773317949429487	11.455111596358973	-2.248920543453845
O	-5.181294390570514	9.835995336358973	-6.622480163453845
O	-2.4475261305705134	9.196592046358974	-9.187536103453846
O	0.35784956942948676	10.783767596358974	-7.155663883453845
O	-0.6467308515705134	9.196637326358974	-3.8439642934538454
O	-1.0573424468705133	5.671095476358975	-5.187019203453845
O	2.0903950894294865	5.898187716358974	-7.301926993453844
O	3.9827087994294863	6.858184776358975	-4.128842883453845
O	2.4135330294294866	4.052415126358975	-2.107493143453845
O	3.3509321394294864	1.5904257293589743	-4.865763963453845
O	6.947057519429487	2.832162166358974	-4.809473253453845
O	6.982144609429486	2.5161542563589743	-1.0113923754538452
O	5.740297959429487	-1.0287086136410257	-1.456289923453845
O	8.642350249429487	-1.8381049436410257	-3.8314539834538452
O	11.136440449429488	-0.3577757136410258	-1.3681982334538452
O	9.631707549429487	-2.032197983641026	1.701160866546155
O	9.636096849429487	-5.398985463641026	-0.07762637545384513
O	13.416202049429486	-5.263989413641026	-0.3917790964538451
O	11.044127849429486	-7.463138723641027	4.130353196546155
O	3.904509749429487	-9.179512483641027	2.511500916546155
O	0.6321205094294866	-7.221477523641026	2.5972819965461547
O	-0.2789335965705133	-8.373022943641026	6.100449816546155
O	3.2801962494294865	-7.834893353641027	7.322378576546155
O	3.5037970494294863	-4.302364123641025	5.952415846546155
O	0.05422709942948667	-3.2861699236410256	7.2147283265461555
O	0.8299124494294867	-4.602058293641026	10.685395376546154
O	4.116406909429486	-2.675430863641026	10.809160476546154
O	2.4987698994294867	0.4670816643589742	9.408519326546154
O	-0.15837222157051334	0.22264613635897423	12.097977376546154
O	4.413143099429487	3.004526436358974	13.278422376546155
O	1.1820471994294866	4.998148566358974	13.318427076546154
O	-3.068413920570513	9.334473206358973	10.993301676546155
O	-1.6156978745705133	6.511205426358973	8.912589986546154
O	2.186824859429487	6.742778336358974	9.051313166546155
O	3.1113563294294866	4.909726436358975	5.833735326546155
O	6.509271719429487	6.617819346358974	5.875179266546155
O	7.386885329429488	11.472321996358973	3.9392175465461547
O	3.986638629429487	9.893735226358974	3.380686266546155
O	1.6565679094294867	10.426436916358973	6.321214506546156
O	-2.0446761225705132	10.116730036358973	5.521024186546155
O	-7.492277150570514	8.886004916358974	2.9782210265461546
O	-6.6142453605705125	7.8817227463589745	-2.2966355334538453
O	-10.065952800570512	6.388540856358974	-2.955943953453845
O	-9.035907140570513	3.9788966063589744	-0.18292721105384513
O	-10.998061420570513	5.523629356358974	2.686002166546155
O	-12.792522350570513	2.347731756358974	3.797208666546155
O	-9.543966380570513	0.3708026213589742	3.7823061365461546
O	-7.749233130570513	3.1817811463589742	5.627868046546155
O	-5.9704474505705125	0.022817932358974224	8.988035796546153
O	4.945488949429487	-9.621904603641026	13.164762976546154
O	-6.137015620570514	-11.064658203641025	7.4970879765461556
O	-9.480617840570513	-9.444105203641026	6.528587766546155
O	-7.731270370570513	-6.079085883641026	6.213667106546155
O	-5.022505120570513	-7.582522793641026	4.017200266546155
O	-7.667244360570514	-9.233834393641025	1.8162776665461546
O	-9.417373450570512	-5.902685863641025	1.243478416546155
O	-6.093829370570512	-4.341122653641026	0.2573322635461549
O	-5.331316780570514	-7.274783373641025	-2.039977613453845
O	-8.640710640570513	-6.760006863641026	-3.838342653453845
O	-8.042324650570514	-3.026974653641026	-4.113762923453845
O	-4.510112310570513	-3.206123243641026	-5.481236033453845
O	-5.426151240570514	-6.0316679236410256	-7.856966893453845
O	-6.007641200570513	-0.8990434136410259	-9.484922223453845
O	-3.295885300570513	-2.8297040036410257	-11.371433023453847
O	-3.6204833705705135	1.1888140513589742	-13.839468323453845
O	-6.004217900570513	6.057889876358974	-14.099000123453846
O	-1.0797192207705133	4.896252936358975	-11.606349423453846
O	3.3515291294294864	0.07026230335897421	-10.534745723453845
O	8.209964609429488	-6.391966893641026	-8.363801223453846
O	4.812437279429487	-5.053544573641025	-7.306377743453845
O	3.2680363994294868	-5.691559853641026	-10.734667523453846
O	4.696530329429487	-9.226113113641027	-10.717740123453845
O	3.515549759429487	-10.175715603641025	-7.245809433453845
O	0.09819284942948658	-8.568235553641026	-7.673327353453844
O	-0.5319016935705133	-10.311264603641026	-11.024264123453845
O	-2.134404432570513	-12.070222603641026	-5.148910263453844
