20

O	26.932139467160447	3.2217953789241833	4.433726781457259
O	24.15482830459482	6.457490559786164	4.6922405124183
O	23.676630509000756	7.18131671008682	3.599617382013583
O	25.579868355654227	2.9666241253278782	4.366307811397581
O	24.610320765959298	7.345128601487405	5.491250700528575
O	24.603416039398976	3.9763935069391683	4.421340728415959
O	24.968505073914113	5.320087642691569	4.333218379658321
O	26.266316893878184	5.58738799497019	4.41540976285712
O	27.19096052759937	4.5745187649899774	4.139684789601344
O	23.172988100538596	3.708099281463869	4.5067276901775815
O	28.007098822666375	2.3310043620885152	4.272108314477158
O	27.827405320376496	0.9402349649368009	4.071769885952038
O	27.402540207953347	0.40969661744134456	5.092142507971834
O	28.92603618792241	-0.017905834981491786	3.729698969828939
O	30.18238196829015	0.46217083406183157	3.8807258118063817
O	29.047041399124037	-1.3207614802676808	4.447875516892128
O	28.494095775200353	-0.8357735383352662	2.610150851178981
O	22.438455747605648	4.81349600928889	4.714621234259395
O	22.905695586688473	3.101116766123741	5.685810598427347
O	22.42106636534057	2.9998626827739736	3.6847964499146677
