99

O	2.907812923846153	-0.06346047856025583	1.522482889025641
O	3.559181493846153	0.07079468743974415	2.893861879025641
O	2.602931383846153	0.5216321634397442	3.9208508590256406
O	3.024012853846153	0.8999376864397441	5.040634539025641
O	1.2614821538461531	0.11097937543974412	3.6319323290256413
O	0.715274973846153	-0.1051427505602558	2.4003081690256414
O	-0.788554868153847	-0.6134802325602559	2.5635434590256407
O	-1.387851888153847	-0.34497956256025575	1.222408859025641
O	-0.507855032153847	-0.7365267325602559	0.07859638202564107
O	0.857768633846153	-0.13387752156025579	0.14725320602564107
O	1.5511729638461529	-0.6825688025602558	1.404625359025641
O	1.617393683846153	-0.5378108825602558	-1.085927890974359
O	0.928108393846153	-0.17750445156025585	-2.370135520974359
O	-0.44708316515384705	-0.7804459325602559	-2.4236459609743592
O	-1.171845583353847	-0.27775997256025586	-1.177764540974359
O	-2.563788356153847	-0.7596057925602558	-1.427784120974359
O	-2.730773476153847	-0.4683343725602559	-2.918692790974359
O	-1.350867210153847	-0.20712593856025585	-3.479059250974359
O	-1.149540646993847	-0.7388484325602559	-4.736870880974359
O	-0.386189516153847	-2.280914452560256	-2.4923818709743593
O	1.457127943846153	-2.188452642560256	1.1894017590256412
O	8.355198703846153	6.950936497439744	0.11857411902564102
O	9.861863643846153	9.794637777439744	-1.911655370974359
O	6.521182823846153	11.580738607439745	-2.352033720974359
O	-5.171583026153847	9.437018047439745	-7.185684460974359
O	-2.307582466153847	8.800213807439745	-9.605529170974359
O	0.35486171384615295	10.541602547439744	-7.508649580974359
O	-0.749114065153847	9.036757817439744	-4.190598970974359
O	-0.992850426153847	5.457024937439744	-5.426373340974359
O	2.238788093846153	5.711830727439745	-7.408121560974359
O	3.957249403846153	6.837734207439745	-4.190527570974359
O	2.382696733846153	4.051528767439744	-2.141122100974359
O	3.517901893846153	1.5308013174397441	-4.769891170974359
O	7.069874733846152	2.886529637439744	-4.598670220974359
O	6.9423924638461525	2.699078867439744	-0.791514715974359
O	5.821271373846153	-0.8960040125602559	-1.167376514974359
O	8.856109443846153	-1.693197302560256	-3.3813635009743592
O	11.194282043846153	-0.0523426025602558	-0.866736090974359
O	9.602963743846153	-1.667758232560256	2.1924158190256406
O	9.787751143846153	-5.091390082560255	0.534868375025641
O	13.571810043846153	-4.848334562560256	0.3818489430256411
O	11.066197343846152	-6.966063492560256	4.870600479025641
O	4.060970483846153	-8.960071392560256	3.002478259025641
O	0.7309074838461529	-7.1027229625602555	2.8752684990256414
O	-0.300856257153847	-8.165009642560255	6.3732200190256405
O	3.1818372638461527	-7.4741678825602555	7.730751999025641
O	3.361332553846153	-3.983518652560256	6.249424439025641
O	-0.17243862315384695	-3.037229952560256	7.32324300902564
O	0.48681617384615294	-4.209316882560255	10.86827214902564
O	3.705304793846153	-2.176259832560256	11.066859949025641
O	2.058505863846153	0.8642885254397441	9.487071359025641
O	-0.706489955153847	0.6276670311397442	12.066291149025641
O	3.7215912038461534	3.590518017439744	13.34427054902564
O	0.433513223846153	5.481507227439745	13.173011649025641
O	-3.837562176153847	9.600397707439745	10.512591549025641
O	-2.208436226153847	6.756155577439745	8.59945155902564
O	1.5754396238461532	7.110502737439744	8.894997999025641
O	2.698673883846153	5.201675667439744	5.78941358902564
O	6.037488803846153	7.0148706674397445	5.917401659025641
O	6.854956333846154	11.826285307439745	3.852240549025641
O	3.531830703846153	10.124478857439744	3.200752899025641
O	1.057374073846153	10.681114277439745	6.015826589025641
O	-2.593117096153847	10.227957977439745	5.066107929025641
O	-7.881747086153847	8.741005477439744	2.3316739490256406
O	-6.737122026153847	7.586261807439745	-2.8601374309743592
O	-10.108971986153847	5.962960287439745	-3.617169100974359
O	-9.132469236153847	3.682696217439744	-0.718617126974359
O	-11.267580856153847	5.2612320174397444	2.005248839025641
O	-13.013118256153847	2.0697613474397443	3.148508459025641
O	-9.707766786153847	0.19723252943974412	3.343983049025641
O	-8.083025466153847	3.123745407439744	5.166039019025641
O	-6.364884186153847	0.13894094943974422	8.71098563902564
O	4.636755603846153	-9.009314462560255	13.69938794902564
O	-6.131912976153847	-10.992501092560255	7.606756479025641
O	-9.475790516153847	-9.511454392560255	6.436810459025641
O	-7.815037586153847	-6.105471482560255	6.078922649025641
O	-4.968125146153847	-7.598917722560255	4.058122399025641
O	-7.461102196153847	-9.405750192560255	1.8031149490256408
O	-9.285760126153846	-6.153988332560256	1.0374525290256411
O	-5.971858846153847	-4.523269452560256	0.14265454002564104
O	-5.014317496153847	-7.5050021125602555	-2.0140243809743588
O	-8.253265396153846	-7.156938062560256	-3.972641710974359
O	-7.760706866153847	-3.4194243025602558	-4.3549309109743595
O	-4.165904336153847	-3.532688862560256	-5.559465670974359
O	-4.884313456153847	-6.463133492560256	-7.8694510709743595
O	-5.544902176153847	-1.4081547825602558	-9.69984952097436
O	-2.695457896153847	-3.3154637825602555	-11.396766550974359
O	-3.029731196153847	0.6043086744397441	-14.018473150974359
O	-5.544695786153847	5.384415697439745	-14.553551150974359
O	-0.704667058153847	4.4636105174397445	-11.80750625097436
O	3.8178418438461534	-0.18087147556025585	-10.374382250974358
O	8.765125873846152	-6.409572732560256	-7.764651260974359
O	5.285571493846153	-5.144079832560256	-6.906753360974359
O	3.9161576338461526	-5.946325082560255	-10.374444150974359
O	5.447390213846153	-9.431272292560255	-10.16875333097436
O	4.140724273846153	-10.299082392560255	-6.720754330974359
O	0.6996029338461529	-8.815303562560256	-7.3544183909743595
O	0.273362343846153	-10.690589092560256	-10.666235450974359
O	-1.537204768153847	-12.298067592560255	-4.808091370974359
