32

O	28.44572474440836	-1.7519609503503313	4.057572635040557
O	24.772451540001573	6.217278746972935	4.55676275836219
O	27.002717305202346	5.321765469695878	7.502208572891478
O	25.62567702629663	1.9570882791970432	8.8395513932073
O	26.51536041428602	0.9646106359973478	9.131243541772324
O	27.63927091915818	4.0003252381237155	4.0515323992090035
O	26.825785048672603	5.100343146221109	4.134284580032535
O	29.244996617448574	4.004924569250442	7.322649075772684
O	29.669912441382497	2.7974731185208954	6.7416926367422745
O	25.829728109539527	2.951381550897682	7.835900054215171
O	27.26841924267431	0.7299801207314223	7.969915755296183
O	25.77631681524423	2.6784321566867093	4.3386480065593505
O	29.09697173312672	-0.5279583823367209	5.947422394436929
O	27.58530929610934	0.5721470498589107	4.478419816666667
O	26.997702377145455	2.8388735578588955	3.7716471503079636
O	25.423153250635337	4.996646669879007	4.121258062060431
O	27.86139461566594	4.1406476183860494	7.257086400317258
O	24.78792620163327	7.2272889294906335	5.14995583914244
O	27.133207876671683	6.263309973153312	8.243457635377442
O	27.827502224194006	1.701663382362762	3.7023021912695473
O	26.40470660471602	0.20183545109177614	4.629588853468142
O	29.80649145952805	0.09881880834487822	3.8233781182678412
O	29.49924115539271	0.7324319271507291	6.135841089702279
O	28.743652414978968	1.7895518501679315	6.416969979821333
O	24.993816575916835	3.7883483402733154	4.666221613318812
O	27.20739763245856	3.01836377165033	7.550840389067133
O	27.655866414583397	1.814213729980481	7.1720413213178675
O	28.702657906419788	-0.3631614121489499	4.511183338462896
O	23.657783743716216	3.414953977912188	5.033502280545193
O	23.435133680073257	2.739791801509813	6.249423257057082
O	23.18596309979853	2.3523700077260496	4.219405856754545
O	22.65249729069709	4.261166333286798	4.998461951682694
