29

O	27.46978603636829	2.8999729716617733	4.257958304100919
O	26.098213627613188	2.838393615910733	4.041579452449502
O	25.38223827897118	3.958365082653204	4.41006132047066
O	26.051119858061877	5.076637915979532	4.739485195002167
O	27.273043083750807	4.837366266239992	5.423991404214734
O	27.782829545046297	3.513680970716016	5.487062111752918
O	23.990967615217627	3.8097909853882452	4.712714680494036
O	25.551319081184875	6.4090791761333845	4.742249426051927
O	25.8729399905001	7.5160861742173575	4.794994767092885
O	28.190038745496853	1.6970801248298755	4.145579976691707
O	27.791983435842024	0.46021312067790743	4.686034357714429
O	26.532632551317402	0.3500449768088818	4.87787782124528
O	28.435833839021264	-0.6481901912299055	4.002546514997018
O	29.441738520776514	-0.2042177515577901	3.1217339727121254
O	27.46644273198526	-1.3072647487731224	3.1034510058354376
O	29.213188610463863	-1.65404868927289	4.690251387331237
O	30.976942088943815	0.14379785256763467	4.612353285361873
O	30.24326245978056	-0.5181726253833092	5.565167138236813
O	29.521447102052797	0.024724000934188473	6.9730319191876795
O	31.468944936697767	-1.361549907117564	5.965683047094831
O	28.36594664760656	-0.6778721788310811	7.351643953226599
O	28.310707253915567	-1.2259472002658816	8.598381474791156
O	28.789537860734242	-0.5699069902425282	9.694737923357687
O	29.859470445984623	0.1433418851906294	9.271361830853463
O	30.30192412893403	0.3694783533172037	8.016682351096241
O	28.024115013696807	-0.22736833668373158	10.785277727748685
O	23.893550224199227	2.9817884118948594	5.8602244383990225
O	23.063929371446076	4.691726977265433	4.857532619508851
O	23.503273328589994	2.9231240740962177	3.7289220739908773
