17

O	23.14603425824256	4.2625473661704785	4.563490858474862
O	29.308246823875375	0.9400114708751726	5.641702361303861
O	28.596911375600914	0.7583007179876149	4.337532545647784
O	29.108818438069882	-0.5931013829001248	3.815207579336822
O	29.907639422210384	-1.3978430447424102	4.471799257374735
O	27.787356452036217	-1.2344916276038194	3.5893876560330815
O	26.851051732395494	-0.07435653603826253	3.468127451923362
O	27.30664781742626	1.1335305704624998	4.146111309555722
O	26.67452984577673	2.443129679914153	4.413292992309166
O	27.367428701559607	3.6226961396529327	4.120055427918443
O	26.934229582478828	4.8853807378614444	4.5454681883963115
O	25.637422898531952	5.1721607778538985	4.573495320819884
O	25.265069668700413	6.5327930632756575	4.427111607256874
O	24.89037973994038	7.554312744695492	4.863696147325191
O	24.84074111714029	4.033805077449779	4.726345371566098
O	25.31848613854226	2.776178466509344	4.582235317541527
O	24.446696393821586	1.6188539627025849	4.885272395378929
