18

O	27.036386027635718	-0.9466617895514733	4.590965437351478
O	27.423845503189437	0.3531672077215031	4.970160717170249
O	26.669177347036946	1.57371339181603	4.624347595270347
O	26.4902224532214	1.036473506026173	3.2469026862703694
O	27.98021669505355	1.339941918532268	3.4001166878642035
O	28.653846763352547	0.15752401140003958	4.155064801580092
O	28.804300875081104	1.675331188558143	4.970302290600321
O	29.35019139329836	0.16495427622566172	5.203761637359334
O	26.620067726951007	2.9555063431896005	4.735185764738945
O	27.37520039245005	3.829290719241183	4.062904728173968
O	27.22748709645208	5.242360929941738	4.44313424880864
O	26.064914738064086	5.779275295319111	4.3010072312716545
O	25.655941222702307	7.194514724880195	4.440374504208518
O	25.628582337141253	7.794905427135209	5.485099165172059
O	25.089945969974575	4.81301224673327	4.374463954487674
O	25.308632923986156	3.421217314001491	4.449785724850446
O	24.33531700388969	3.5659222775084416	5.477508613263173
O	24.23547779985032	4.986382180501096	3.3470477716476754
