20

O	27.03511347339539	3.4491437745529416	4.418213509434644
O	23.965432823976954	6.359920187347131	4.697125893147002
O	24.430464747961906	7.577049584326177	5.236092266474176
O	25.724875126482893	3.022845182122791	4.494326497176215
O	23.32353050242984	6.712819629523645	3.673582300966615
O	24.68664173981597	3.962315155341392	4.542269019154735
O	24.89636420668181	5.305259518787803	4.351926722652653
O	26.151518624311404	5.742471457778411	4.210084515620354
O	27.118564139859785	4.776672822974162	3.957903509838924
O	23.35277564570286	3.448363004558823	4.743581061960596
O	28.112998757083652	2.543875465467842	4.145215779287883
O	27.808078408613987	1.1459789332408508	4.225671003609112
O	27.684822994951062	0.8081483460415342	5.413187884461379
O	28.913386125395256	0.1919497410482789	3.862725117495145
O	30.088590061604346	0.7761743400982195	4.14829485491363
O	28.938891851313873	-1.1441683363453867	4.519350165154087
O	28.588731138020208	-0.43592492435003916	2.6216674183657735
O	22.707499182635537	2.5902952088279285	3.9633944973979887
O	23.084959636194945	2.983539780644919	5.971561985268206
O	22.46761725391688	4.468498652477361	4.752485362936682
