23

O	26.904676455665292	4.826914437579308	4.87049435663086
O	26.48390499179891	5.919354336700087	4.16601790106734
O	25.174268741164212	6.272485516339587	4.0959822509320665
O	24.746302551144232	7.577313809903453	4.025240404770511
O	24.30468300978354	5.245677343308733	4.362127493690072
O	24.734615926683638	3.9307238717057515	4.507684697163013
O	23.873370027209404	2.732800232480049	4.472990858949067
O	24.535712272016514	1.4702087868100786	4.053966888857906
O	25.903831405396964	1.3156257218011738	4.472953187363102
O	26.750753945056772	2.4981440130066668	4.356444909839563
O	26.06518793945498	3.731746646550831	4.668939385579417
O	27.553961943560196	2.058480427000833	5.457430773610387
O	28.727244181197452	1.6783786674367023	4.7302222380670536
O	28.29348993203174	0.34482224715812904	4.313594185995352
O	26.813533196935914	0.2944829381342695	3.8943367085536975
O	26.42058543064217	-1.1259465287237072	4.217760529355412
O	27.72669978684445	-1.869505059310214	4.258137495745613
O	28.830925685016304	-0.8558761627599212	3.9043550604192006
O	29.999559797049987	-1.4631955290308791	4.30845435038963
O	28.528338902517408	-0.23590670450020323	5.787524159586437
O	28.764644290789384	-1.171178671798567	2.547173910371428
O	27.366072716224433	-0.9566293231931902	2.102048685345932
O	27.150194450713432	-0.020785554440426957	6.138146140851674
