29

O	27.32982798797018	2.628540984515939	4.029834599405936
O	25.97354650429932	2.677083282215677	3.9814421830701825
O	25.36577068341416	3.859848306150191	4.278774087235466
O	26.087368711369564	5.013507494840771	4.1983035903544454
O	27.399741974527466	4.808779194324998	4.713583529543231
O	27.941398661077844	3.5270707487592334	4.892072079911678
O	23.972750760150397	3.831437476769443	4.709239803439795
O	25.543941015297165	6.299509259663917	4.628360693830299
O	25.704577667303084	7.442196917942254	4.825367319622918
O	28.017846762074974	1.4221837911858524	3.907279078472168
O	27.918404994811205	0.2826837838284344	4.723860330166458
O	26.71507532285168	0.0457816206793209	5.078650990289298
O	28.649781612141876	-0.8658247191128694	4.183066228708579
O	29.506514743668273	-0.46389838648468085	3.1449545746638394
O	27.68674103410973	-1.7451904821443776	3.4491089688371956
O	29.53013890385356	-1.6427950836135377	4.97951495409214
O	31.765667910468334	0.00010498413591641942	5.638263806460113
O	30.477483795946046	-0.5463964889982365	5.868340077979785
O	29.76895343864833	-0.05560256995784152	7.328301032115496
O	31.457348594935613	-1.6958819423051483	6.3614561886889955
O	30.646133742152195	0.3460787686974558	8.318027419370088
O	30.10751415760597	0.4024732686789838	9.557541812090143
O	29.0484126903885	-0.3027573897260434	10.04827059984573
O	28.642231284786945	-1.2038627638680912	9.103785250872193
O	28.74537895579867	-0.8651139552615492	7.790971106287381
O	28.456682079884903	-0.09864735284457415	11.24554700530203
O	23.7667445626686	3.2826869175159787	5.948699710641361
O	23.27969040646318	3.0507306984788176	3.823526168320167
O	23.501621010220113	5.056897416081279	4.733046115961434
