29

O	27.227445122333325	2.8953291770006055	3.9203739105573296
O	25.86560352855178	2.769694871764999	3.9222781741155783
O	25.16761313773419	3.886790664445863	4.290994393457178
O	25.858093436395034	5.041849594893493	4.407115631653028
O	27.12100963429407	4.84590855614125	5.054192150077864
O	27.704182277359042	3.5531018174145466	5.0711283748662686
O	23.838818087248903	3.6971564507855	4.764571234066169
O	25.276335944426123	6.341292839348457	4.36447397067235
O	25.599810484396276	7.430457552146599	4.659314215204069
O	27.974038014825837	1.752332441711251	3.6497808155143074
O	27.701145357140582	0.5718989222365738	4.361424915300358
O	26.46249009165301	0.4112788443433868	4.639637786483678
O	28.393627147056318	-0.5877619736302191	3.815053510009508
O	29.21727581462096	-0.18173623996345611	2.784478743356921
O	27.429267074219	-1.4650230882624116	3.13660061150768
O	29.326701600298403	-1.3508886434059364	4.646321107657075
O	30.00794503272017	1.0192058555340737	5.1965540552483755
O	30.376208379003767	-0.2946171894739713	5.512901213502276
O	30.16820823278837	-0.17531744711233976	7.221582859187427
O	31.8304431209829	-0.4823919927092315	5.294236921652658
O	28.85555053691799	-0.5901530569073548	7.526567747331581
O	28.82869194348106	-1.0664607350112	8.800762814140212
O	29.2566178768437	-0.2868566643792012	9.839578902874507
O	30.129608181794072	0.6266929695317072	9.34138902597693
O	30.609004592262018	0.7788202007190457	8.07217810627866
O	28.590654809515442	-0.1477056845374627	11.025398060240391
O	22.901635716887267	4.586658324438314	4.8404532563921965
O	23.270704391144147	2.7086731833534468	3.9270551690328146
O	23.793768258394106	3.0321625648721633	6.0048155308315305
