96

O	1.3189685000789466	-0.46725940665921073	0.20608187423157848
O	0.5069657900789468	0.23234006734078938	4.283525965231579
O	1.6504952800789465	-0.0533921726592107	5.071295865231579
O	0.004608890078946715	-0.5459316466592107	0.6020107692315784
O	0.012138780078946754	1.2347868083407894	4.8087619952315785
O	-0.2974580309210533	-0.2569716666592107	1.9272509952315786
O	0.5847095200789467	0.2876086223407893	2.8468697152315783
O	1.8456410300789465	0.3995144673407893	2.4505156152315783
O	2.0762024700789468	0.33846636534078933	1.0750848452315784
O	-1.6403899729210534	-0.5261014366592106	2.3804910352315782
O	1.7234299100789467	-0.5608126566592108	-1.1428580047684216
O	0.7466176100789466	-0.9431559466592107	-2.139822074768422
O	0.6221639100789467	-2.1702757266592108	-2.0535876647684215
O	1.007015460078947	-0.8159397566592107	-3.586294064768422
O	2.342332820078947	-0.6638977166592107	-3.7561224247684217
O	-0.018944749921053328	-0.0500486546592106	-4.237760894768421
O	0.6981420100789468	-1.8964568066592107	-4.554033864768421
O	-1.7707633999210532	-1.8606053566592107	2.4921306652315782
O	-2.7670306899210533	-0.1419404266592107	1.8429722952315786
O	-1.7881077949210533	-0.18683098665921072	3.6611589152315784
O	8.354127940078946	7.3585591533407895	6.148756945231579
O	7.398673660078948	6.98013072334079	2.4763855952315783
O	9.706314860078948	9.672206043340788	1.0945535952315786
O	7.038005770078947	11.133363763340789	-1.2017702747684216
O	-0.5835038909210533	7.59042280334079	-10.876703144768422
O	3.1087560900789466	6.8880126133407895	-11.418843744768422
O	4.3254133500789465	9.03381676334079	-8.528190554768422
O	1.7078297200789465	7.819476223340789	-6.044218364768422
O	2.133769480078947	4.11264134334079	-6.717009904768421
O	5.932618500078947	4.420910433340789	-6.840247724768421
O	5.775011590078947	6.025481253340789	-3.393204464768422
O	3.3797095000789463	3.361423403340789	-2.0427286347684217
O	5.696062470078947	0.6873135513407893	-3.3208634147684215
O	8.737231800078948	2.3313719233407895	-1.6511524647684215
O	6.685935880078946	2.5658083833407894	1.5807836252315786
O	5.953299160078947	-1.1226079966592106	1.2043231952315785
O	9.670576360078947	-1.9403054766592107	0.9239289052315784
O	10.415521360078948	0.1513078553407894	4.016643465231579
O	7.508035580078947	-1.2140721666592107	6.066798435231579
O	8.507790700078946	-4.7805805966592105	5.195247485231579
O	11.865535060078948	-4.28755836665921	6.914884935231579
O	7.468451720078947	-6.0593438366592105	9.81055369523158
O	2.3625182900789468	-8.751632726659212	4.964689785231578
O	-0.4558722829210533	-7.181546356659211	2.9707743652315783
O	-3.103619639921053	-7.918677726659211	5.606191285231579
O	-0.7928887689210533	-6.82808286665921	8.43011850523158
O	0.10423029007894669	-3.554853126659211	6.841773825231579
O	-3.468928689921053	-2.6849103166592108	5.777019375231578
O	-4.735617079921053	-3.406730736659211	9.314721045231579
O	-2.0791917329210534	-1.1233776666592106	10.844639355231578
O	-2.7078012199210533	1.5965986333407893	8.25870195523158
O	-6.401173789921053	1.4461537673407894	9.05870368523158
O	-3.2796681699210533	4.897006423340789	11.974490755231578
O	-6.018298789921054	6.480568073340789	9.87816115523158
O	-8.371228069921052	9.915796193340789	4.896928725231579
O	-5.987612569921053	7.00225764334079	4.465431495231579
O	-2.869115479921053	7.6255792233407895	6.545225325231579
O	-0.31565173092105325	5.48059622334079	4.708563475231578
O	2.4778552000789467	7.56305389334079	6.258940655231579
O	2.9692783000789467	11.068525463340789	7.677064105231579
O	4.197604930078946	12.122514863340788	4.236945525231579
O	1.6708259700789467	10.136225253340788	2.2430907352315783
O	-1.8869567319210532	10.83839378334079	3.3408875652315784
O	-4.552138819921053	9.983614583340788	0.7662023152315784
O	-7.743253629921053	7.83313716334079	-4.035514494768422
O	-4.108777419921053	6.134872173340789	-7.714257104768421
O	-6.647244909921053	4.2181678233407895	-9.830492404768421
O	-7.253413899921053	2.3572028133407894	-6.5540974747684215
O	-10.476939019921055	4.080440133340789	-5.486812864768421
O	-12.536299139921052	0.9199479354407893	-4.933473184768421
O	-9.793248689921054	-0.6661077766592106	-2.861812484768422
O	-9.303223869921052	2.563680433340789	-0.8950257717684216
O	-13.028121739921055	2.5270579833407893	-0.10189003536842155
O	-9.595573079921053	0.15126313334078934	3.425398155231578
O	-2.5473644199210534	-7.52036003665921	14.450376555231578
O	-8.742047579921053	-10.984727736659211	4.107123025231579
O	-11.042954169921053	-9.896746536659212	1.2402065452315785
O	-9.459940019921053	-6.439988286659211	1.3044107652315784
O	-5.954336909921054	-7.90076791665921	1.2060123052315785
O	-6.952118329921054	-10.132689736659211	-1.7112818447684215
O	-8.166365649921053	-7.15475851665921	-3.7284552847684216
O	-4.862735669921053	-5.38131961665921	-3.050169034768422
O	-2.9540153899210533	-8.519761426659212	-4.020935474768422
O	-4.188060179921053	-5.00747158665921	-8.002160614768421
O	-0.44839652692105325	-4.92529016665921	-7.177641554768421
O	0.07553889007894665	-8.187977126659211	-9.149333934768421
O	0.4163929400789468	-3.4444183766592107	-11.72461524476842
O	3.731860140078947	-5.31153780665921	-11.48405024476842
O	5.6283946200789465	2.4685812733407895	-11.900201044768421
O	11.794922160078947	-7.10482194665921	-2.266351454768422
O	8.317110390078948	-5.98416950665921	-3.427124334768422
O	8.901218160078948	-7.27850880665921	-6.956697954768421
O	7.3182599300789475	-11.173157736659212	-3.140323704768422
O	4.653264230078947	-10.034370736659211	-5.604220414768421
O	5.964033170078947	-12.297359436659212	-8.390257794768422
O	1.4617195400789469	-13.342890336659211	-4.043523794768421
