98

O	1.654548876485714	-0.3087531453285719	-2.068583282485714
O	2.489534786485714	0.777493412671428	-2.3593964124857143
O	3.3808455764857137	1.311705663671428	-1.4008643314857143
O	3.005053456485714	0.9769391144714281	-0.12568762748571438
O	2.179508736485714	-1.036292355328572	-1.0349904974857145
O	2.457603946485714	-0.29011770532857195	0.06247628251428561
O	3.0119111664857137	1.715639963671428	1.0954045375142856
O	3.794377966485714	2.665725154671428	-1.7327523384857144
O	3.6864516364857143	3.544925084671428	-2.5022687524857146
O	1.5153389864857139	-2.258071225328572	-0.7970260883857144
O	0.47903410648571376	-2.238576355328572	0.15406706351428556
O	0.8956769364857138	-1.998245525328572	1.3306647075142857
O	-0.6502173655142861	-3.1218212653285717	-0.08160274848571447
O	-0.3695141655142861	-3.8741582353285717	-1.1950430714857143
O	-0.7179587045142861	-4.114875085328572	1.0780533775142855
O	-1.9833405335142862	-2.541455775328572	-0.2355762814857144
O	-2.0992727735142864	-1.191265135328572	-0.48976157448571445
O	-3.2583574635142862	-0.681176445328572	-1.0065011614857144
O	-3.585113873514286	-0.663320975328572	-2.3464621724857144
O	-3.924547813514286	0.560559939671428	-2.993708372485714
O	-4.170191493514286	1.7232004906714282	-2.3502269424857145
O	-4.718121383514286	1.303545875671428	-1.1140303104857145
O	-4.157474443514286	0.18279425867142807	-0.4436961584857144
O	-5.184288433514286	2.553753454671428	-3.007855012485715
O	-5.921266413514287	3.181032664671428	-3.5910271224857144
O	3.5248701664857136	0.8236512625714281	2.0963727575142856
O	3.6828246064857137	2.7620479046714284	1.4230010375142854
O	1.727247576485714	1.9097267446714281	1.6627087075142855
O	6.713705336485713	-0.8412491553285719	-9.883059252485715
O	7.7686344964857135	-3.073267195328572	-12.756236492485714
O	3.2048061264857135	-8.477182095328573	-2.8074786824857147
O	2.0308294064857138	-8.709967935328573	-6.3984904524857145
O	4.613746366485714	-6.054424375328573	-7.3118402124857145
O	3.5390668964857137	-3.830074775328572	-4.3500138624857145
O	-0.05413607651428609	-4.172173835328572	-5.398056622485715
O	0.8400125464857138	-3.1307308653285717	-8.954817402485714
O	2.769700806485714	-0.16430343532857195	-7.593117842485714
O	-0.38171385551428616	0.7272444016714281	-5.571215682485715
O	-2.420717523514286	0.767370965671428	-8.752012732485714
O	0.1322821934857139	2.961527204671428	-10.478316302485714
O	0.6390333964857138	5.3109786846714275	-7.530887952485715
O	-3.039662973514286	5.827168934671429	-7.223676682485714
O	-3.290111453514286	7.258883074671427	-10.711159972485715
O	-2.308274833514286	10.538887414671427	-6.313922632485714
O	-5.591667083514286	11.364886634671427	-8.019136902485714
O	-6.378483323514287	8.689230594671429	2.732500767514286
O	-4.2967272935142855	7.051124634671428	0.03866653851428559
O	-2.564513483514286	4.481604124671428	2.276190427514286
O	-1.3921135645142861	7.248470154671429	4.711864747514285
O	-0.3888256865142861	9.502245854671427	1.8123218175142857
O	1.480069536485714	6.813147854671428	-0.000552860485714457
O	3.3061645964857136	5.708880644671428	3.3213624775142856
O	4.3191886264857136	9.218952244671428	4.188548787514286
O	5.782633566485714	9.824723154671428	0.7184258475142855
O	7.596798816485714	6.4925794846714275	0.7029240175142857
O	9.095303656485715	7.294289314671428	4.086673677514286
O	11.844613796485714	8.816736544671429	-0.41316792448571443
O	13.572828496485714	6.304150674671428	1.8429901175142855
O	12.266495196485714	1.0568711456714281	2.303844997514285
O	12.410720796485714	2.799209064671428	-1.0853055584857145
O	9.015144846485715	1.824334547671428	-2.500971082485714
O	10.235398296485714	2.5438446446714282	-5.9945505324857145
O	11.477566596485714	-2.1078709153285717	-5.594007622485715
O	5.500144776485714	-11.370434765328572	5.708887927514286
O	5.118983726485714	-7.675048765328572	6.512408187514286
O	8.166614746485715	-7.257559145328573	8.742907247514285
O	6.3723027664857135	-5.651832695328572	11.693055007514285
O	4.6296426164857145	-3.172219315328572	9.442850407514285
O	7.897845966485715	-2.439473635328572	7.607207907514285
O	7.291632476485715	2.425036164671428	8.153950587514286
O	1.554628576485714	15.418084534671427	2.8823666775142858
O	-2.720094733514286	14.038932034671427	5.276993247514286
O	-2.481187173514286	6.919817934671428	11.201030107514285
O	0.8347009664857139	2.711287314671428	10.643836607514285
O	-1.7884899505142862	3.125191034671428	7.938080337514286
O	-4.321624303514286	1.1602293356714282	9.989895407514286
O	-1.9259156435142861	-1.7614116453285718	10.350336407514286
O	-1.4019004415142862	-1.7596250553285717	6.595517007514285
O	-5.160675993514285	-1.568228855328572	5.970095297514285
O	-5.6643081835142866	-4.654992595328572	8.137436007514285
O	-2.843416693514286	-6.527281405328573	6.440533277514286
O	-3.896470653514286	-5.871634585328572	2.9001613175142857
O	-7.584445293514285	-6.4731795653285715	3.6692125275142855
O	-4.402546973514286	-10.592317365328572	2.091434527514285
O	-7.175703593514287	-9.681268965328572	-0.4081532774857144
O	-5.393025223514286	-13.683927065328572	-2.2035938424857147
O	-1.5240754205142861	-17.499262665328573	-1.6434987394857146
O	-1.165908483514286	-12.797301765328573	-4.767130542485714
O	-4.634092943514286	-7.514756405328573	-6.881223402485714
O	-8.773751293514286	-0.38029413532857204	-8.490667052485714
O	-6.932202013514287	-1.872132355328572	-5.521662322485715
O	-9.401322743514285	-4.744856225328572	-5.140773342485715
O	-12.301247003514286	-2.2653000653285718	-5.329700222485715
O	-10.960751603514286	0.20648258367142802	-2.7896726524857147
O	-9.763368593514286	-2.507719525328572	-0.3941867554857144
O	-13.135178603514285	-4.342197655328572	-0.4699193584857144
O	-10.976709803514286	0.10237093567142808	3.519040827514285
O	-13.585880503514286	-1.909273065328572	5.4786256975142855
