99

O	2.493733147794872	0.6750236787141028	1.7421613161025635
O	3.0410641777948717	0.932869148514103	3.1441934161025635
O	2.129534667794872	1.463987048714103	4.1355766961025635
O	0.7924397577948721	0.9586392987141029	4.092229156102563
O	0.28560727779487194	0.4338115237141029	2.9934756561025635
O	-1.075491591205128	-0.10182934928589704	2.8421505661025637
O	-1.687433028205128	-0.415877378285897	1.5691423661025634
O	-0.823668729205128	-0.3106467482858971	0.45941677010256354
O	0.3650629877948719	-0.006314557285897138	0.9702871661025636
O	1.134557367794872	0.23761709271410292	1.8888671861025634
O	0.6695135577948719	-1.1557067282858973	0.29379864110256354
O	0.8958716977948722	-0.999229428285897	-1.2174154138974365
O	-0.274632119205128	-1.1182502682858972	-1.9090025738974365
O	-1.283243561205128	-0.39410326828589703	-0.9627350288974365
O	-2.500072022205128	-1.1461036082858973	-1.3262418038974364
O	-2.3726284422051283	-1.2391276682858972	-2.8609109538974367
O	-0.892938350205128	-1.036901408285897	-3.1792866238974367
O	-0.36087974320512806	-2.695682728285897	-1.7071926438974365
O	-0.838206256205128	0.27570864371410286	-3.7846369438974365
O	2.491211307794872	2.023584081714103	5.212197876102564
O	-0.42284095720512804	-1.7892097582858972	-4.239266703897436
O	8.166248337794872	7.175560291714103	-0.06638757089743648
O	9.901909697794872	9.655810251714104	-2.3707914738974365
O	6.629944337794872	11.201579621714103	-3.5675522838974363
O	-4.245328502205128	7.748496351714103	-9.430605953897436
O	-1.068834718205128	6.789954171714103	-11.281888613897436
O	1.2575056877948718	8.993363011714104	-9.217960943897436
O	-0.27345283320512803	8.108947041714103	-5.853152673897436
O	-0.291455312205128	4.351361931714103	-6.418499503897436
O	3.161565417794872	4.332656201714103	-7.961669523897436
O	4.412836757794872	6.111676251714103	-4.826119103897437
O	2.595836097794872	3.674668311714103	-2.5448753838974363
O	4.115404207794872	0.7661555140141029	-4.476841603897436
O	7.589003607794872	2.2688497017141027	-4.068508993897437
O	6.945369727794873	2.778994141714103	-0.3541541198974365
O	5.947720727794872	-0.8689918782858971	-0.21289691589743648
O	9.253234597794872	-1.9400806082858972	-1.7983444338974366
O	11.203000397794872	0.22014914071410296	0.6511141791025635
O	9.240377497794872	-0.869625058285897	3.7214791461025634
O	9.673549597794873	-4.525279338285897	2.7696547861025635
O	13.441571897794873	-4.175413498285897	3.0814715461025637
O	10.364848697794873	-5.523050518285897	7.512265996102563
O	3.714333467794872	-8.070343828285896	5.112631786102564
O	0.41664943779487196	-6.392276268285897	4.206318446102563
O	-1.067912707205128	-6.861661138285897	7.675527956102563
O	2.181265587794872	-5.789795408285897	9.324631486102563
O	2.508884307794872	-2.6140281282858973	7.244716676102564
O	-1.117572127205128	-1.6459654382858973	7.621994746102564
O	-0.966782596205128	-2.134712468285897	11.412199086102564
O	2.156902817794872	0.019748322714102873	11.698271686102563
O	0.701075337794872	2.664025161714103	9.371155106102563
O	-2.3883788322051283	2.791890741714103	11.547067886102564
O	1.7831567277948719	6.114779321714103	12.832031286102563
O	-1.469732959205128	7.808667591714102	11.856355086102564
O	-5.381877192205128	11.211500421714105	7.932362056102564
O	-3.470880502205128	8.138761241714104	6.821331796102563
O	0.23639214779487205	8.665569161714103	7.542218956102563
O	1.790671447794872	6.259767011714103	5.016926006102564
O	5.058010557794872	8.185810741714104	5.256109206102564
O	6.100037967794872	12.576481321714104	2.4717181761025637
O	2.922932367794872	10.663158951714104	1.7083434461025635
O	0.07315353779487199	11.630943021714105	4.005517706102563
O	-3.410609222205128	10.898990221714104	2.6778685461025633
O	-8.245347482205128	8.711457601714104	-0.4139028498974365
O	-6.361191452205128	6.655375161714103	-5.086759173897437
O	-9.572428732205129	4.797051191714103	-5.975448293897436
O	-8.988519462205128	3.132719931714103	-2.5984227438974363
O	-11.507540302205127	5.101706821714103	-0.5344364038974365
O	-13.348878702205129	2.109717511714103	0.9481947061025635
O	-10.081669602205128	0.4282907427141029	1.9251890961025637
O	-8.762601102205128	3.701285161714103	3.3618415261025634
O	-7.507047962205128	1.4785946947141029	7.596714396102564
O	2.816436387794872	-6.170373258285897	15.624978986102564
O	-6.978661032205128	-9.662467378285896	8.644785026102564
O	-10.144830612205128	-8.543325818285897	6.783957836102563
O	-8.505527352205128	-5.199690408285897	6.0218109761025636
O	-5.377597042205128	-6.912150678285897	4.7088592561025635
O	-7.505873802205128	-9.202338678285896	2.5239451261025634
O	-9.275036012205128	-6.231636958285897	0.9263421661025635
O	-5.893524792205128	-4.671524008285897	0.2018682381025635
O	-4.6015788822051285	-7.954602968285898	-1.2311045638974365
O	-7.535895262205128	-8.071533088285896	-3.6406740838974363
O	-6.994092552205128	-4.437254218285897	-4.6156501738974365
O	-3.253974692205128	-4.603468248285897	-5.269305083897437
O	-3.668883122205128	-7.9741497982858975	-7.105194003897436
O	-4.125336642205128	-3.368580598285897	-9.904918233897437
O	-1.051142314205128	-5.444361868285897	-10.831583113897436
O	-1.073644657205128	-2.082041658285897	-14.147440913897437
O	-3.548720982205128	2.415284931714103	-15.894959113897437
O	0.8755773477948718	2.196892601714103	-12.405626913897436
O	5.226451897794872	-1.925039478285897	-9.567752463897436
O	9.841199797794872	-7.380078658285897	-5.206961523897436
O	6.265626877794872	-6.117029778285898	-5.076711073897436
O	5.390002177794872	-7.588773408285896	-8.478673523897436
O	6.921704557794872	-10.916632678285897	-7.429555163897437
O	5.170078537794872	-11.193235578285897	-4.079068653897437
O	1.8288573477948722	-10.002386878285897	-5.431403263897437
O	1.8776480477948718	-12.435941078285897	-8.369334703897437
O	-0.694613925205128	-13.036850778285896	-2.5946349838974365
