21

O	23.076397297655696	4.411592365886737	4.123083401014663
O	24.69470819968594	4.277026948329266	4.655065202744285
O	25.168979615103677	3.1355574111592164	4.662803489155667
O	26.56068153043918	3.0327467451352996	4.88022943379653
O	27.31249339862417	3.986430121593208	4.26433646361517
O	26.808267125102567	5.258191924717775	4.605894358524596
O	25.48668539300668	5.439586617832607	4.6517945666126685
O	25.05635106064104	6.76817297198521	4.434077857115905
O	24.59952531709515	7.77837766917933	4.812932868381847
O	26.961423402083195	1.7217161255449471	4.709760432171794
O	26.867232040352235	1.032627979826546	3.4910028108713744
O	27.614256016377592	-0.05122626590863888	3.4560103616318427
O	28.028008576143367	-0.23600388881660828	4.790801921763364
O	29.201336896889597	-0.9871034473036195	4.578502561246782
O	28.898690122599504	-1.812307221994524	3.3601118790639495
O	28.74992173758733	-0.5277538393807599	2.604381916182265
O	30.075866209193723	-0.030005357398193544	4.564354439440148
O	28.042771330285255	1.117915779471236	5.245551038102198
O	29.07081247490934	1.7476978144749573	5.498041278275403
O	26.130458540564927	1.5929884474834157	2.655695476785615
O	24.301004646388	1.971695590068932	5.136494663121338
