20

O	26.838709601906842	3.2495259365671316	4.345353224025116
O	23.969758145143786	6.415934203763923	4.481930561052027
O	23.462849410010588	7.057275784308967	3.359340456732566
O	25.502625324548788	2.9776794578476102	4.419940762673635
O	24.316252033994676	7.292923963693016	5.330554513465016
O	24.497796591615842	3.954667101116846	4.405817959097757
O	24.82329687670431	5.2877390816170475	4.215325926430985
O	26.125450142302377	5.6029834607037845	4.252590697457477
O	27.064490761823805	4.595972632133452	4.002899566500801
O	23.075356199823386	3.6798161004106884	4.593480020254388
O	27.959108122848637	2.409599686163812	4.314602995044822
O	28.002025148200094	1.0293543499142663	4.225188900111345
O	27.116411120856288	0.36440700190580433	4.7346825827355055
O	29.081346547596148	0.07515329069885057	3.9659271837555194
O	30.345120846473876	0.5306003222178601	4.133891828982923
O	28.753637021163875	-0.7029704665542558	2.7644612962275152
O	29.102178377331803	-1.1953938414710548	4.75573884999776
O	22.27656705544553	4.7418419131041025	4.846635859048196
O	22.32690234824777	2.8813194552430654	3.840418750858645
O	22.91852746991514	3.1090501940339115	5.813467492902569
