99

O	2.6109208402051287	-0.4004892892820511	2.0404417063115403
O	3.065281130205129	-0.7253484592820512	3.43103682631154
O	2.0378718102051288	-0.3977061092820511	4.47550614631154
O	2.3565434402051286	0.002658071717948962	5.59486798631154
O	0.6476537602051287	-0.770504919282051	4.14561451631154
O	0.2624942502051286	-0.455309389282051	2.73827069631154
O	-1.1686834613948713	-0.761218499282051	2.42862337631154
O	-1.5421110727948713	-0.2536027292820511	1.06008836631154
O	-0.5840066147948714	-0.667239489282051	-0.01999065468845998
O	0.8326339402051286	-0.25304827728205104	0.37020911731154005
O	1.2370319102051288	-0.8846985192820511	1.68330829631154
O	1.7649370502051285	-0.585582909282051	-0.75938064768846
O	1.3416621002051288	-0.035667178282051126	-2.09003389368846
O	-0.07195387979487133	-0.432297349282051	-2.4702191436884604
O	-0.9337647067948713	0.0212363717179489	-1.2945036336884599
O	-2.3070727097948716	-0.18994533228205113	-1.84181037368846
O	-2.1718426897948713	0.2693111437179489	-3.29595710368846
O	-0.6762072857948713	0.39369220971794894	-3.5670844736884604
O	-0.32776837279487137	-0.012936073282051042	-4.84142159368846
O	-0.2025989477948713	-1.8976728892820511	-2.7725271436884604
O	1.1577259702051286	-2.404608049282051	1.59192146631154
O	8.971487430205128	5.615831320717949	2.5145878363115397
O	11.157373030205129	8.43103249071795	1.18805262631154
O	8.19279907020513	10.71329991071795	0.45084221631154
O	-2.5605314797948715	10.86259931071795	-6.54200440368846
O	0.6048188002051287	10.104987050717948	-8.50901980368846
O	3.020477600205129	11.185469310717949	-5.76821949368846
O	1.1447484102051286	9.477307410717948	-2.9312393236884597
O	0.7027726502051286	6.136425330717949	-4.68079381368846
O	4.251783760205129	6.155907520717949	-6.03503530368846
O	5.469192260205129	6.640562670717949	-2.4509172136884603
O	3.2175829902051287	3.886135780717949	-1.1105452806884601
O	4.507341110205129	1.554820578717949	-3.8405798336884596
O	8.102832530205129	2.3567502807179492	-2.88667452368846
O	7.271453930205128	1.7503349207179488	0.77458581631154
O	5.817839610205129	-1.5852722392820513	-0.29103076198846
O	9.05263333020513	-2.547106389282051	-2.0403190236884603
O	11.074073530205128	-1.566468329282051	1.03620532631154
O	8.76995167020513	-3.283972759282051	3.52603618631154
O	8.822571750205128	-6.475971879282051	1.45597606631154
O	12.575359830205128	-6.773793749282051	1.97858980631154
O	9.03595663020513	-9.013191379282052	5.63614167631154
O	2.3150026902051284	-9.72416638928205	2.3442197463115404
O	-0.6803599327948713	-7.395580989282052	1.9199424563115401
O	-2.4670024297948716	-8.718357219282051	5.00529207631154
O	0.7558268802051287	-8.700222269282051	7.01673065631154
O	1.6220762002051285	-5.120809469282051	6.09233686631154
O	-1.8969786297948712	-3.799070929282051	6.66850798631154
O	-2.069323334794871	-5.485272119282051	10.08629748631154
O	1.2756111002051285	-3.981390459282051	11.12928648631154
O	0.3380214802051287	-0.5637532892820512	9.742715746311541
O	-2.8748842797948715	-0.7018176592820511	11.74115428631154
O	1.5507525802051287	1.4258696047179489	14.18158738631154
O	-1.3890664037948712	3.777752750717949	13.70357898631154
O	-4.544881269794871	8.748713410717947	10.96463748631154
O	-2.940917489794871	5.936477250717949	8.96355159631154
O	0.7305818502051287	5.716887230717949	9.95724868631154
O	2.1846151602051282	4.047496170717949	6.8550649763115405
O	5.634203100205129	5.334084840717949	7.79647383631154
O	7.3943019102051295	10.176880690717947	6.59343622631154
O	4.069542400205129	9.06237638071795	5.1573766463115405
O	1.1985420002051288	9.636834660717948	7.563748946311541
O	-2.236169139794871	9.82183577071795	5.95240587631154
O	-7.059892449794871	9.446115300717949	2.1838176563115397
O	-5.113647149794871	8.755430450717949	-2.84780767368846
O	-8.460031439794871	7.744587700717949	-4.38796157368846
O	-8.324363789794871	5.018408900717949	-1.72118245368846
O	-10.716981459794871	6.554372520717949	0.8008776863115401
O	-13.022035069794871	3.5396053607179487	1.16610139631154
O	-10.066402559794872	1.198404959717949	1.64996794631154
O	-8.467351759794871	3.624262390717949	4.11714868631154
O	-7.821922469794871	0.02804041171794891	7.444276496311541
O	0.8720884502051287	-11.13598218928205	12.86431658631154
O	-8.717715859794872	-10.809842789282051	4.8249342963115405
O	-11.58404376979487	-8.73935813928205	3.33051685631154
O	-9.48853954979487	-5.587135319282051	3.7409124063115398
O	-6.513081739794871	-7.219864879282051	2.0400768863115397
O	-8.745032919794872	-8.381380489282051	-0.83465387068846
O	-10.004187279794872	-4.837214399282051	-1.43670574368846
O	-6.4224229097948715	-3.611093999282051	-1.53242433368846
O	-5.429806849794871	-6.424710469282051	-3.88754650368846
O	-8.175344109794871	-5.373374709282051	-6.29312761368846
O	-7.162297239794871	-1.7265407992820512	-6.045034033688459
O	-3.4410194397948715	-2.215501219282051	-6.61757269368846
O	-4.077677729794871	-4.718959859282051	-9.42448361368846
O	-3.765870349794871	0.5570585437179489	-10.59787921368846
O	-0.9016693917948713	-1.5276206192820512	-12.04320741368846
O	-0.26611054679487134	2.680955210717949	-14.09845841368846
O	-2.0429692417948715	7.799904380717949	-14.363031713688459
O	2.0547177602051283	5.875176760717949	-11.00159581368846
O	5.632334750205129	0.4892055997179489	-9.49650814368846
O	9.220259230205128	-6.651581939282051	-7.00398359368846
O	5.820326180205129	-5.007355459282051	-6.5748174736884595
O	5.036473840205129	-5.188074269282051	-10.30356361368846
O	6.0698465702051285	-8.857346579282051	-10.34389981368846
O	4.047900590205129	-9.928067689282052	-7.322064743688459
O	0.9882215502051286	-7.901675729282052	-8.31496013368846
O	0.9644701302051286	-9.287117589282051	-11.88044221368846
O	-2.0882348627948715	-11.302184489282052	-6.70026771368846
