91

O	0.9059333516259399	-0.15021528054545397	2.8816808432742413
O	2.28694430162594	-0.08548502054545404	3.192116463274241
O	3.25185630162594	-0.3958889905454539	2.2171876432742414
O	2.61888282162594	-1.183493990545454	1.2744573232742415
O	1.30160743162594	-0.7707730205454539	0.7646984132742415
O	0.47322573062593987	-0.12972116054545402	1.6190102332742415
O	4.68645263162594	-0.46743160054545396	2.5500008632742412
O	5.66110501162594	0.13154310945454606	2.1611322632742413
O	-0.9282337113740602	-0.027476270545453874	1.5922975132742412
O	-1.7055720883740602	-0.548174380545454	0.5703385332742416
O	-1.6561516383740602	-1.777249850545454	0.4368173032742415
O	-2.66712262837406	0.39624188645454606	-0.013086845725758578
O	-3.25094634837406	1.021106456454546	1.1182444432742416
O	-3.87195202837406	-0.215757600545454	-0.6692888417257585
O	-1.89608139837406	1.3329018094545462	-0.9013868877257585
O	-0.5679057003740602	1.039158158454546	-1.2019809457257584
O	0.5685345736259398	1.8042499724545462	-1.2453420267257584
O	1.19958694162594	2.450344219454546	-0.18727621372575853
O	2.57439161162594	2.088218912454546	-0.08955402372575855
O	3.43591184162594	2.227247239454546	-1.1246639857257585
O	2.7586485216259398	2.367586769454546	-2.2715224067257584
O	1.34393873162594	2.118485089454546	-2.3732724467257587
O	4.86910223162594	2.127853401454546	-1.1135417497257585
O	5.84581672162594	1.7348939984545462	-0.5976352442257585
O	3.8072411616259396	-1.448078180545454	-0.5095129373257585
O	5.14382732162594	3.210396409454546	10.234989403274241
O	4.63138138162594	5.615014339454547	13.15483250327424
O	-5.23758896837406	2.1118854194545458	6.8605816732742415
O	-3.96618944837406	5.623384129454546	7.502502163274241
O	-0.8874683043740601	4.062763909454546	9.15348948327424
O	-0.39233734968606016	1.617747298454546	6.279257263274242
O	-0.6993867513740601	4.476193929454546	3.8132751632742417
O	1.9587115516259401	6.481096279454546	5.760679543274242
O	4.23327894162594	3.408224739454546	5.834225463274242
O	3.6649745816259403	3.412746499454546	2.4173594932742413
O	4.92855196162594	6.7489067094545465	1.5796899632742414
O	7.98343796162594	6.009738209454547	3.731824923274241
O	8.79583415162594	2.657687759454546	2.103671143274241
O	8.58740056162594	4.241948249454547	-1.3493585237257584
O	11.37667887162594	6.569750429454546	-0.5655755061257586
O	12.41601337162594	1.545635520454546	-2.7455213967257586
O	13.35964347162594	4.374364859454547	-5.085202146725758
O	6.07575638162594	-2.669900820545454	-9.41181901672576
O	6.15118615162594	-1.126446220545454	-6.018006746725758
O	3.10752272162594	-2.9796188505454544	-4.576689386725758
O	4.52789894162594	-6.411346670545454	-5.617663476725758
O	7.99199719162594	-5.471956460545455	-4.3240441367257585
O	6.71829259162594	-4.2870147405454535	-0.9553077437257586
O	4.37662695162594	-7.272383660545454	-0.46790498542575854
O	7.18716879162594	-9.686774150545453	-1.2854672457257585
O	9.51319932162594	-7.989217690545454	1.2261960232742415
O	6.7853807016259395	-7.820613710545453	3.865533443274241
O	9.93562417162594	-10.055185850545454	7.072962933274241
O	1.91922847162594	-9.854091150545454	8.94153312327424
O	5.03664322162594	-7.877052920545454	9.905338703274241
O	4.45391287162594	-4.640952650545454	7.985889453274242
O	6.79053336162594	-2.8139518805454538	10.30122410327424
O	-11.40616162837406	-4.751415700545454	6.1033699732742415
O	-8.53842107837406	-6.368426970545453	4.177658783274242
O	-8.87137431837406	-9.880822450545454	5.615882923274242
O	-9.07803435837406	-11.761602250545453	2.3047866632742413
O	-6.06133078837406	-9.896708550545453	0.9556392832742414
O	-4.16442519837406	-10.469794450545454	4.215318093274242
O	10.06594157162594	-8.349523590545454	-9.32336791672576
O	-1.88918048837406	-10.715321450545453	-4.758850386725758
O	-0.6048890383740602	-7.326077990545453	-5.907093246725759
O	-3.60510572837406	-6.959697060545453	-8.24125413672576
O	-6.03009660837406	-7.555260760545453	-5.377110416725758
O	-4.2227576983740605	-4.894135060545453	-3.3370406867257585
O	-4.30912095837406	-2.515361640545454	-6.311675396725758
O	-8.07804079837406	-2.913764210545454	-6.552208456725758
O	-8.48767251837406	-2.441329800545454	-2.8112554667257585
O	-6.46342470837406	0.688784912454546	-2.5116313367257583
O	-7.95605057837406	2.2150194394545464	-5.668006436725758
O	-10.25872372837406	3.0918116094545463	-0.8441662917257585
O	-8.74371190837406	6.232669439454545	-2.4238823367257587
O	-11.21243612837406	7.989797139454547	1.2087047132742414
O	-14.27845612837406	6.728718999454546	5.506796413274242
O	-8.68195701837406	7.415423649454546	5.502024503274241
O	-5.70260135837406	9.653507429454546	4.796684013274242
O	-3.50268102837406	9.165344599454546	1.7255827332742415
O	-0.10115444937406015	10.887519449454546	1.5708995832742412
O	3.02807315162594	10.125120879454547	-3.405430476725759
O	0.5914478846259399	7.3130867694545465	-2.6366212267257585
O	-2.42723596837406	9.433449319454546	-3.9170567667257585
O	-0.5324357873740602	10.323237199454546	-7.081959636725758
O	0.5842595916259399	6.816718189454546	-7.932452626725758
O	-2.75941723837406	5.230322729454546	-7.050353386725758
O	-4.75008274837406	7.737398349454546	-9.200393206725758
O	-2.49312468837406	1.995288232454546	-10.69961619672576
O	-5.52735267837406	2.545046339454546	-13.014417296725759
