98

O	-1.1888102115435897	-0.24728114976923066	-0.1255933928243591
O	-0.2969570685435897	3.6273937302307697	-1.6612484838243593
O	-1.4468295875435897	4.34743405023077	-2.010774523824359
O	-0.031156087543589672	-0.017655009769230734	-0.8155295708243591
O	0.5065704364564103	4.436230160230769	-1.1244625918243591
O	0.36188032645641033	1.2295482632307693	-1.3218882048243592
O	-0.37648833054358966	2.3598389902307693	-0.9687858118243591
O	-1.5494140495435897	2.1671778902307692	-0.3424429368243591
O	-1.7715773715435899	0.9561501852307693	0.3017495731756409
O	1.5840802964564105	1.4103614762307692	-2.0925042538243592
O	-1.6698947355435898	-1.4459609497692305	0.420704076175641
O	-0.8228554704435898	-2.5632694597692307	0.5154958361756409
O	-0.3771608825435897	-2.987900199769231	-0.5487590983243591
O	-1.2708710565435897	-3.837237969769231	1.1579938861756407
O	-2.5972721835435895	-3.9651382497692307	1.325090756175641
O	-0.8194127943435897	-5.133201809769231	0.5866699361756408
O	-0.3624750805435897	-4.150899829769231	2.239644036175641
O	1.7304325564564105	2.677666270230769	-2.5807928838243592
O	2.8445471164564102	1.2356842592307693	-1.663824093824359
O	1.6331583964564105	0.8479682762307693	-3.317057753824359
O	-7.1064502435435895	8.686797260230769	5.150800956175641
O	-6.006330813543589	5.262063120230769	6.421013296175642
O	-7.6297375035435895	5.469418960230769	9.85414805617564
O	-4.57058647354359	4.074160870230769	11.65023275617564
O	2.81572864645641	-6.390490879769231	11.80608615617564
O	-0.9020264761435897	-7.057572699769231	12.23345905617564
O	-1.8572532205435897	-3.436640039769231	12.88716145617564
O	0.3010836764564102	-1.9736450097692309	10.10784195617564
O	-0.8149092795435897	-4.358846519769231	7.419740156175641
O	-4.4554251335435895	-4.166520109769231	8.46830084617564
O	-4.211102083543589	-0.38175370976923073	8.12474952617564
O	-2.4989958435435895	-0.5880358497692306	4.731773396175641
O	-5.20281892354359	-2.923346899769231	3.5464949661756404
O	-7.94328688354359	-0.5509305397692308	4.738907406175641
O	-6.1353791935435895	2.290962520230769	2.961984186175641
O	-6.113874933543589	0.13062045723076932	-0.14567994382435911
O	-9.89623435354359	-0.36723794976923063	0.06742106417564087
O	-10.40692816354359	3.385539980230769	0.4876219461756409
O	-7.97222041354359	4.37829587023077	-2.2713815238243593
O	-9.62664453354359	1.9251928272307692	-4.665834813824358
O	-12.924055773543591	3.797034170230769	-4.379615253824359
O	-11.13696137354359	6.993181100230769	-5.397959703824359
O	-9.18245861354359	5.278775360230769	-8.20884859382436
O	-4.39803710354359	-0.4744035897692307	-9.19802132382436
O	-1.1692634885435897	-1.5365405497692308	-7.446346283824359
O	1.0705786964564104	0.26765450323076934	-9.94505636382436
O	-1.1580548525435896	3.3603371602307694	-9.92118435382436
O	-1.2521423105435896	3.6177876302307697	-6.1635311438243585
O	2.49244565645641	2.9713060102307693	-5.6767816138243585
O	3.336973886456411	5.637971130230769	-8.25141902382436
O	1.0989198664564104	8.18420837023077	-6.503268983824359
O	2.4405398864564107	7.238460890230769	-3.0815715238243593
O	5.960309036456411	7.723504660230769	-4.350942143824359
O	4.960875936456411	11.173786540230768	-5.5628135038243585
O	3.3777178664564103	12.059827240230769	-2.194043763824359
O	6.52071972645641	10.913911340230769	-0.39615979882435914
O	5.792851066456411	15.841515740230768	1.4314390361756408
O	9.829668826456409	8.15134266023077	4.457756656175642
O	6.93566405645641	6.438390750230769	2.6767796061756406
O	3.8930714364564105	8.69941526023077	2.846870156175641
O	1.1079607264564102	6.155635010230769	2.4162334061756408
O	-1.3226580385435898	8.63712361023077	4.045642426175641
O	-1.1993244915435897	11.616358540230769	6.444270446175641
O	-1.9579255635435897	9.177615870230769	9.25560632617564
O	0.2420055364564102	6.3668218002307695	8.01280112617564
O	3.7847996264564108	7.514270120230769	7.338454846175641
O	6.3881293264564105	4.745587940230769	7.312713226175641
O	9.41938862645641	-0.6187847297692306	7.191918956175641
O	5.76792389645641	-4.504875209769231	8.29973559617564
O	8.00957619645641	-7.40020521976923	7.189360116175641
O	8.02413023645641	-5.514889899769231	3.8907408361756404
O	11.429496926456409	-3.828833649769231	4.132104586175641
O	12.76697322645641	-4.974205199769231	0.7481963061756408
O	9.591857426456409	-3.809183569769231	-1.0218191088243591
O	9.648283426456409	-0.5123991097692306	0.8485460061756408
O	13.25042282645641	0.0012368902307693386	-0.3305789808243591
O	9.17613792645641	2.0475960952307695	-3.3547395838243594
O	0.01677297445641035	8.202531880230769	-13.80147894382436
O	6.0801957064564105	-2.7620604497692307	-12.97656834382436
O	8.735263246456409	-4.8125270797692306	-11.12443084382436
O	7.8806918264564105	-3.0009850097692308	-7.897928163824359
O	4.170819526456411	-3.6459254797692306	-8.37004400382436
O	4.877995146456411	-7.317950269769231	-9.03895318382436
O	6.79935365645641	-7.68233733976923	-5.7885758638243585
O	3.87371254645641	-6.065671569769231	-3.9240907638243594
O	1.4519240864564102	-8.39066308976923	-5.7233193238243585
O	3.6162240264564103	-10.192178959769231	-1.0605265498243592
O	-0.09690201354358974	-9.225486959769231	-0.5953419135243592
O	-1.1004235355435896	-12.576924659769231	-2.302877823824359
O	-3.94402238354359	-13.093202559769232	2.0232498161756407
O	-4.21900112354359	-9.54417125976923	9.235794686175641
O	-12.789129773543591	-5.583083899769231	-2.316509573824359
O	-9.089888953543591	-6.191968259769231	-1.5193800708243592
O	-9.70394673354359	-9.878481459769231	-0.7812593638243591
O	-9.18596705354359	-8.52819521976923	-6.270973363824359
O	-6.1888965335435895	-10.225988559769231	-4.659060863824359
O	-7.73798335354359	-13.708378359769231	-4.953595373824359
O	-3.82993940354359	-10.62071875976923	-8.88343968382436
