25

O	27.954489962678075	3.487672588524429	3.95388386769264
O	27.83193962108459	4.879295469148758	4.190777718694555
O	27.27057195627395	5.351216134842184	5.390798229602131
O	26.4976881922223	4.322323271787808	5.894531971053633
O	27.05761277701538	2.962225092286644	5.939527525986257
O	27.909068382117297	2.6034789109452037	4.9529491228847675
O	27.008133387567042	6.786148823158356	5.605376402207454
O	27.400147648416812	7.590844151319492	6.41699638794663
O	28.228916434831632	1.320979585576223	4.475299818358089
O	27.73251094096999	0.15743608226096528	5.040569428786637
O	26.504019696367532	0.02066308025447916	4.985804307113478
O	28.75008892696976	-0.8493050834770945	5.369041599338149
O	29.576297586418498	-0.8783310312692347	4.216759907323123
O	28.27074608785812	-2.2718533825775555	5.426878387507823
O	29.452801919040176	-0.3891487985074147	6.6161839322375755
O	28.92182153597195	0.6789011843648829	7.335921295342137
O	29.48794760471393	1.7834448020697788	7.917494020323823
O	30.134485487231583	2.8403715308980053	7.284988851837184
O	29.571312932953468	4.0985156725498575	7.6464888352079114
O	29.461115044826123	4.500021271217161	8.934762212845747
O	29.584436601257448	3.449609022037447	9.75640138341226
O	29.553530250513774	2.0886339809524124	9.286720382553206
O	29.137375117013622	5.805817276654837	9.43887210610051
O	28.65152730097294	6.858631083436161	9.26542817366581
O	25.85987493514842	4.689530565815738	7.9250745785514995
