99

O	3.231902925820897	0.6449895523346152	0.3533542127948722
O	4.261048815820897	1.7156590583346152	0.5570972647948722
O	3.7226201958208973	2.9907705253346153	1.0777727957948722
O	4.316436905820897	3.702595725334615	1.8860417757948724
O	2.425708445820897	3.4554413053346154	0.5454283537948723
O	1.4434183658208968	2.337901425334615	0.42446721179487223
O	0.09265631582089662	2.8031894653346154	-0.01689285420512776
O	-0.9308022691791034	1.7027401403346152	-0.04454830120512776
O	-0.4329987421791033	0.4302582233346152	-0.6685972012051278
O	0.9124377858208967	0.0027615453346152563	-0.08453833820512774
O	1.9440934558208969	1.1053714523346152	-0.26632996720512775
O	1.3387777458208967	-1.2966517546653846	-0.7040683462051278
O	0.30759461582089664	-2.3850919646653845	-0.6380472912051278
O	-1.0317098981791033	-1.9639959146653845	-1.1765469272051279
O	-1.3947068211791034	-0.6837908446653848	-0.4340444676051277
O	-2.805269614179103	-0.47564523466538466	-0.8816300342051278
O	-3.3722849041791036	-1.8966021446653847	-0.9000853152051277
O	-2.1837453741791033	-2.838018664665385	-0.7731361582051277
O	-2.317625534179103	-3.985233584665385	-1.5327460342051276
O	-1.0235923787791033	-1.8136952146653846	-2.670714044205128
O	2.142730845820897	1.3658722833346153	-1.7556430042051279
O	7.936199115820896	-3.3772997446653847	6.629982215794873
O	8.780449445820897	-6.220587414665385	9.011174655794873
O	5.401753345820897	-6.072473604665385	10.772799935794872
O	-7.098341974179103	-7.159679644665386	8.104270945794873
O	-4.966945264179103	-10.091225184665385	6.953785375794872
O	-1.8833569841791034	-9.131768874665385	8.975553675794872
O	-2.0320253511791035	-5.423063164665385	8.134934035794872
O	-2.5144131941791033	-5.869058304665385	4.395650685794872
O	0.06565435582089663	-8.650994654665384	4.196327635794872
O	2.553010765820897	-6.273088314665385	5.846610215794873
O	1.6449914858208967	-3.404812414665385	3.5249697957948722
O	2.092417885820897	-5.728120624665385	0.5332886717948723
O	5.531361625820897	-6.762986754665385	1.8007326257948724
O	6.443476015820897	-3.1070187146653847	2.3236340557948725
O	5.347998585820897	-2.5045157746653848	-1.2553734862051278
O	7.670631795820897	-5.230161854665385	-2.5286427142051275
O	10.564157775820897	-3.778648944665385	-0.5202234192051277
O	9.889916375820897	-0.1677511746653847	-1.5031855842051276
O	9.684727575820897	-1.1482605646653847	-5.173447644205128
O	13.292071275820897	-2.3420813246653847	-5.075410424205128
O	12.112449675820898	2.9609896153346154	-6.259827254205128
O	4.905508445820897	3.4050866353346154	-8.353407804205128
O	1.6213757958208965	3.8215934353346155	-6.450722744205128
O	1.5808437258208967	7.603738645334615	-6.843674284205128
O	5.279956285820897	7.842063775334615	-6.010841204205128
O	4.973148535820897	5.751382635334615	-2.8558091842051274
O	1.8373158458208965	7.519764135334615	-1.6276950642051276
O	3.4389418958208973	10.937501615334616	-2.1673226742051277
O	6.555815765820897	9.918017185334616	-0.22106952520512774
O	4.484506305820897	8.296300755334615	2.5306736257948725
O	2.4965819158208964	11.505936815334616	2.839800195794872
O	7.037390525820896	11.023537415334616	5.876078875794873
O	3.7759961758208966	11.362685615334616	7.7863127757948725
O	-1.1266442795091034	9.208954405334616	11.458504835794873
O	-0.0003972241791032616	7.482524215334615	8.259749775794873
O	3.716299855820897	6.708145415334615	8.574487325794871
O	4.029323225820897	3.8219345353346155	6.106111355794872
O	7.237911305820896	2.722568635334615	7.819821425794872
O	7.366752455820897	-0.33357954466538475	12.137687235794873
O	4.028240465820897	0.24248037333461525	10.439781035794873
O	2.3771648658208964	3.4608666253346154	11.570328035794873
O	-1.3816916481791033	3.6095478353346153	11.044547135794872
O	-7.168162574179103	2.694711265334615	9.229839585794872
O	-7.413648654179103	-2.3099222046653844	7.114513665794872
O	-10.833862924179103	-1.8380933946653846	5.480432375794872
O	-9.073046574179104	1.0644953753346151	3.7376035157948726
O	-10.437402124179103	3.918737645334615	5.844202725794872
O	-11.752385124179103	6.047396355334615	2.9674233757948723
O	-8.477056074179103	5.704361215334615	1.0697673457948724
O	-6.489617684179103	6.461121125334615	4.233158615794872
O	-3.8332499341791033	9.914766625334616	1.9014466757948725
O	8.298693205820896	13.392909515334615	-6.485889064205128
O	-3.641332094179103	10.835319115334617	-9.244883464205127
O	-7.209118554179103	10.346205385334615	-7.915096334205128
O	-5.782879374179103	8.940444205334616	-4.676688674205128
O	-3.539719324179103	6.544046305334615	-6.583771004205127
O	-6.499945064179103	5.406892405334615	-8.712651944205128
O	-8.551965074179103	4.571452775334615	-5.614389134205128
O	-5.646310824179103	2.5425016153346154	-4.273797904205128
O	-5.213131174179103	0.7933869312346152	-7.6219006642051275
O	-8.857674284179103	-0.2700183446653849	-7.534000824205128
O	-8.552262914179103	-1.4452716146653848	-3.9400489642051277
O	-5.395453134179103	-3.5094245446653844	-4.367670724205128
O	-6.656365974179103	-4.977710944665385	-7.656239194205128
O	-7.884954664179103	-7.457689644665385	-3.003667164205128
O	-5.547380004179103	-9.471268984665384	-5.266749084205127
O	-6.651901684179103	-12.580380184665385	-1.8822559942051278
O	-9.323806144179104	-13.291656084665384	2.7859982757948725
O	-3.9100631041791036	-11.808346584665385	2.2487565757948724
O	0.9311060158208966	-10.797259384665384	-2.1798024742051276
O	6.531692895820897	-8.499450164665385	-7.962591794205127
O	3.377316785820897	-6.997136734665385	-6.4661194842051275
O	1.155794985820897	-9.772604584665384	-7.848971184205127
O	2.761190665820897	-9.348948484665383	-11.280330564205128
O	2.4367032958208963	-5.577334314665385	-11.467123164205127
O	-1.0838969418791033	-5.539784314665385	-10.033618854205127
O	-2.330889474179103	-8.218579094665385	-12.464463264205127
O	-2.485540954179103	-1.8963119746653847	-12.931366964205127
