99

O	2.899403124641026	-0.07645164555128181	1.5284360858999995
O	3.5466072146410257	-0.1177757215512818	2.910845755899999
O	2.554829474641026	0.13937558344871814	3.9698044758999997
O	2.938681134641026	0.39138788944871816	5.141773365899999
O	1.243524054641026	-0.3182815565512819	3.6229471458999996
O	0.7109566146410258	-0.3906799265512818	2.3677339058999993
O	-0.7512197013589742	-1.0150760365512816	2.3617729958999996
O	-1.4094508743589742	-0.5646943465512818	1.1105825358999994
O	-0.4622211203589742	-0.7442881765512818	-0.03503562010000061
O	0.8860227746410259	-0.0857277855512818	0.15016970689999937
O	1.592658544641026	-0.7799052165512818	1.3191346858999995
O	1.6599384746410257	-0.2457148365512818	-1.1269374371000005
O	0.9410914846410259	0.19457358144871817	-2.3662603641000004
O	-0.3947044853589742	-0.47199649655128184	-2.5350026741000007
O	-1.1451099146489743	-0.18059265255128187	-1.2377783621000007
O	-2.5027020553589745	-0.7109169865512818	-1.5564537541000005
O	-2.688757575358974	-0.24485006855128189	-3.0009328841000005
O	-1.3287262973589742	0.19542878444871814	-3.504989164100001
O	-1.0910587273589742	-0.12877438455128187	-4.8254444241000005
O	-0.27128860935897414	-1.9433485565512818	-2.8154652141000005
O	1.605644654641026	-2.232766756551282	0.9070195658999993
O	7.879571704641027	7.400343143448718	1.1576696958999995
O	9.192107034641026	10.590230143448718	-0.4451669561000006
O	5.740547134641026	12.197017433448718	-0.6618895801000007
O	-5.786066335358974	9.987791503448717	-5.851058874100001
O	-2.8865046853589744	9.879075683448718	-8.309109094100002
O	-0.3443382403589742	11.483631833448717	-5.968132674100001
O	-1.3456338553589742	9.463709863448718	-2.900744874100001
O	-1.3529114943589742	6.0835535234487175	-4.624419184100001
O	1.8543720746410257	6.820134713448718	-6.5208585341
O	3.495146044641026	7.5973964534487175	-3.1633229041000006
O	2.109402694641026	4.456425783448718	-1.5350112041000006
O	3.4047641646410263	2.4043973434487182	-4.477494824100001
O	6.859927774641026	3.9535168034487183	-4.0884687241
O	6.753319844641026	3.2341114134487183	-0.34638440870000065
O	5.8773788746410265	-0.3406728865512819	-1.2285776331000005
O	8.949286934641027	-0.6223355365512818	-3.5059326341000006
O	11.172069234641025	0.8010222230487182	-0.7651678091000006
O	9.693830934641026	-1.3256100665512816	2.0241275958999996
O	10.103586934641026	-4.4656191365512825	-0.09077656610000062
O	13.863703134641026	-3.9561034065512817	-0.17468052910000062
O	11.504680634641026	-6.838527666551282	3.9537509858999997
O	4.644675144641026	-9.005534596551282	1.7640686058999995
O	1.199450114641026	-7.374435826551283	1.8670789058999993
O	0.24057647464102572	-8.976142166551282	5.1746157159
O	3.670786564641026	-8.252904956551282	6.644258795899999
O	3.6191608046410257	-4.587771476551282	5.663630295899999
O	0.032126034641025925	-4.032977596551282	6.829622625899999
O	0.7681357346410258	-5.641370656551282	10.1831886859
O	3.844907224641026	-3.448515046551282	10.689344885899999
O	1.9985082946410258	-0.33262583655128186	9.5303612859
O	-0.7440155463589742	-1.1064842365512817	12.029965685899999
O	3.479159474641026	1.9329479934487184	13.746808185899999
O	0.07386402464102582	3.611069463448718	13.8112681859
O	-4.4599688953589745	7.771754473448718	11.7102262859
O	-2.647637465358974	5.333350723448718	9.434251005899998
O	1.1045770246410258	5.890339053448717	9.8100849859
O	2.349610104641026	4.509217273448718	6.477537865899999
O	5.5624257246410265	6.501482773448718	6.8876339059
O	6.059676594641026	11.597832233448718	5.519486025899999
O	2.8562039846410254	9.788461583448719	4.6077803258999985
O	0.3512447346410259	9.785110703448717	7.4506889059
O	-3.261545795358974	9.230790963448717	6.414628735899999
O	-8.440908525358974	7.796343773448718	3.4532038158999994
O	-7.225506355358974	7.454341953448718	-1.8387658541000007
O	-10.483673095358974	5.735572623448718	-2.8436903941000007
O	-9.357241505358974	3.1420500334487182	-0.2815498487000006
O	-11.590873765358975	4.182908783448718	2.6161930158999995
O	-13.122976465358974	0.7563761748487182	3.2887229958999993
O	-9.703733805358974	-0.9061159165512819	3.2527469158999995
O	-8.271693015358974	1.838275963448718	5.4776839559
O	-6.358478555358974	-1.4920899765512816	8.588477095899998
O	5.225822164641026	-10.506871066551282	12.355561785899999
O	-5.391415545358974	-12.321776466551283	5.950317655899999
O	-8.826022635358974	-10.914539066551281	4.966815435899999
O	-7.394458085358974	-7.3909138765512825	5.1021906159
O	-4.454563265358974	-8.396492266551283	2.9185949058999996
O	-6.822479105358974	-10.030952966551283	0.4122358018999994
O	-8.856109395358974	-6.830102076551282	0.08869353689999937
O	-5.655132465358974	-4.876182376551282	-0.5402957631000006
O	-4.508703655358974	-7.462641886551282	-3.081898404100001
O	-7.765284245358974	-7.057888106551282	-5.002666334100001
O	-7.514274835358974	-3.277233956551282	-4.855162314100001
O	-3.9205946853589744	-2.9863851265512817	-6.031306624100001
O	-4.450433985358974	-5.609937036551282	-8.735327214100002
O	-5.443851175358974	-0.4042787865512819	-9.852740434100001
O	-2.4745760453589742	-1.8663274565512817	-11.7732958141
O	-3.066947855358974	2.3507990434487183	-13.825315214100002
O	-5.892093515358974	6.983852693448718	-13.713800414100001
O	-1.0006056243589743	6.008823793448718	-11.079714714100001
O	3.816592014641026	1.5144791534487183	-10.262304104100002
O	9.166910234641026	-4.678579926551282	-8.5019376741
O	5.610937264641026	-3.7753870765512816	-7.504790744100001
O	4.296920984641026	-4.1748882665512825	-11.0626647141
O	6.055793624641026	-7.546918466551283	-11.3312602141
O	4.809795484641026	-8.969921036551282	-8.0490500941
O	1.277921964641026	-7.640752336551282	-8.5005902941
O	0.9756780646410259	-9.060307906551282	-12.044715614100001
O	-0.7239014933589742	-11.583424566551281	-6.483475914100001
