18

O	23.290842716893742	3.8689984837064393	4.155156993071206
O	26.901368726150427	5.245620076871743	4.598828747908815
O	25.538483070540295	5.251057217624979	4.5995710525247535
O	24.92927251329163	4.044441816915002	4.680945413029572
O	25.81407325865666	2.7943302603376026	4.671604606248566
O	24.86836575432807	1.64910153668847	4.924949384170476
O	27.128716144112943	2.903265804338046	4.587050209030718
O	27.55695382000008	4.169552623338017	4.156885332765513
O	27.408310905939008	1.708790717191164	3.9073610842466415
O	27.779342584713596	0.6565900262409747	3.809665879406549
O	28.736683232025662	0.458669847019741	5.000221938647876
O	29.556876558697198	1.4159632929006862	4.8262979234707775
O	27.893183080917783	1.3447905850202173	6.114338446014834
O	27.331834730333767	-0.24096583759700163	5.016290968196092
O	28.133785206133204	-1.3587864464574086	4.095924383797584
O	28.184583422285826	-0.4655738233454634	2.957330162454306
O	24.933153816717656	6.520822256146651	4.4442177575508675
O	24.33622794892257	7.452530730636326	4.827298180645946
