101

O	1.0169217312739738	3.098483604327397	-0.21852912782191752
O	3.754023201273974	4.003319864327397	2.7193774451780826
O	2.0988797012739737	3.376423924327397	0.5764254351780824
O	2.4555919312739736	2.511023704327397	2.9889194051780823
O	3.1265211412739737	2.539915064327397	0.8541715251780824
O	3.0293732012739736	1.2505243793273968	0.32743972317808245
O	1.9042816712739739	0.8935971687273968	-0.43675808452191756
O	1.2405828012739737	1.9495993493273969	-0.9862756588219175
O	3.7827931012739735	0.07279176232739681	0.7382376251780824
O	3.5072362212739736	2.7081510943273965	2.2480700451780824
O	0.10992065127397366	1.682603497327397	-1.7453895048219175
O	-0.3531663157260263	0.3756883023273968	-1.9890616848219176
O	0.5414485112739738	-0.47482417567260327	-2.2872681448219176
O	-1.6704496877260264	0.21836061432739673	-2.5673826248219176
O	-2.028470578726026	1.4044954913273968	-3.1803714248219177
O	-1.7348308687260263	-0.7666195156726032	-3.7396514948219175
O	-2.7915276187260263	-0.16983259567260323	-1.7052696548219175
O	-2.731069558726026	0.10163007732739682	-0.36990786382191754
O	-3.2447801787260264	-0.3947660256726033	0.7695626951780825
O	-2.3820868387260266	-1.1142545056726032	1.5951550351780823
O	-2.6761526687260266	-2.4037379356726034	2.0930710351780824
O	-4.015134418726026	-2.825433295672603	2.0705487751780827
O	-4.718175498726026	-1.683279285672603	2.2998442751780823
O	-4.503062858726026	-0.6310214856726033	1.3392735951780825
O	3.076560031273974	-0.7487321556726032	1.6167257351780826
O	-4.186823718726027	-4.095284525672604	1.5942486251780825
O	4.822383891273974	0.32033684032739673	1.5324852751780824
O	4.204909401273973	-0.8445049056726033	-0.1567580038219175
O	1.5760329712739738	11.859656324327398	-1.4867065578219174
O	0.5741432712739736	14.874157724327397	-3.5250446348219175
O	0.9029164012739737	6.140079764327396	-10.032339904821917
O	-1.5820672957260262	3.8160875043273967	-8.295518344821918
O	-4.0113849087260265	6.669998254327396	-7.6469814148219175
O	-1.1735428537260264	8.567557904327396	-5.943225444821918
O	-0.1344530787260263	5.474384184327397	-3.9585323248219177
O	-3.7380153187260263	5.079394684327397	-2.8658289048219174
O	-3.904733708726026	8.618820654327397	-1.6750795048219176
O	-0.6350069247260264	8.216023264327397	0.18428502017808246
O	-2.142274388726026	5.073787184327397	1.8042497151780825
O	-5.1330420387260265	7.101377924327396	3.0134801851780826
O	-2.8161884487260265	9.776715754327396	4.415388465178083
O	-0.3999789657260263	7.338840394327397	6.0360778951780825
O	-3.281587158726026	5.483176324327397	7.673323795178083
O	-4.2577281187260265	8.625015524327397	9.585386975178082
O	-0.5726492267260264	5.081984794327397	11.732075775178082
O	-3.7613240587260264	5.287125914327397	13.795196775178082
O	-1.3434892367260263	-4.838867495672604	10.192228475178082
O	-1.2619379307260263	-1.535933485672603	8.270976645178083
O	0.2911662312739738	-2.9609466456726032	4.995718915178083
O	3.086802451273974	-4.741195805672604	6.8543835551780825
O	3.7000982512739733	-1.660486425672603	8.972702525178082
O	3.7073901212739737	0.6501309013273968	6.114173795178083
O	6.067917561273974	-1.6362154256726034	3.9431554751780826
O	8.490254461273974	-1.930429215672603	6.766263365178083
O	8.694424831273974	1.8272375723273968	7.313757835178082
O	8.961919361273972	2.5497510243273966	3.5984350051780822
O	11.834141111273974	0.05264935632739676	3.3899288851780827
O	13.040761611273973	5.292577484327397	4.474128825178083
O	14.447093811273973	3.8745916743273967	1.2431869051780824
O	11.544680011273973	2.835487944327397	-3.2345079148219176
O	11.047818111273973	6.0132000043273965	-1.2119283728219177
O	7.336989171273974	5.973692194327397	-0.8890005468219175
O	7.3163531012739735	9.701848304327397	-0.10866813382191753
O	6.7736364612739735	9.744785034327398	-4.883092774821917
O	2.959219591273974	0.4705207553273968	-11.774421524821918
O	2.4952033412739736	-3.125843715672603	-12.974155524821917
O	3.872881251273974	-3.950192375672603	-9.522031254821918
O	7.446788371273973	-4.770845075672604	-10.465090434821917
O	7.619214641273974	-8.182977375672603	-8.781275614821917
O	6.211767261273973	-6.777287575672604	-5.561979364821918
O	8.567257161273973	-3.785912465672603	-5.729583974821917
O	10.080173711273973	-4.504445055672603	-1.0905418668219176
O	7.937740641273972	-1.7858042556726033	13.666664675178083
O	4.640866181273974	-5.674871325672603	13.534608175178082
O	4.497873501273974	-11.121834675672602	6.040793495178082
O	4.855349331273974	-12.740571775672603	2.5863695451780826
O	5.5410689412739735	-9.333197275672603	1.0554203751780824
O	2.450434441273974	-7.870934665672603	2.7202049251780824
O	0.34592940127397376	-10.800831875672603	1.4709931951780826
O	1.4451426212739737	-10.158055475672603	-2.1134480048219175
O	0.5003555212739736	-6.520656775672602	-1.7475353848219175
O	-2.880135018726026	-7.516563255672603	-0.22377276982191752
O	-3.635557578726026	-9.692186675672604	-3.2249104748219177
O	-2.570769648726026	-6.972699515672604	-5.637659894821917
O	-4.545634058726026	-4.133203915672603	-4.084338814821917
O	-7.6106931487260265	-6.366193585672603	-3.6224691248219174
O	-6.988512458726026	-3.6738549356726034	-8.271331584821917
O	-9.958144218726027	-2.4923894056726033	-6.178833654821918
O	-10.583469398726027	-0.20312258567260333	-10.267292404821918
O	-8.501232688726025	0.7778354513273968	-15.198156424821917
O	-7.645398048726026	3.863407174327397	-10.554345124821918
O	-9.393091768726027	4.478549124327397	-4.162774234821917
O	-10.881622568726026	4.423370244327397	4.075338035178082
O	-8.731326148726026	2.4170862543273968	1.6598896751780825
O	-11.761097688726027	1.0343628934273967	-0.20005331882191751
O	-13.426350488726026	0.11414841432739675	3.1104811151780827
O	-10.426017128726027	-1.6766608056726033	4.5966276051780826
O	-9.539768958726027	-3.4548250856726033	1.3603225051780825
O	-13.105916388726026	-4.727513325672604	0.8177462551780825
O	-8.149021488726026	-7.504263475672603	3.6667743851780825
O	-10.378642658726028	-10.357603075672603	2.4117167851780823
