94

O	0.9817951603323072	-1.2942395283538466	-1.3155263593999988
O	1.7415987603323073	-0.32532121835384664	-1.904856524399999
O	1.2766175703323073	0.14466829964615335	-3.130426144399999
O	0.5377811003323074	-0.7413489383538466	-3.903958304399999
O	-0.48520617466769256	-1.2541820183538466	-3.072702684399999
O	-0.3695210146676926	-1.2823768583538468	-1.672052764399999
O	1.9958494103323072	1.2358817406461533	-3.746410464399999
O	0.06992360033230738	-0.39107124835384666	-5.238341654399999
O	-0.6156777836676925	-0.5321637483538467	-6.181616354399999
O	1.1217914103323074	-1.7217643183538467	0.012138376600001055
O	1.3440324703323074	-0.9431632483538467	1.143093055600001
O	2.0857140603323074	0.07680505664615334	0.9089197156000012
O	1.4716719403323075	-1.6321063083538467	2.3856242356000013
O	1.6262283003323075	-3.0267358483538467	2.1296760556000014
O	2.907207140332307	-1.4221302983538466	2.8590363156000014
O	0.8412800203323074	-1.7226206883538469	3.666835485600001
O	-1.5635022176676925	-2.455317958353847	4.200790125600001
O	-0.7393381436676927	-2.189245988353847	2.934637055600001
O	-1.2868933816676926	-0.8033827883538466	2.1941903656000012
O	-0.44889284366769255	-3.540135358353847	2.7786709456000014
O	-0.6436328376676925	0.4120068076461534	2.5189908356000013
O	-1.2517350296676926	1.4892952526461534	3.0654772356000013
O	-2.6344923896676926	1.5705579666461533	3.208384445600001
O	-3.092262179667693	0.6300193096461534	2.333937745600001
O	-2.6419458196676926	-0.6337910283538467	2.191541185600001
O	-3.1576599496676927	2.8167725916461532	2.926255005600001
O	1.8016884603323076	2.4776496816461533	-3.214395754399999
O	1.6545887703323074	1.3132894376461532	-5.026300684399999
O	3.3473077203323074	1.0018628406461534	-3.505583174399999
O	-1.0901709692676926	-8.598967318353846	-8.124666674399998
O	-1.4236912626676925	-12.371733468353847	-8.4491855744
O	3.7876369103323073	-8.006114188353846	1.7126491256000014
O	0.7732727003323074	-10.273634768353848	1.3557027556000012
O	1.0024401303323074	-9.803093468353847	-2.448859384399999
O	1.4192852203323072	-5.997153638353846	-2.112605514399999
O	-1.6563292696676926	-5.958967558353846	0.16404016760000106
O	-3.6815139696676926	-7.870217098353847	-2.336259634399999
O	-2.530436659667693	-5.523408308353846	-5.0650648243999985
O	-3.736783789667693	-2.6826879583538465	-2.874039364399999
O	-7.126219209667692	-4.1276130383538465	-2.519800254399999
O	-7.333485729667692	-4.591961768353847	-6.303042074399999
O	-5.920826599667692	-1.1349135283538465	-7.127057594399999
O	-8.373992669667693	0.4988179516461534	-4.744082094399999
O	-11.310870069667692	-0.8344074983538466	-6.751811414399999
O	-9.018020529667693	4.063017741646154	-8.0239324844
O	-12.614062069667693	4.397737601646154	-6.821580514399999
O	-5.3574038296676925	10.114090191646152	-0.852306701399999
O	-5.106820179667692	6.531178511646154	-2.152827124399999
O	-1.5555394276676926	6.000548801646154	-0.894583180399999
O	-0.17278088566769256	9.101048361646153	-2.590947954399999
O	-2.1339390796676927	8.340983711646153	-5.769948194399999
O	-0.9336083766676926	4.762260001646154	-5.982597954399999
O	2.7292790403323073	5.642116631646154	-5.215746414399999
O	2.705220910332307	8.378490331646153	-7.834769664399999
O	1.2901961403323072	6.051593131646154	-10.4871213844
O	3.7044326503323077	3.2606984716461533	-9.5484849844
O	5.0367611903323075	2.9032947016461534	-14.3492978544
O	9.862177830332307	-0.6309274483538466	-8.6776052144
O	7.198081770332308	-1.806852768353847	-11.1552188544
O	4.300227050332308	-2.424212278353847	-8.7162700844
O	2.615456220332307	-4.663044368353846	-11.249727654399999
O	5.371993030332308	-7.906908298353847	-8.9828662344
O	11.763456330332307	-4.820541138353846	5.131818545600002
O	10.677940830332307	-1.6649550983538468	3.331426305600001
O	14.022194930332308	-0.7351043483538465	1.7998421756000011
O	14.123018430332307	2.8598559816461533	3.048292285600001
O	10.603294130332308	3.4914441616461533	1.8105246756000013
O	11.454667530332308	1.8452986616461535	-1.517001047399999
O	-3.1728354296676926	14.385996131646152	-5.833848064399999
O	6.738056720332308	9.394397071646154	1.0101746456000011
O	3.0714377803323076	8.566295901646154	1.5138943756000014
O	3.3887921003323074	9.388530081646152	5.233391545600001
O	6.261928920332307	6.9284389916461535	5.612861835600001
O	4.184628460332307	4.259322631646153	3.9387166256000015
O	1.2752862203323072	5.157690531646153	6.235653215600001
O	3.427673890332308	4.568201481646153	9.2877077456
O	4.813909310332307	1.3344472056461534	7.8698675956000015
O	1.5495870503323073	-0.2227903123538466	7.018605315600001
O	-0.10611780266769255	0.8773933286461534	10.250782045600001
O	2.4754744803323074	-3.928112208353847	10.0210930456
O	-1.3043559146676926	-4.243127908353847	10.5280179456
O	0.1886165703323075	-8.695442868353847	11.1396215456
O	4.509761830332308	-11.964953368353846	11.1130056456
O	1.0783471003323075	-10.996688668353848	6.755736215600002
O	-4.423569989667692	-7.832546508353846	4.945160375600001
O	-10.804450549667692	-2.9664172383538467	2.601397265600001
O	-7.061329179667692	-2.4685068183538466	3.377978275600001
O	-7.6063428196676925	-3.4899811183538465	7.0413648056000016
O	-10.550052999667692	-1.1090454583538465	7.317235395600002
O	-8.809224449667694	1.8675239516461533	5.738831765600001
O	-5.5650757696676925	1.3479509166461534	7.5972256956000015
O	-7.336638269667692	1.0366803826461535	11.0035341456
O	-4.895698109667693	6.148787091646153	8.1217149156
O	-4.6923475496676925	6.840901181646154	11.8852879456
