21

O	27.352971608543644	4.568327564258889	4.099423711265119
O	24.91048913819128	7.457811309532721	5.518683551907062
O	26.44104775620246	5.5887616205514155	4.377814549528561
O	23.65926111397253	6.891129644308694	3.9221411101505983
O	25.15337263951403	5.26793200959562	4.364364692903774
O	24.85758914938193	3.917805011444119	4.441817945450179
O	25.788885328707433	2.889985950953859	4.3957447132449206
O	27.104181786648905	3.2332165578911396	4.4309425815737455
O	23.467157981806782	3.5369534220307246	4.548888340969518
O	24.345717735204577	6.37193973853832	4.806368555648803
O	28.14945144449914	2.3176533881773373	4.4322500888481775
O	28.04055216127575	0.9293404286109226	4.095427984938627
O	27.259589891491657	0.36917870171639633	4.881262902428835
O	29.304951119605626	0.2222338518972915	3.9461713144383053
O	30.21430255770948	0.7881552896141601	4.750468652800262
O	29.758567273228024	-0.7101199713117894	2.9185791474935323
O	29.15037607483908	-1.16945252509757	4.412713320220267
O	27.410737575824704	-1.5707664156222636	3.555068317113415
O	22.807034632752924	2.6786972462387357	3.8050054809029317
O	23.28239521256661	3.057620605491319	5.799453822977805
O	22.682679604358892	4.604218301852508	4.604184141778733
