101

O	-0.06241711302739694	2.124867846280822	-2.409328697986439
O	3.461371682972603	4.238824956280822	-2.7153176279864386
O	0.9941633629726031	3.005672506280822	-2.4011853779864385
O	3.446423792972603	2.4342089262808217	-1.8631346679864387
O	1.583942072972603	3.5423076862808216	-1.3044746169864387
O	1.1249808329726032	3.0770329062808215	-0.06921786498643878
O	0.08689883297260315	2.1321092562808217	-0.03725599698643878
O	-0.6884281110273969	2.102587206280822	-1.1578637959864388
O	1.7992546029726033	3.182776636280822	1.2170606120135612
O	3.019258682972603	3.6202064062808215	-1.5388542099864386
O	-1.760999590027397	1.2247007702808217	-1.1978458879864387
O	-2.041011347027397	0.33837802028082176	-0.14077632698643872
O	-2.005447697027397	0.8482615043808218	1.0222065620135612
O	-2.940365577027397	-0.7660287137191782	-0.38074858198643874
O	-3.705635827027397	-0.4585438637191782	-1.5067158519864388
O	-4.040683337027397	-0.9217954037191783	0.6778808420135611
O	-2.425603807027397	-2.1181448137191783	-0.5855332290864388
O	-1.162509230027397	-2.3208451637191785	-1.0535768699864387
O	-0.17719724502739698	-3.2321551337191785	-0.9614905739864388
O	0.8817298429726032	-2.9365964737191783	-0.10221864198643871
O	1.3508783829726032	-3.841311593719178	0.8767328820135611
O	0.986300132972603	-5.1954361837191785	0.7653708320135613
O	0.9580233429726029	-5.408333723719179	-0.5782998039864388
O	0.03957422997260307	-4.571710053719178	-1.3058025389864387
O	1.118569872972603	3.411014516280822	2.358301432013561
O	0.5406491129726031	-5.726476673719178	1.944168422013561
O	2.844082402972603	4.008554226280822	1.2295055420135612
O	2.492910232972603	2.0258794562808218	1.5784717920135611
O	-1.618079026027397	6.5453487862808215	-9.992609847986438
O	-4.024887627027397	7.382396176280822	-12.77570280798644
O	-9.651851797027396	5.752339096280822	-3.5906637079864385
O	-8.596730397027397	2.1963730562808217	-2.683688747986439
O	-8.845369967027397	1.0481469652808217	-6.300423717986439
O	-6.492854567027397	3.8936747962808216	-7.262958937986439
O	-4.123872177027397	3.070810456280822	-4.385120887986439
O	-4.113813617027397	-0.5333831137191781	-5.547099317986439
O	-3.224818527027397	0.45389007928082176	-9.04423643798644
O	-0.46926271302739697	2.7125739962808217	-7.770216677986439
O	0.811402932972603	-0.28355683371917817	-5.728856697986439
O	0.976845542972603	-2.3967479537191783	-8.896237707986439
O	2.843932112972603	0.3778430372808218	-10.714390707986439
O	5.2360648629726025	1.1218663032808218	-7.863236317986439
O	6.057089632972603	-2.5697579037191782	-7.512138567986439
O	7.420550152972603	-2.6326251437191783	-11.06359730798644
O	10.746945322972604	-1.3482247237191785	-6.817624287986439
O	11.770315522972604	-4.582905093719178	-8.535950737986438
O	9.605893822972604	-5.653720373719178	2.213134572013561
O	7.614099882972602	-3.7727315537191783	-0.45218604698643877
O	5.019156982972603	-2.1738856337191783	1.9742230120135613
O	7.710544912972602	-0.8881903337191782	4.329252842013561
O	9.742033822972603	0.37461760228082175	1.3907083320135614
O	6.889508882972603	2.0207722162808217	-0.23954943598643874
O	5.630539472972603	3.7107917062808218	3.088080062013561
O	9.051553942972603	5.028535096280821	3.7862538720135612
O	9.425729622972604	6.5911120762808215	0.33972195201356126
O	5.917957452972603	8.035849306280822	0.40252903201356127
O	6.7006655929726024	9.608969916280822	3.784588632013561
O	7.796124612972602	12.520129376280822	-0.7338378462864388
O	5.204065552972603	13.984452876280823	1.624911592013561
O	0.1377643429726031	12.112478776280822	2.244693362013561
O	1.7452853929726033	12.459228976280823	-1.1806836699864387
O	0.9668448229726031	9.093533936280823	-2.576568607986439
O	1.4987234029726033	10.389314946280823	-6.119409347986439
O	-3.2196829370273967	11.108292276280823	-5.561967617986439
O	-10.397518247027396	5.704070006280822	2.6420528420135616
O	-11.479758977027396	4.140183476280822	5.954698452013561
O	-7.7352110570273975	4.167363556280822	6.642265332013561
O	-7.542678737027397	7.2183081662808215	8.878406502013561
O	-5.694622757027397	5.576402746280822	11.776277992013561
O	-3.112193157027397	4.110203256280822	9.42992479201356
O	-2.748939477027397	7.433663456280821	7.600412772013561
O	2.1628966829726033	7.329922386280821	8.043750662013561
O	15.469988422972605	2.8977575062808216	2.2946915120135616
O	14.594643922972603	-1.5441805137191782	4.642164362013561
O	7.703811062972602	-2.0173340437191785	10.81760059201356
O	4.600891122972603	-1.5047859237191785	13.00621509201356
O	3.149883442972603	0.8511037717808217	10.403539192013561
O	3.7524396329726035	-1.6910807937191783	7.642179522013562
O	2.1071660029726034	-4.420457273719179	9.74831459201356
O	-1.028254275627397	-2.3075671837191782	10.166650192013561
O	-1.158794159027397	-1.7604697737191786	6.434519812013561
O	-0.6382537780273969	-5.519227813719178	5.831281762013561
O	-3.6029597470273966	-6.322306783719179	8.03889450201356
O	-5.745675287027398	-3.6899095437191782	6.355125972013561
O	-4.9989340170273975	-4.6658251637191785	2.7679171920135612
O	-5.331629317027398	-8.381732153719177	3.589514302013561
O	-9.736620107027397	-5.598705763719178	2.1410407120135613
O	-8.676609807027397	-8.254647613719177	-0.39171895798643874
O	-12.890605177027396	-6.871872663719178	-2.0294763779864384
O	-17.040534977027395	-3.423547263719178	-1.3258233589864388
O	-12.527886877027397	-2.5699603337191785	-4.601437457986439
O	-6.973764517027397	-5.437697803719178	-6.882848317986439
O	0.45522458297260304	-8.806172933719177	-8.77249058798644
O	-1.1077497330273969	-7.128186293719179	-5.736556947986439
O	-3.693870057027397	-9.894685023719177	-5.285302157986439
O	-0.971006391427397	-12.550500623719177	-5.620064357986439
O	1.4269904129726032	-10.996969923719178	-3.1173688079864386
O	-1.303397017027397	-10.133509723719177	-0.6222300891864387
O	-2.795104837027397	-13.655226223719177	-0.6937911354764388
O	1.5316752329726033	-11.117857523719177	3.208021382013561
O	-0.16145328702739692	-13.922174823719178	5.194507252013561
