97

O	1.2298742803235299	0.022776917074999847	-2.0846221437647063
O	2.3762163703235295	0.3132886960749999	-1.3539008067647063
O	3.1512517503235298	-0.7671633229250001	-1.011673472764706
O	2.8845917203235296	-1.9666811529250001	-1.5588098967647062
O	1.4979396603235298	-2.208037092925	-1.7623704017647062
O	0.5793443703235297	-1.1341497829250002	-1.6073645977647062
O	4.01456280032353	-0.662327972925	0.12735575423529377
O	3.78449097032353	-3.061027932925	-1.7014136137647062
O	3.8968498303235295	-4.094351542925001	-2.213771233764706
O	0.27461983032352966	1.0230778810749999	-2.329250283764706
O	-0.16310189267647035	1.879370327075	-1.3074575467647063
O	0.6432013403235297	1.9831149900749998	-0.3184853577647062
O	-0.7312526206764703	3.125129367075	-1.7867381957647062
O	-0.9122915752764703	3.030736597075	-3.166396463764706
O	0.2262461103235296	4.218283177075	-1.5927524237647062
O	-2.0700989696764704	3.566329417075	-1.4468701217647062
O	-2.5699446496764704	1.572113068075	-3.012240593764706
O	-2.8893861396764704	2.0679793000749997	-1.787588253764706
O	-2.86169155967647	0.9678220440749999	-0.5119289247647062
O	-4.32972194967647	2.439149677075	-2.1048874837647062
O	-3.85891248967647	0.07516023707499997	-0.4112144137647062
O	-4.242913159676471	-0.3124424429250001	0.8241037262352938
O	-3.9481839896764703	0.21834440707500002	2.037943266235294
O	-3.2536899496764704	1.365434665075	1.7714723762352937
O	-2.4262985396764702	1.5115975020749999	0.6994795162352939
O	-3.7526101096764704	-0.5533062129250002	3.161072596235294
O	4.98422342032353	-1.4249091429250003	0.4988601762352939
O	3.19832224032353	-0.500800822925	1.2725436062352937
O	4.57329965032353	0.6295603130749999	0.03165552723529386
O	3.6696143103235297	-4.752233362925001	-10.504999493764707
O	3.1549022603235297	-4.6502733829250005	-14.275120733764707
O	-0.13677944567647038	5.225652867075	-7.893597103764706
O	-2.2361745396764703	3.0762290170749997	-10.197057173764707
O	0.7598823803235297	0.6892450710749999	-10.507788463764706
O	1.3298908703235295	0.6478171090749999	-6.714872563764706
O	-2.40517075967647	-0.15116850292500006	-6.287715163764706
O	-2.1852888296764705	-3.0295608829250003	-8.695602813764706
O	0.9071597003235297	-4.280116762924999	-6.906595773764706
O	-1.1474898296764704	-4.151759912925	-3.703011143764706
O	-3.85175075967647	-6.256875222925	-5.127110303764706
O	-1.2665012886764704	-8.793634912925	-6.3247928437647065
O	0.7428097803235296	-8.819582912925	-3.088771773764706
O	-2.4252766796764704	-9.300737812925	-1.0544653647647062
O	-3.11956468967647	-12.589597512925	-2.8134932637647063
O	0.0208616543235296	-12.448175012924999	1.767698206235294
O	-3.2257828296764703	-14.364474012925	2.275440326235294
O	-1.8896513996764703	-5.960488772925	9.216393066235293
O	-1.3138609376764703	-6.0472488629250005	5.4223684762352935
O	0.1287623763235296	-2.5444749029250002	5.224032436235294
O	2.6919366803235296	-3.081043062925	7.9199566662352945
O	3.5806833803235296	-6.509495542925	6.528708276235294
O	4.0705038203235295	-5.253270942925001	3.0360569162352937
O	6.102256570323529	-2.154661842925	4.110001236235294
O	8.36767978032353	-4.305786592924999	6.261294026235294
O	9.037132490323529	-6.758751882924999	3.433908446235294
O	9.58670165032353	-3.9487525529250003	0.9135563062352937
O	13.917745550323529	-6.048891672925	-0.3927926687647062
O	12.51100615032353	1.765650784075	-2.6118581237647063
O	12.36537435032353	-1.649132392925	-4.303997943764706
O	8.59104044032353	-2.1041562429250003	-4.510435403764706
O	9.005618740323529	-4.660918562925	-7.251997363764706
O	8.73363170032353	-0.635646102925	-9.895620673764707
O	3.2287753103235293	12.918955187075001	-3.875469603764706
O	4.273660130323529	10.457470577075	-1.1788826647647062
O	7.76446900032353	11.771627487075	-0.5160752137647062
O	7.4146915203235295	12.116952987075	3.2561550362352936
O	6.03057655032353	8.624341547075	3.5687900562352937
O	8.77940463032353	7.288968217075	1.2812048062352939
O	9.98454435032353	3.764471357075	4.525021556235294
O	7.5150682203235295	-10.295180112925	9.666240466235292
O	3.77510876032353	-8.222823242925	12.421487066235294
O	3.2925500403235297	0.9985624380749999	13.054351866235294
O	4.7969324603235295	4.323659117075	9.085809146235293
O	1.8452817903235297	2.075214450075	8.333854946235293
O	-0.5290104586764703	4.624370437075	9.895571766235292
O	0.7911294003235296	7.386232787075	7.6314072862352935
O	0.2467324603235297	5.156193607075	4.6303746362352936
O	-3.2661211696764703	4.3509502670749995	5.927831636235294
O	-4.1281844296764705	8.021857547075	6.018287026235294
O	-2.6218071396764704	8.660573857075	2.5990261762352938
O	-4.42054568967647	5.897636537075	0.8224723862352937
O	-7.73314453967647	6.592644437075	2.531377846235294
O	-6.50004908967647	9.085268147075	-2.173045213764706
O	-9.455957549676471	6.647245367075	-2.447514323764706
O	-9.51373020967647	8.837627257075	-6.6574494437647065
O	-7.03374481967647	12.507873587075	-9.781699023764707
O	-6.05146782967647	6.953383157075001	-9.792840153764708
O	-7.999126739676471	1.2104642589749999	-7.170738973764706
O	-9.91259362967647	-5.793883642925	-2.987719793764706
O	-7.95066337967647	-2.611343532925	-2.315673473764706
O	-11.07437914967647	-0.409474532925	-2.5415458237647064
O	-12.92801954967647	-2.7723165429250005	-0.21005267076470624
O	-10.23016342967647	-3.000471772925	2.441711426235294
O	-9.47773218967647	0.723916504075	2.371106546235294
O	-13.13551014967647	1.7191221940749999	2.7093672562352937
O	-8.682358279676471	0.852552523075	7.200881696235293
O	-11.16651784967647	3.3836728370749998	8.628657516235293
