29

O	27.672407952324022	3.996348063347181	4.245529312561649
O	26.84364311404113	5.059243495426332	3.8156385594694884
O	25.460916082744443	5.014447499054732	3.975813363922353
O	25.00721046283032	3.8256324604421437	4.472397597009165
O	25.781530664634026	2.70057168067978	4.186319984750838
O	27.07101592240236	2.858004576989668	3.8187604897825076
O	23.708063063113258	3.439514820567622	4.902465260778785
O	24.751964947345023	6.264255850924042	4.2534971118503915
O	24.869739671715056	7.29999745605658	4.815645531802009
O	27.850885509149926	1.700720939354602	3.7193022644226335
O	27.62088011104364	0.6941820486093693	4.674045651414005
O	26.46996650765186	0.16326420153912657	4.559920006435606
O	28.741042429932833	-0.20905642089426224	4.885369025961504
O	29.730903251752625	0.11861215905124545	3.990918158913547
O	28.388814217387118	-1.6612677913290332	4.568893267097561
O	29.35148017781984	-0.20030030591098957	6.216910686028328
O	28.531394265673622	0.38275003540421504	7.134275746308497
O	28.92000489231142	1.4254403214767646	7.909812124269244
O	29.603832247180986	2.423821844305437	7.275547064746619
O	29.11807484667306	3.773852402523181	7.441205641040681
O	28.461244630755317	2.0766333000726602	8.968578077943901
O	26.910383908757826	5.277610906450026	7.2333935023803795
O	26.86299338982984	6.365202803453042	6.513064602284055
O	27.9632502526585	3.445728403123744	8.926620954711389
O	26.76984308098807	6.295692015104573	7.969131884791472
O	27.805042715940747	4.187785902666437	7.728667132817054
O	23.233196457695424	2.366483472121201	4.090748998432037
O	22.624146670045743	4.117784242790651	5.034900638259405
O	23.843621489836273	2.7419464289888635	6.128685515222747
