21

O	26.91262512820684	5.130180784046955	4.616239549339095
O	26.114684209333213	6.370495711905573	4.878484157913228
O	24.70596509528697	6.2929451813541855	4.370325808147986
O	24.118966676679044	7.274949741513677	3.918672368136485
O	24.01098343993597	5.009855291556474	4.596587792611742
O	24.86357070095586	3.8142014045795056	4.337642156680943
O	24.128060549398114	2.5214302390402628	4.480629450543514
O	24.96782178796547	1.343026905333788	4.067489752986795
O	26.35747433651984	1.3523242312723824	4.636127931604461
O	27.03797026504795	2.6919244507296036	4.378656729304345
O	26.22846782024513	3.838667539280877	4.955335889467809
O	28.454614948683396	2.665957959264494	4.881259243363571
O	29.26148109479425	1.502626413185122	4.381991352711091
O	28.58613696618229	0.17936471965406242	4.61272378724387
O	27.200028776692925	0.3017244257616911	3.99592094283052
O	26.714856482668843	-1.1084530439614844	4.078736350870429
O	27.970174421370288	-1.9142165113850769	3.7351498862092116
O	29.137612335162586	-0.9615450534814702	3.804741567934824
O	30.284075056423152	-1.5229529407441003	4.335948456462947
O	28.573514973544068	-0.21407277341802655	6.061858694412745
O	26.082472128496065	3.6270165276889035	6.4575580916616815
