21

O	26.897017189752418	4.9504438813593925	4.468824963251984
O	26.063872954381786	6.218792551303727	4.691089023964091
O	24.70355338486797	6.2294044740278895	4.199092802634057
O	23.970792535767526	5.008224785955817	4.332497730754014
O	24.585047243647786	3.839943047709105	4.433624183523248
O	23.946348361494756	2.5281793177225103	4.564675997556758
O	24.60775574639419	1.2651691186493157	4.358279642052546
O	26.010080754997787	1.390183345679669	4.251986646532368
O	26.293876701588605	2.673698487106421	4.411472619692451
O	25.987705284545786	3.8438888062999084	4.571945804053359
O	27.13160222695073	2.147853772228555	5.3575896154201725
O	28.438565541204156	1.5354742047986984	4.884938582579209
O	28.26575899161091	0.22388867821343617	4.5577303619730465
O	26.874210657538324	0.2316675074900092	3.864068435483461
O	26.46300014507602	-1.1555854494609512	4.150852722479646
O	27.771432576354808	-1.9374546528373815	3.915830319146002
O	28.90442587502508	-0.9214863359109187	4.0200317798517595
O	28.1475514305919	-0.26315286475208954	6.065683869523506
O	29.349562742545668	-0.7525055109042997	2.659972811951574
O	24.023252506466815	7.286407746491987	4.031213729018
O	30.06772384596287	-1.3894389930687623	4.598051508573388
