21

O	26.916868378546184	5.120860363275455	4.879810068608647
O	26.05227061313244	6.377714299003025	4.974408127978642
O	24.721966867254583	6.184783923073438	4.376883713038879
O	24.015335229572838	7.185580772316371	4.152467033702004
O	24.270429441119134	4.829218090430924	4.403600597592778
O	25.054242196840633	3.7157552797981888	4.493026656794832
O	24.170668321404055	2.3814968308152378	4.60905025167762
O	25.06018098147194	1.2682955193175336	4.160144295338169
O	26.45226446572667	1.386649192588147	4.710808384048318
O	27.102650644884772	2.7343321979398	4.41818127368493
O	26.294513812512154	3.7927035223652164	5.181256979056922
O	28.52468601791874	2.6891960515270115	4.900065910477574
O	29.32160287679244	1.5171439887161893	4.411359054033632
O	28.664920961143128	0.1871335974436572	4.677661467002643
O	27.26842780118454	0.3108935153641079	4.071229895894304
O	26.76567214889414	-1.0893882022662722	4.2081390897906665
O	28.008313832184637	-1.910287582508154	3.859417653244347
O	29.184280890816876	-0.9560432110232058	3.8538199189217517
O	30.3602842119229	-1.503992273779342	4.325271481976727
O	28.64035378005163	-0.17049263345613985	6.135904656623146
O	26.34597682578823	3.2883836181634796	6.618412780783331
