29

O	27.427439874366936	2.652172429083306	4.341961273992075
O	26.066883643661132	2.7594918762047813	4.369952786318078
O	25.566747780043862	3.995533342315988	4.771430257078392
O	26.357666583598018	5.107627058214418	4.512677689490826
O	27.642580999166555	4.824582058739563	5.031683577195622
O	28.104761898599822	3.5095337881250437	5.2134390882418415
O	24.134331458126514	4.127040073745047	4.906956476933926
O	25.904272975243163	6.459458135159403	4.811259337426422
O	26.07338357894	7.606699678060948	4.998240504705992
O	28.131086012484715	1.4463936445611094	4.215273932853878
O	27.85889442692372	0.22808441751985997	4.828709804777755
O	26.602970031062398	0.013076990951617073	4.975984363738684
O	28.72403080654583	-0.8610218186641581	4.512158452773585
O	29.52488170482912	-0.506019989952539	3.386547403861649
O	27.88146164786073	-1.8871493077563042	3.7597557536379314
O	29.637244839556665	-1.76399393055954	5.142849017128175
O	31.803663576626548	-1.2009390371861584	6.405595825464704
O	30.654593722063737	-0.4114613639447715	5.765636620865888
O	29.733006576931174	0.29581693971466216	6.956908791113511
O	31.37895409484439	-0.2068739534778865	4.596435170489115
O	28.602469560631036	-0.4139718569166464	7.420090463674392
O	28.406498827840867	-0.8117284027894673	8.697733315623125
O	29.236246881158003	-0.40496158192662857	9.739416058809535
O	29.85914885996523	0.6947677772187708	9.228131755783725
O	30.430248249202037	0.8122786484048417	8.011449850935302
O	28.566399399118414	-0.1054930970881649	10.909020772252816
O	23.566593398234673	3.556934697346187	6.009398811302497
O	23.81767106294994	5.415150029203632	4.939647270665518
O	23.571968991853726	3.40401521534051	3.8580591018343897
