99

O	2.960246470166667	0.48306056353846133	1.4041767986410258
O	3.9233198201666672	1.5036139415384613	1.9307074086410256
O	3.3058540501666673	2.8049540235384613	2.2706912286410255
O	3.6181425501666666	3.466928603538461	3.2592272186410254
O	2.284257770166667	3.332869523538461	1.3435693286410257
O	1.3369406101666672	2.262958533538461	0.9108546086410259
O	0.21335597016666696	2.7804151735384615	0.06996573664102573
O	-0.7729363178333329	1.6957905245384612	-0.2556956105589743
O	-0.15875424383333292	0.4313638195384613	-0.7788408253589743
O	0.8700117101666671	-0.039483250461538666	0.21445340464102575
O	1.968378000166667	1.0016198435384613	0.40290800164102575
O	1.411132640166667	-1.3553988864615387	-0.2677568003589743
O	0.37150658016666704	-2.401666076461539	-0.5397575863589743
O	-0.698366177833333	-1.9237601364615389	-1.4810654813589743
O	-1.215814718833333	-0.6173561564615386	-0.8854055983589744
O	-2.3858114498333327	-0.3380758964615387	-1.7684654313589743
O	-2.989120249833333	-1.7296206964615386	-1.9728998113589742
O	-1.964429123833333	-2.731300306461539	-1.4820236613589743
O	-1.897145453833333	-3.875231786461539	-2.256933681358974
O	-0.18355537583333292	-1.7712636864615388	-2.8839119413589747
O	2.645285290166667	1.2828454345384612	-0.9345184963589743
O	5.208655650166667	-3.7749003064615385	8.774649498641026
O	5.107813860166667	-6.660261006461538	11.249620358641026
O	1.351816510166667	-6.350371556461538	11.830323758641025
O	-9.651019579833333	-6.818997686461539	5.254157808641026
O	-7.400082169833333	-9.849674606461539	4.801451708641026
O	-5.094069159833333	-9.045943506461539	7.725644478641026
O	-4.793918329833333	-5.332854186461539	6.948534368641026
O	-4.0628273498333325	-5.746327686461538	3.2455939686410256
O	-1.6869116888333329	-8.652190266461538	3.8402616786410255
O	0.24037481016666695	-6.401964606461538	6.245943728641026
O	0.2622260501666671	-3.487382906461538	3.806809118641026
O	1.543433230166667	-5.8229616864615386	1.0771943486410258
O	4.339351990166667	-7.0284850464615385	3.3677061786410256
O	5.200596710166667	-3.4228655964615387	4.221969428641026
O	5.340998000166667	-2.755539846461539	0.49021314864102566
O	7.828557670166667	-5.5923912364615385	-0.012811832358974318
O	9.982313310166667	-4.289721716461538	2.8463376286410256
O	9.830266710166667	-0.6484836564615386	1.7637838686410257
O	10.772951710166668	-1.6097897364615388	-1.7944690913589743
O	14.097049510166666	-2.978921676461539	-0.5606267423589744
O	13.605522910166666	2.3782280335384614	-1.9680670413589743
O	7.486677760166668	3.176993053538461	-6.262640191358974
O	3.7875804601666667	3.7498373035384613	-5.513248271358974
O	4.050091480166667	7.530352143538462	-5.833244281358974
O	7.288897430166667	7.586184193538462	-3.8482414913589746
O	5.884519370166667	5.506525513538461	-0.9976622443589742
O	2.604537860166667	7.424989513538462	-0.8156850323589743
O	4.449036160166667	10.760587573538462	-0.7498065513589742
O	6.719880760166667	9.584853253538462	2.0789396286410255
O	3.7989446801666666	8.06207393353846	3.986589368641025
O	1.9675585401666669	11.365688493538462	3.6955047986410254
O	5.258502590166667	10.654756523538461	8.024187748641026
O	1.5739089001666668	11.149233093538461	8.786695008641026
O	-4.344878389833333	9.230583483538462	10.644109858641025
O	-2.326022119833333	7.4575163735384615	7.949586998641026
O	1.050706520166667	6.501907413538461	9.432035108641026
O	2.012115700166667	3.608937623538461	7.146106498641026
O	4.442050770166667	2.3503183635384612	9.782421558641026
O	3.030602410166667	-0.7169099964615386	13.856880558641025
O	0.4490098101666671	0.024827237538461278	11.183570658641026
O	-1.330331577833333	3.3177688535384613	11.778247058641027
O	-4.707570299833333	3.6513674835384613	10.072275758641027
O	-9.633941579833333	3.023862463538461	6.472706398641026
O	-9.410580059833332	-1.9586703464615385	4.303397318641026
O	-12.092833589833333	-1.3171285064615386	1.6613182686410257
O	-9.731740129833334	1.4990700755384614	0.6318414886410257
O	-11.575113689833334	4.412073633538461	2.2353118086410255
O	-11.792914389833333	6.608139413538462	-0.8737228583589742
O	-8.099017639833333	6.1096281935384615	-1.6197438313589743
O	-7.207320969833333	6.762632573538461	2.0283980186410258
O	-3.786281449833333	10.087645273538461	0.7387147186410257
O	10.549496810166668	12.983629893538462	-3.2269469613589745
O	0.0364695301666671	11.018417693538462	-9.733100071358974
O	-3.788127359833333	10.701265763538462	-9.633889621358975
O	-3.550165539833333	9.222767323538461	-6.134020511358974
O	-0.9225247558333329	6.723057593538462	-7.257497171358974
O	-3.0850133998333327	5.734438153538462	-10.245593271358974
O	-6.062962939833333	4.994244403538461	-7.989234771358974
O	-3.841819899833333	2.8239875935384613	-5.820601421358974
O	-2.4309735098333327	1.0618209725384613	-8.880204671358975
O	-5.953303049833333	0.17734346253846134	-9.989837461358974
O	-6.876357109833333	-1.0184969364615386	-6.509317331358974
O	-3.849959349833333	-3.2340649564615385	-5.934793241358974
O	-4.047575349833333	-4.631886966461538	-9.480085741358973
O	-6.825012349833333	-7.058603716461539	-5.517002501358974
O	-3.975537309833333	-9.178680906461539	-6.939971251358974
O	-6.254392039833333	-12.237074706461538	-4.147598481358974
O	-10.319931519833332	-12.826471706461538	-0.6027571113589743
O	-4.960536649833333	-11.607932706461538	0.6596700276410257
O	1.0915113601666668	-10.82447780646154	-1.9533702013589742
O	8.358060970166667	-8.792654866461538	-5.580176671358974
O	4.961470590166667	-7.141568236461538	-5.154839411358974
O	3.1813308801666667	-9.802634406461538	-7.228757221358974
O	5.826582830166667	-9.451473706461538	-9.951218741358973
O	5.752033090166667	-5.667924546461538	-10.166635651358973
O	1.9623773001666671	-5.461583646461539	-9.944083701358974
O	1.446549110166667	-8.071732346461538	-12.694502241358974
O	1.7391339901666671	-1.7475544064615385	-13.072698841358974
