99

O	1.0784239552051282	4.272236017516667	0.5777107077153855
O	2.9098245852051283	0.7346063925166668	0.6787634617153855
O	4.7177723552051285	3.6613212075166666	1.3712328547153856
O	-2.3448342047948714	-4.4102860524833325	-1.5307028652846144
O	2.8115845952051286	2.1251810475166666	0.7080138747153855
O	-1.1818050122948716	-1.0596488624833333	0.3988278517153855
O	0.6309941152051284	-0.8165683824833333	-1.5650507752846146
O	1.6812085352051285	2.7172825475166666	0.2122135127153855
O	-1.6946250177948716	-1.2316686124833334	-0.9225984702846146
O	0.6100429752051284	1.8162527485166668	0.13149544671538546
O	0.6830761852051284	0.5703014875166668	-0.01268907728461452
O	1.8612228552051286	-0.16550306248333324	0.17512210271538545
O	3.827663895205128	2.9074430075166666	1.2883989247153855
O	-0.4876583907948716	2.428475387516667	-0.8026750032846146
O	-0.2228838547948715	-0.5443680624833332	-0.37249087128461456
O	-0.9247833107948715	-2.5015239824833335	-1.0079163912846145
O	0.3456421752051284	-1.8563812024833335	-0.6566695932846145
O	-2.889134084794872	-1.5282797724833332	-1.3921799452846144
O	-3.3887524947948715	-2.614554152483333	-0.6096506572846145
O	-2.0587627247948714	-3.3812693524833333	-0.7674136822846146
O	-0.24363007179487162	-1.2187088324833333	-2.6787220152846145
O	7.369202345205129	-2.4996178524833335	7.606300274715386
O	8.08863589520513	-5.1229674724833325	10.259109864715386
O	4.553424405205129	-5.014406002483333	11.684124564715386
O	-7.570540794794872	-6.908699912483333	7.896600364715386
O	-5.215890344794872	-9.812126262483332	7.194409944715386
O	-2.3921306847948713	-8.555046982483333	9.429980344715386
O	-2.6009999647948714	-4.928300352483333	8.315503674715385
O	-2.6703662947948716	-5.6726389224833325	4.601417774715386
O	0.02459519520512843	-8.351786122483333	4.868844624715385
O	2.2247917752051283	-5.715827502483333	6.545981974715386
O	1.4498849952051285	-3.0706885724833337	3.9220023847153853
O	2.2768877752051284	-5.6344984324833325	1.2034886647153855
O	5.608776565205129	-6.359166952483333	2.8508739347153855
O	6.292677965205129	-2.6060921624833333	3.1672395647153855
O	5.481078415205128	-2.3443000624833332	-0.5412612992846145
O	8.07524831520513	-5.034253152483333	-1.3691936852846145
O	10.66825063520513	-3.2809432124833333	0.7868765347153855
O	9.94536153520513	0.2046698295166668	-0.5238400172846145
O	10.14352323520513	-1.0521891724833332	-4.1039946152846145
O	13.774664635205127	-2.057971822483333	-3.569778955284615
O	12.527473535205129	3.072774867516667	-5.263442315284614
O	5.547006325205128	3.008094497516667	-8.051764695284614
O	2.1076784452051283	3.4563133175166665	-6.549508885284614
O	1.9425161452051283	7.175044207516667	-7.206128065284614
O	5.5251193652051285	7.628850767516667	-6.043151775284614
O	5.013726185205129	5.778509977516667	-2.8068332552846145
O	1.6988351052051285	7.464263907516667	-2.0031573352846146
O	3.202284675205129	10.918940767516666	-2.647263115284615
O	6.154703285205128	10.180989817516668	-0.3403102192846145
O	3.896030385205129	8.681758627516666	2.325448884715385
O	1.7480161052051284	11.802144737516667	2.1950935347153853
O	5.964258515205128	11.735002937516667	5.689261934715386
O	2.5179274852051283	12.050021337516666	7.242299554715386
O	-2.649832184794872	9.925621767516667	10.554264664715387
O	-1.1312524847948715	8.045445247516666	7.638035144715386
O	2.5635122452051284	7.468606397516667	8.374308084715386
O	3.2383292452051284	4.426183757516667	6.173445664715386
O	6.302899665205128	3.615368687516667	8.264290004715386
O	6.125219035205128	0.8932293465166667	12.793943264715386
O	2.9513810252051282	1.1791297055166667	10.750657764715386
O	1.0505231152051286	4.371524457516667	11.431977064715387
O	-2.633648474794872	4.3105117175166665	10.545671964715385
O	-8.160765694794872	2.9882400275166665	8.251379534715387
O	-8.00265993479487	-2.163236202483333	6.527291594715385
O	-11.26131796479487	-1.9677484224833335	4.537648164715386
O	-9.461024704794873	0.8880784252166668	2.7512177647153853
O	-11.13783072479487	3.822457747516667	4.496949614715386
O	-12.243462664794873	5.674187667516667	1.3520265747153855
O	-8.793397354794871	5.367381017516667	-0.19485768008461454
O	-7.1387851547948715	6.413349207516667	3.0757960747153854
O	-4.3746245147948715	9.808911377516667	0.7731727417153854
O	8.363721085205128	13.259342337516667	-6.647009965284615
O	-3.133303584794872	9.981187917516667	-10.343088335284614
O	-6.794587784794872	9.419965537516667	-9.331738385284615
O	-5.644334384794871	8.309515027516667	-5.8741760652846144
O	-3.1305871747948713	5.897341377516667	-7.3787415652846144
O	-5.812717974794872	4.4741287675166665	-9.695905575284614
O	-8.152634124794872	3.767057217516667	-6.770663765284614
O	-5.329590724794872	1.993916937516667	-5.0120249252846145
O	-4.451971044794872	0.01770642451666682	-8.137737615284614
O	-8.042253974794871	-1.2243597324833333	-8.326191665284615
O	-8.018185264794871	-2.1239954524833333	-4.637172635284614
O	-4.6931176847948715	-4.011102662483333	-4.629682005284614
O	-5.6410601547948716	-5.811667562483333	-7.877286605284614
O	-7.192669964794872	-7.9879296524833325	-3.1805791752846146
O	-4.607592764794871	-10.079470562483333	-5.062535865284614
O	-5.913751734794872	-12.975878762483333	-1.5655275852846144
O	-9.008906544794872	-13.496949562483334	2.859292844715385
O	-3.6239033347948717	-11.812979362483333	2.7585538147153854
O	1.5927020752051284	-10.897283362483332	-1.2568376952846145
O	7.628033355205129	-8.721938492483332	-6.627754435284614
O	4.280790265205129	-7.273611272483333	-5.5639193452846145
O	2.3358335552051286	-10.256126462483333	-6.959157975284614
O	4.262535245205129	-9.985394162483333	-10.238244535284615
O	3.7990835752051284	-6.255152682483333	-10.732638535284615
O	0.15258104520512838	-6.292247622483333	-9.679111905284614
O	-0.7355510517948716	-9.194521162483333	-12.002300435284614
O	-1.1044745637948716	-2.9226536124833333	-12.950268235284614
