21

O	26.901046188451758	5.1254437126387185	4.607954995297926
O	26.095762133046158	6.357923491802168	4.894575750623036
O	24.685562466755897	6.265868761427607	4.3920093339982795
O	24.0919525971377	7.2395614625563045	3.9313579052544716
O	23.994811137518575	4.983875742431803	4.641817292234725
O	24.856775784251756	3.8014434025128887	4.3444782497036405
O	24.13219240196699	2.5002652360282887	4.480153320548468
O	24.987833238812637	1.3424210326410702	4.042474079174458
O	26.367793582911595	1.3529429909288069	4.633722734210353
O	27.042919396682336	2.69736325763523	4.374373745544859
O	26.22510125218037	3.8300243392323976	4.955911495067881
O	28.459197258196657	2.6763689809947593	4.87707687583664
O	29.26793681967787	1.5160078308270108	4.375524465667785
O	28.596644330821444	0.17943095106871	4.625581871846133
O	27.209796759888153	0.29671475967795025	4.004466457313123
O	26.726812204507542	-1.114356909076682	4.095204345404928
O	27.975615305756353	-1.9231169027446902	3.7385199612798354
O	29.149038738055893	-0.9545530581762993	3.8096986638731307
O	30.289685984982214	-1.5274588876000121	4.338996844744747
O	28.56987881472294	-0.1876256133459353	6.081917094602865
O	26.070634993385397	3.635776756889939	6.4596698716197505
