99

O	-1.6997831665320509	-1.6738185441074356	2.275757058333333
O	-2.872456254532051	-1.6662512041074355	3.210861778333333
O	-3.287323434532051	-0.28369494410743545	3.618456658333333
O	-3.7028616145320505	-0.033490117107435435	4.748667018333332
O	-3.331919064532051	0.7211184708925645	2.536140278333333
O	-2.139781956532051	0.6507077668925645	1.6398193283333329
O	-2.1150601955320507	1.7373417818925645	0.6126344493333327
O	-0.8373171245320509	1.7184419788925647	-0.18191133366666723
O	-0.4689766685320509	0.35920759689256454	-0.7022798936666672
O	-0.4523149955320508	-0.6557973341074355	0.4378999143333328
O	-1.7998476635320508	-0.7150310541074354	1.123888888333333
O	0.012533775467949093	-1.9949952141074354	-0.061558628666667226
O	1.3096444654679493	-1.9490217841074353	-0.8148466206666671
O	1.298527065467949	-0.9366988541074355	-1.943863341666667
O	0.894709115467949	0.3855791898925645	-1.3024602916666672
O	1.135079315467949	1.3422076798925646	-2.424830461666667
O	2.4370493454679494	0.8235760902925645	-3.0386064616666673
O	2.6603298654679497	-0.5674109741074356	-2.459464271666667
O	3.175764545467949	-1.4587679141074357	-3.3810193116666674
O	0.40332060546794923	-1.3487550341074355	-3.077518621666667
O	-2.873081274532051	-1.1170105341074354	0.11916837133333275
O	2.3513138054679494	-5.485967454107436	9.097221458333332
O	5.287128675467949	-7.116202124107436	10.881719638333333
O	7.5737971754679485	-4.1051263141074354	10.386438238333332
O	12.556615755467949	2.9652708458925643	0.9146408383333329
O	13.186585755467949	-0.7721694341074354	0.6081640623333329
O	12.14293045546795	-1.6239081641074355	4.172016858333333
O	9.04584895546795	0.5883890138925645	4.186606528333332
O	7.680924195467949	-0.5922453741074354	0.8459605183333327
O	8.48659864546795	-4.231615114107436	1.5825826883333327
O	6.472539745467949	-3.8807413541074354	4.805070768333333
O	3.5765250654679495	-2.169812694107436	3.0354803183333328
O	3.565708965467949	-4.958639694107435	0.43385035633333274
O	3.44931182546795	-7.584249454107436	3.185183838333333
O	0.6167799054679493	-5.691925064107435	4.876937108333332
O	-1.164888866532051	-5.721735334107436	1.5295151683333328
O	-0.8357248805320509	-9.500264234107435	1.2788228483333328
O	-2.1644928445320506	-9.909449934107435	4.8260184683333325
O	-5.0284988245320505	-7.443129064107435	4.407905348333332
O	-6.086021624532051	-9.136273284107435	1.1691325383333329
O	-6.75565325453205	-12.367226134107435	3.0557686583333328
O	-10.74559604453205	-8.529034474107435	2.540084008333333
O	-8.94456593453205	-3.9458901841074354	-3.140833921666667
O	-6.82518737453205	-0.7815289641074354	-3.413733921666667
O	-9.795180024532051	1.5504806518925647	-2.965950461666667
O	-11.18588536453205	-0.5815902141074354	-0.14598163766666725
O	-7.9020448645320505	-0.6785441741074354	1.7547659283333328
O	-7.183972284532051	3.0296829558925644	1.3094644883333328
O	-10.690723714532052	3.944566855892565	2.5016058183333327
O	-10.32868997453205	1.7718858558925645	5.614127738333332
O	-6.81227376453205	3.0650148558925645	6.285806898333332
O	-8.139448824532051	6.605265675892564	6.063234208333332
O	-8.25037566453205	4.1517649058925645	10.966246538333332
O	-6.080199554532051	7.253319015892564	10.696150938333332
O	-0.4458890595320508	10.466043675892564	10.376139638333333
O	-1.3036944890320508	7.525497515892564	8.117291568333332
O	-2.220549236532051	4.559885275892564	10.326191538333333
O	-1.4899902805320508	1.6759222338925646	7.944380178333333
O	-1.2287190195320508	-0.6876704941074354	10.908591838333333
O	3.1687119454679493	-1.3251612041074357	13.781371438333332
O	3.3588265254679497	0.7975453988925645	10.649103638333333
O	2.2948705254679496	4.381305375892564	11.272175938333332
O	3.5835433854679497	6.903857075892565	8.741508928333332
O	5.8986783654679495	9.722697205892564	3.8110255983333325
O	8.617488795467949	5.9782168758925645	0.9526411783333328
O	8.95302175546795	8.110622115892564	-2.198550391666667
O	5.1440091154679495	8.187476845892565	-1.9792925416666671
O	4.719582785467949	11.659247765892564	-0.4911836876666672
O	2.266470715467949	12.993051465892565	-3.087090171666667
O	0.09943959546794923	9.883890925892564	-2.8003222916666672
O	0.2734376654679491	10.034807995892564	1.0046933683333328
O	-4.639043484532051	9.653079215892564	1.3800637283333328
O	-16.85823674453205	0.7450139732725646	2.346862318333333
O	-11.08653400453205	6.452852865892564	-7.182095271666667
O	-8.46607888453205	9.042992395892565	-8.260287331666667
O	-6.410852064532051	8.215566135892566	-5.163671801666668
O	-6.612447564532051	4.496633145892565	-5.898573631666667
O	-5.546158814532051	5.113533005892564	-9.514180181666667
O	-2.440489214532051	7.013010485892564	-8.393430791666667
O	-1.5499174105320508	4.139919375892565	-6.092634611666668
O	-2.159865119532051	1.6130430348925646	-8.865623921666668
O	0.28470954546794913	3.478977605892564	-11.095414661666668
O	2.8488344654679496	3.6933793358925646	-8.307749461666667
O	2.751882555467949	0.04218374489256449	-7.276768551666668
O	2.716910015467949	-1.1114796541074354	-10.912883861666668
O	7.462597355467949	-0.3289202941074354	-8.427771561666667
O	6.755581195467949	-3.9838793641074357	-9.310359621666668
O	11.26338825546795	-4.108557204107436	-7.893393831666668
O	15.35383245546795	-1.1861849941074354	-5.851630851666668
O	11.58439845546795	-4.152358554107436	-2.885948021666667
O	6.433358675467949	-8.303397584107437	-3.437974851666667
O	-0.6909323395320508	-12.599486034107436	-4.368084641666668
O	0.3632079654679492	-8.959934954107435	-4.665413021666668
O	2.6893759354679494	-9.662548834107435	-7.605832641666668
O	-0.08404866453205084	-11.627626534107435	-9.331100831666667
O	-2.816379704532051	-9.039527754107436	-8.884638951666668
O	-0.5519281445320509	-6.108720324107436	-9.743507951666668
O	0.7364054754679492	-7.766586384107436	-12.940990161666667
O	-4.093994524532051	-3.7465843041074356	-12.089663661666668
