21

O	26.90866440406908	5.151084880294527	4.61202886478885
O	26.099970241649594	6.383279936235493	4.886110684399277
O	24.69091917589609	6.285997708492644	4.379441381489169
O	24.090415344809955	7.267876205735942	3.9428442505331
O	23.99355526786971	5.012128075165795	4.646387397564556
O	24.85056793134552	3.82543568453658	4.353185956787022
O	24.142792028832194	2.5150046990237067	4.48372154174082
O	25.017910839214302	1.385021216083709	4.021980809697412
O	26.38609446187266	1.3762354607481595	4.640427131088447
O	27.04532789316441	2.720454542657474	4.360950235634635
O	26.228288664832156	3.8561095638573275	4.94468876723659
O	28.453998213683857	2.6854413500200334	4.8794607570391
O	29.26875474242641	1.5230067534722531	4.392577143091643
O	28.607419410557668	0.19118560100540827	4.616909110904161
O	27.217070371459364	0.3164006855503694	4.000748306832622
O	26.73152081860623	-1.0912876721327451	4.087254158904929
O	27.980259249772278	-1.9035581666125447	3.7349602081785753
O	29.1555015352415	-0.9412179641891536	3.7989953464186517
O	30.30031083169707	-1.5162111897756068	4.319013668199629
O	28.58010534956119	-0.19262918000818385	6.0691235715766565
O	26.069179534206533	3.653051276242139	6.4487232192812005
