28

O	27.39292417403151	4.316931406867666	4.180078817758311
O	24.893919048674267	7.502766406771795	4.944905663417721
O	26.447768453671546	5.3149403881255886	4.233969471883922
O	25.183353150366745	6.100254766404152	6.334965824660216
O	25.104699195301635	5.145727387110989	4.312216925423495
O	24.65704211662994	3.8282942473879484	4.442441141153854
O	25.596351766950253	2.784678437204244	4.451381253519539
O	26.79124505841932	3.0915554318475116	3.871879922313872
O	23.35155659205291	3.3843449758683137	4.910368232883737
O	24.557561779407244	6.166257745893361	5.195559560003255
O	27.76562029930406	2.1074263715172625	3.802774044690993
O	27.573015950399743	0.8253625751485278	4.351031871668642
O	26.45714233149094	0.2801514206358897	4.083925143403649
O	28.723846146328388	-0.02432258908425	4.550440823611079
O	29.74959123345001	0.44353260537897876	3.7276733504538884
O	28.553031275283487	-1.4506361724390997	4.009968313846791
O	29.30441915725827	-0.19632982758210615	5.880283997938325
O	29.148468951419535	0.7587192937336548	6.838991931198872
O	29.070950327842656	0.8525629909344716	8.178764179982771
O	27.798920411239866	1.00700478048116	8.73113848897377
O	27.318121102269178	0.20083000342943969	9.787486036242937
O	28.247494920968975	-0.5415530543819562	10.538554550019072
O	29.342821425064397	0.26488938490517056	10.57710528259487
O	29.887412090581225	0.6102308527045261	9.289895724885884
O	22.730656496842343	2.315516058207675	4.371904996166282
O	27.8673824844184	-1.842312777409866	10.722160841752848
O	22.43631059235457	4.347913516788603	4.997483461556383
O	23.338970067232303	3.0159718353036897	6.2573389333279374
