100

O	-2.220092961727941	1.3210150195588235	4.481290681152942
O	3.957679858272059	-2.2017923184411767	0.2094038021529414
O	-1.893738831727941	2.791183231558824	4.3268027411529415
O	-2.3570782417279412	3.3617048815588237	5.322046641152942
O	-0.6084241035279411	3.3378292715588236	3.8406339411529418
O	0.49336911827205887	-1.4928215584411764	-0.2324052118470586
O	0.18403530027205894	2.6763027215588235	2.8197518811529414
O	-0.632152168827941	1.4098815375588236	2.5724176611529415
O	-1.0194015817279412	0.6735605665588236	3.8515577211529415
O	0.41738576827205887	3.3056297915588235	1.4763139611529414
O	1.6322186282720588	2.8464664515588236	0.7420995511529415
O	1.5444964182720589	1.4511318935588235	1.1824258711529416
O	0.347075728272059	0.8003238155588236	1.6872357311529416
O	2.870623928272059	0.9718532395588236	0.9340018811529415
O	2.558134468272059	-0.45865250844117633	0.5155958071529414
O	1.6657618182720588	-0.9682609784411762	1.4465074411529413
O	0.472750798272059	-0.5809532284411765	2.2675907411529415
O	3.7026809282720587	1.3447545755588237	-0.2505224588470586
O	4.55816361827206	0.06389535155882364	-0.4691051278470586
O	4.039775298272059	-0.8813336184411764	0.5936818891529414
O	-1.9148978917279411	1.9761748975588236	2.0941270511529417
O	2.275289098272059	-0.3545112484411763	-0.9501674818470586
O	1.3972578282720587	-1.4726210784411762	-1.3447067568470588
O	-0.379859433727941	-2.5093305084411766	-0.7873488678470586
O	-1.192628724727941	-1.7227911784411762	-1.7459284088470586
O	-0.666740796427941	-0.4226923484411764	-1.8878580188470586
O	-1.301631129727941	0.7106867335588236	-1.1846911228470587
O	-2.602697091727941	0.48711413955882366	-0.7067885858470586
O	-3.2674678717279413	-0.35311227844117643	-1.5726299188470585
O	-2.540681631727941	-1.5743611484411766	-1.5682740988470587
O	-3.936686971727941	-0.23077455844117645	-2.8135904188470584
O	-0.28176774372794106	1.5430229045588235	-1.3663044688470585
O	-2.2598599817279412	-3.379278868441177	11.39617363115294
O	-1.839344371727941	-6.296399158441177	13.784488331152941
O	6.5288797082720595	-4.993747538441177	5.028512531152941
O	4.329111638272059	-8.024976968441175	5.794794381152942
O	2.535318558272059	-5.885336698441177	8.428781041152941
O	2.137249928272059	-2.9519323484411766	6.182934551152941
O	0.7170836182720589	-5.3386132684411765	3.4789703411529413
O	-1.8244974517279409	-6.5968415284411765	5.915237841152941
O	-2.716289671727941	-3.008395268441177	6.929846971152942
O	-3.2561942817279412	-2.3199780084411765	3.3313430611529413
O	-5.655911721727941	-5.227302758441176	2.8984791011529416
O	-7.533502711727941	-3.982273878441177	5.924603611152942
O	-7.611665391727941	-0.3283919184411763	4.938711751152941
O	-8.844197271727941	-1.2256251884411762	1.5128235311529412
O	-11.995192821727942	-2.7587834784411767	2.9839603111529414
O	-11.830069121727941	2.6528744015588237	1.6976071811529416
O	-14.31077282172794	0.7102990745588236	-0.4234817142470586
O	-8.392071131727942	0.5639150005588236	-7.383669598847058
O	-6.582568421727941	5.981108741558823	-6.335817538847058
O	-6.275192301727941	3.954056701558824	-3.1613104988470586
O	-2.541497521727941	4.740317481558824	-2.8779893588470586
O	-2.876105931727941	8.396191221558825	-2.9384245288470585
O	-5.96203840172794	8.283169061558825	-0.6608448518470587
O	-4.341490091727941	6.191726781558823	1.9841578811529414
O	-1.053204005727941	8.292922281558823	1.9290536611529414
O	-2.977547681727941	11.461188491558824	2.2740701811529416
O	-4.946409421727941	10.088478191558824	5.265505601152942
O	-1.8008300117279412	8.706897591558825	6.892414091152942
O	-2.9420214517279413	10.984462191558825	11.104126331152942
O	4.742245698272059	8.118745961558824	10.236778131152942
O	1.542701548272059	6.976785951558823	11.957046831152942
O	0.43739760827205887	4.118658751558824	9.688612831152941
O	-1.6583755687279411	2.7067747815588237	12.507718031152942
O	11.729645978272059	2.5633488015588237	2.0228842711529413
O	13.527446578272059	5.511237861558824	3.5767898011529415
O	13.408339778272058	7.790294501558823	0.5164912921529414
O	9.694115678272059	7.186799491558824	0.08243170615294143
O	9.095146588272058	7.691093401558823	3.818925121152941
O	-12.682602021727941	12.887987691558823	-1.4149715588470584
O	-8.23941342172794	12.414731691558824	-4.504654408847059
O	4.621599748272059	10.234182001558825	-3.8797229088470586
O	1.981350218272059	7.692173651558823	-4.836576798847059
O	3.8678841382720592	6.807821731558823	-8.026711608847059
O	7.068228548272059	6.135194281558824	-6.0859557288470585
O	5.158034928272059	3.886486881558824	-3.8625595688470584
O	3.542726198272059	2.086430813558824	-6.786373618847058
O	6.96258057827206	1.3558358015588237	-8.210770468847059
O	8.283088718272058	0.12888309155882371	-4.914207998847059
O	5.520816448272059	-2.2774850884411766	-4.126137058847059
O	5.30391876827206	-3.5616292784411767	-7.669061968847059
O	8.544642268272058	-5.994880008441177	-4.037741538847059
O	5.657935418272059	-8.195530878441176	-5.247459388847059
O	8.284924548272059	-11.235358408441176	-2.7321380388470584
O	12.678543178272058	-11.748393008441175	0.41521582315294137
O	7.409152168272059	-10.775196208441177	2.2078446311529416
O	3.7613324582720584	-11.843027808441176	2.3417985911529415
O	1.093881598272059	-10.175083908441175	0.1742871531529414
O	-2.611263991727941	-10.716044908441175	1.0087840811529416
O	-6.598625671727941	-8.287724288441176	-2.7457281888470586
O	-3.232818251727941	-6.734060938441177	-2.5911083088470583
O	-1.5100869897279412	-9.139032308441175	-4.922100238847058
O	-4.402380391727941	-8.810815748441176	-7.390421108847058
O	-4.494664491727941	-4.970233848441176	-7.471150708847058
O	-0.703013365227941	-4.647233408441177	-7.630196528847058
O	-0.33780449872794105	-7.154164828441176	-10.473467068847059
O	-3.4145209717279412	-6.115103728441176	-12.487996568847059
O	-0.894355214727941	-0.8160052984411763	-10.581952468847058
O	0.983076008272059	-1.7861935784411764	-13.821502268847059
