20

O	26.941147447252852	3.2839243780020273	4.500755000982434
O	24.130837923863343	6.480093136767049	4.686522286667837
O	23.68533203826567	7.2082199064109815	3.582962912205118
O	25.58616096584442	2.9970289767142066	4.3699015700700325
O	24.561415697140745	7.3677910335641315	5.498849558676852
O	24.60519942797804	4.003116219111354	4.409360074750282
O	24.960934546190114	5.348732610423423	4.3432158232582765
O	26.255322611125628	5.637853291731499	4.435872557557662
O	27.187571749292797	4.633339745091577	4.166759191856133
O	23.1783630782311	3.719673041119905	4.511455033466255
O	28.004587244695532	2.4080100603967223	4.197624001437321
O	27.873254595134412	0.9752996165104397	4.227331454890628
O	27.88442859054793	0.6783148360368019	5.460921724490427
O	28.892267846602426	0.009797691216286708	3.7165857135957086
O	30.178838983234762	0.44463825171414717	3.8719639014152385
O	28.998112480677424	-1.302987428535987	4.441492913474462
O	28.474050616238372	-0.8215000058974171	2.607990553990226
O	22.429747329852958	4.822170742298105	4.690299328267716
O	22.428633107502915	2.969198622237787	3.727507810710473
O	22.943108735552368	3.1625658867936637	5.722145135103739
