99

O	3.2157590576410255	-0.07340581200128171	0.7279767628589751
O	4.455439677641025	0.7254372359987183	1.000176602858975
O	4.167720847641025	2.1051338099987182	1.514663952858975
O	4.900861167641025	2.662745489998718	2.330132792858975
O	3.078747377641025	2.8319834699987183	0.831575142858975
O	1.8840071076410256	1.9817014599987184	0.5637852368589749
O	0.7199294276410255	2.7249747599987186	7.528785897492618e-05
O	-0.5044244283589746	1.8584894699987182	-0.0964122151410251
O	-0.2611700953589746	0.5155064339987183	-0.7190731561410251
O	0.8904849076410255	-0.19042289000128165	-0.0040306791410251175
O	2.1522373476410257	0.6435242099987183	-0.051948079141025116
O	1.0813579176410253	-1.5798695700012817	-0.542316886141025
O	-0.16984028035897458	-2.4072220600012817	-0.5855138821410251
O	-1.3106419583589746	-1.7082955400012816	-1.2706457511410252
O	-1.4593788703589745	-0.36122246000128166	-0.5866953491410251
O	-2.7363081123589748	0.13711055299871833	-1.1816711671410252
O	-3.5966062923589748	-1.1259124000012817	-1.2553905201410251
O	-2.6660962723589745	-2.298439640001282	-1.002336209141025
O	-2.9629282123589746	-3.406329770001282	-1.773861087141025
O	-1.1079143173889745	-1.6204062800012817	-2.756249467141025
O	2.5442371076410257	0.8708363668987184	-1.5072065971410251
O	6.2371176776410255	-4.8536700400012815	7.476008872858975
O	6.171018597641025	-7.744156910001282	9.946546212858975
O	2.7421692876410253	-6.805591820001282	11.325997512858974
O	-9.329831132358974	-5.187260190001282	7.3021856728589745
O	-7.793788642358975	-8.548336820001282	6.406382902858975
O	-4.807161712358974	-8.235158590001282	8.751345552858975
O	-4.038484302358975	-4.610014370001282	7.8848198928589746
O	-4.207338342358975	-5.043456940001282	4.1163758028589745
O	-2.3031033023589744	-8.329764940001281	4.212762312858975
O	0.4601811276410255	-6.512870560001281	6.1173209128589745
O	0.4633983776410253	-3.5826238700012816	3.699532522858975
O	0.6989252376410253	-6.0268840100012815	0.7830451428589749
O	3.6675803476410254	-7.759542160001281	2.424733752858975
O	5.308556577641025	-4.382539430001282	3.030217172858975
O	4.756196667641025	-3.653065790001282	-0.6511149201410251
O	6.5413968676410255	-6.859917260001282	-1.648912837141025
O	9.454929597641026	-6.026285640001282	0.6593976528589749
O	9.707678197641027	-2.3849727300012815	-0.40638480814102507
O	9.681468397641027	-3.3996216800012817	-4.0727938671410255
O	12.902149997641025	-5.355599560001282	-3.573853037141025
O	13.062455597641026	0.041334335998718275	-4.902309067141026
O	6.398933547641025	2.0028628999987186	-7.777816337141026
O	3.1063376176410253	3.186609369998718	-6.249891637141025
O	3.9480052376410253	6.872166239998719	-6.659613837141025
O	7.497019107641026	6.312842309998718	-5.425742367141026
O	6.4028187276410256	4.4329230799987185	-2.316756867141025
O	3.623154607641025	6.879163619998718	-1.446016817141025
O	5.991566077641025	9.844446469998719	-1.820001467141025
O	8.579916097641027	8.219922259998718	0.4608109028589749
O	5.918944257641026	7.171260019998718	2.974113682858975
O	4.672600207641025	10.746184579998719	3.050107352858975
O	8.643991027641025	9.362598889998718	6.5687120728589745
O	5.3556990976410255	10.467402139998718	8.108027962858975
O	-0.26541298335897456	9.553030129998719	11.228650512858975
O	0.7828857776410254	7.530336099998718	8.179896302858975
O	4.179053227641025	5.964452289998718	8.902365252858974
O	4.103884977641025	3.011380829998718	6.495898572858975
O	6.7881767476410255	1.2818028629987184	8.557005852858975
O	5.776116387641025	-1.6040384500012816	12.874984112858975
O	2.8483916576410255	-0.35502384000128173	10.819333812858975
O	1.8427887176410256	3.1790411899987183	11.748604012858975
O	-1.7117752703589746	4.137494809998718	10.812768012858974
O	-7.330813842358975	4.468296289998719	8.375748062858975
O	-8.454185372358975	-0.41741735000128166	6.266116832858975
O	-11.489506702358973	0.7496676180987183	4.262943462858974
O	-8.951184492358975	3.141616969998718	2.712778642858975
O	-9.867274392358974	6.285147799998718	4.645373872858975
O	-10.362720022358975	8.568851089998718	1.633103292858975
O	-7.062930822358974	7.459598389998718	0.10827587385897491
O	-5.305221592358975	7.849534809998718	3.468276192858975
O	-1.7150044113589744	10.563084779998718	1.428157392858975
O	11.706392197641026	11.046926839998719	-5.588395957141025
O	-0.14095585635897456	11.105102039998718	-9.632784387141026
O	-3.848799992358974	11.451630339998719	-8.701139587141025
O	-3.1225051323589748	9.857852159998718	-5.319839347141025
O	-1.2780472133589746	6.973333799998718	-6.958856857141026
O	-4.173470552358975	6.456806259998718	-9.396450297141026
O	-6.677238652358975	6.181529209998718	-6.5392904971410255
O	-4.453355672358975	3.6010381499987183	-4.878222737141026
O	-4.064725662358975	1.7056974149987183	-8.150526767141026
O	-7.843369002358974	1.4744144609987182	-8.461070167141026
O	-8.191697432358975	0.3636782069987183	-4.850789067141026
O	-5.546067892358975	-2.3571727000012817	-4.921254327141026
O	-6.7434061623589745	-3.6041248200012816	-8.321930047141025
O	-8.978498572358975	-5.619214130001282	-3.8215684371410252
O	-6.919766832358975	-8.161552180001282	-5.805927587141025
O	-9.040551492358974	-10.853964460001281	-2.551036207141025
O	-12.284259602358974	-10.828286560001281	1.798187832858975
O	-6.650428882358975	-10.588410060001282	1.8529779628589749
O	-1.2628957113589745	-10.792857860001282	-2.020296847141025
O	5.289399047641025	-9.951412760001281	-7.161441607141025
O	2.406824707641025	-7.749512460001283	-6.027336337141025
O	-0.2156194533589746	-10.005677860001281	-7.634664617141025
O	1.7991414276410256	-10.043574560001282	-10.870443587141025
O	2.342143537641025	-6.299952750001282	-11.107119887141025
O	-1.2142231403589745	-5.447210650001281	-10.069776337141025
O	-2.7592460123589744	-7.8528213900012815	-12.611444687141026
O	-1.4545403173589746	-1.6675029100012817	-13.117075687141025
