21

O	26.88830742570359	5.120391741836535	4.862823095896923
O	26.01561494277969	6.364963234960314	4.976262895124195
O	24.702988816263513	6.1334549237671325	4.3482065219074535
O	23.9897863817886	7.144532937632806	4.1174742407663505
O	24.257220891424943	4.777832327561786	4.407127586221373
O	25.036316324899392	3.663711926221104	4.491951327910043
O	24.212314611048814	2.2996063196049716	4.604994285966294
O	25.08273136588454	1.2083812071789168	4.10032560519807
O	26.46010790174278	1.378158522014918	4.678875307801591
O	27.090689998402716	2.742287628421166	4.402613946321843
O	26.289399216578087	3.789175568804655	5.173014902000676
O	28.50895061029503	2.7031089593930964	4.883968457700219
O	29.320387484728688	1.5322047015030291	4.412099545587426
O	28.683959055670837	0.19509379086700185	4.675098160088202
O	27.29048532951398	0.298414125319338	4.061199310210009
O	26.78991604722168	-1.0996042488616338	4.21672169649337
O	28.029316050266647	-1.9160303181743457	3.8490549790742183
O	29.208873591110788	-0.9501018300059605	3.8582678817825378
O	30.3758681077821	-1.507719175787705	4.337151970206931
O	28.65609097402062	-0.17831723048962056	6.129369278466992
O	26.313489061423002	3.2901254692368544	6.607478510586684
