21

O	26.907707144781355	5.140272287626966	4.600200676032717
O	26.105873318270273	6.373421531672104	4.8925164803468295
O	24.697611283985985	6.2894990097384795	4.379177926182986
O	24.10231950086667	7.278252810311554	3.9523660700548913
O	24.008595006779814	5.002936347649729	4.610022514896873
O	24.8704730786002	3.812747028066339	4.343797175292124
O	24.146134614808183	2.513943146500703	4.523501257552115
O	24.984838604395	1.3457834328555958	4.0720598628577385
O	26.377915691467166	1.3622344586323756	4.6323554679649925
O	27.04694280292199	2.7098363946747495	4.3741839700785015
O	26.23691584701355	3.847178892816606	4.959138249452134
O	28.464022643851486	2.6842035450305994	4.874369448793635
O	29.269792294636986	1.526311852491655	4.363056065612659
O	28.602747295988348	0.18620350809370056	4.6268092988751715
O	27.21509571679615	0.3029529041753818	4.002413957248263
O	26.73516675809711	-1.1097066986974953	4.112353486749762
O	27.984509960910444	-1.9166312552215892	3.7502670652532015
O	29.157237562052256	-0.9440726719115189	3.8086143648026436
O	30.302420623477726	-1.515171650220761	4.331360025905365
O	28.569534652384878	-0.16295215867195822	6.087243159012525
O	26.0603327074948	3.671082544271365	6.460863839522991
