22

O	-36.78705602843992	-6.23019573894547	18.046173062136404
O	-37.22735345829797	-7.45853735984991	17.666574283380104
O	-36.262233532147356	-8.416968964544719	17.62790677645342
O	-34.95236498107063	-8.11748556365164	17.982355086226
O	-34.531017083548136	-6.82081537807553	17.76847030955477
O	-35.48889407615998	-5.896790714924993	17.833430591847424
O	-36.41670315277911	-9.702584671003068	18.021922085896332
O	-35.4294432815345	-10.116125660334783	18.804991962412217
O	-34.42019155777265	-9.212129693948013	18.626178641100154
O	-33.1440896136462	-6.584828017956559	17.697098644888737
O	-33.33825030951265	-8.92512807143207	19.658141778390938
O	-34.21567130276029	-8.787253451972406	20.889932768595227
O	-34.292930716199116	-10.028415764976252	21.551061205909996
O	-34.773073512834436	-9.71031548260082	22.82366247346286
O	-36.13567644857351	-9.40945064243962	22.659630315699047
O	-36.370165810566135	-8.353833360025973	21.77742355160258
O	-35.402704874061925	-8.04983256880021	20.816964406709285
O	-34.25349853021626	-10.14898101135464	24.046326897345203
O	-37.587660759434065	-10.458486749975478	17.75196695281595
O	-37.41523649766759	-11.893555311845162	18.150269086937033
O	-38.70569346706333	-9.763476779953912	18.531673509617963
O	-37.936524672063626	-10.303542993335782	16.29893711693758
