97

O	-1.2588557352486847	-0.28071244560526354	-4.377552131164473
O	-0.3805671972486846	-0.9410568656052637	-3.453593821164473
O	-0.25148983724868457	0.07332531639473638	-2.414667031164473
O	0.9033894277513155	-0.041442055605263595	-3.5257471811644727
O	1.4500803277513152	-1.3368982256052635	-3.740964241164473
O	1.9590850377513154	-0.013509063605263605	-2.608567651164473
O	1.4397790377513155	-0.8349652256052637	-1.507224341164473
O	1.5379256377513153	-2.0028908756052637	-1.546763011164473
O	0.33532392775131536	-0.04860029560526369	-1.155772245164473
O	0.49186738775131533	0.33732443839473636	0.2162356368355269
O	1.5910148777513156	0.9815085151947364	0.7745742188355269
O	1.9999920577513155	0.7151481933947363	2.084339298835527
O	0.9650316077513152	0.3632284823947364	2.906531038835527
O	1.1111344377513155	0.5534812353947365	4.299416848835527
O	1.5923062877513154	0.5993468103947364	5.331146628835527
O	-0.20645862124868453	-0.10075960560526365	2.4032881488355273
O	-0.20584200124868457	-0.4543626556052637	1.0322232988355269
O	-1.3282756042486845	-0.6998432956052635	3.0706724788355273
O	-1.3643316762486846	-2.0551743756052634	2.638288108835527
O	-1.7985642392486847	-0.8355672356052636	4.246567198835527
O	-2.5875909722486847	-0.48657093560526354	2.420226058835527
O	6.412315707751316	8.461618084394736	2.432987698835527
O	7.860040537751315	11.660429224394736	0.9628978388355269
O	4.5301604477513155	12.787073624394736	-0.519617929164473
O	-4.375684162248684	8.650472094394736	-8.771763941164473
O	-0.8504479232486846	8.726265134394737	-10.158937671164473
O	0.6123392677513155	10.802456164394735	-7.335796231164473
O	-1.1192113126486847	8.907199904394737	-4.540835061164473
O	-0.2351860842486846	5.382500274394736	-5.751092981164473
O	3.3097479377513155	6.494771944394736	-6.638499961164473
O	3.6771442777513155	7.736028194394736	-3.039768421164473
O	2.1369289877513156	4.481061834394736	-1.6215215111644732
O	4.546998207751315	2.519993564394736	-3.718155521164473
O	7.528110777751316	4.534568354394736	-2.443451211164473
O	6.267815297751316	4.097309024394736	1.150793298835527
O	6.147874607751316	0.4049375283947364	0.46095932383552685
O	9.749726737751315	0.31153348639473644	-0.7365817771644732
O	10.784144037751316	2.2065003543947364	2.403344948835527
O	8.644436987751316	0.1205675003947364	4.784749618835527
O	10.042638337751315	-3.0805673156052635	3.263880618835527
O	13.574994437751316	-2.1151185956052636	4.304421508835527
O	10.287741837751316	-4.927744595605264	7.782797058835527
O	4.798005817751315	-8.111996975605264	3.808112368835527
O	1.3686779977513153	-7.041380005605264	2.691882898835527
O	-0.4580867972486846	-8.459482645605265	5.681664748835527
O	2.2199884277513156	-7.136230455605263	8.034885958835527
O	2.1050834077513154	-3.6023258956052637	6.650405848835527
O	-1.6699102212486845	-3.4614406656052634	6.6176185488355275
O	-1.9269560412486846	-4.696312135605264	10.208722408835527
O	0.5802526077513155	-2.0685233456052634	11.380627808835527
O	-1.0868457889486847	0.6887671303947365	9.349057168835527
O	-4.400913302248684	-0.24138367560526353	10.929295408835527
O	-1.3176393912486846	3.4532236343947367	13.560796108835527
O	-4.684820282248685	4.669792734394736	12.316584808835527
O	-8.655438222248684	8.061661134394736	8.433777098835527
O	-5.973209112248685	5.722170054394736	7.147565198835527
O	-2.6265698322486846	6.771994954394736	8.619625638835528
O	-0.23161809824868462	5.313224164394736	6.034727868835527
O	2.4626514477513153	7.727813044394736	7.196109608835527
O	2.8861328977513154	12.726021524394737	5.482595258835527
O	0.34604132775131546	10.473246714394737	3.817320408835527
O	-2.9348582722486847	10.349123394394736	5.701870978835527
O	-5.937855982248685	9.248186714394736	3.651687298835527
O	-9.720499922248685	6.931439634394736	-0.5961170861644731
O	-6.8230335822486845	6.333046104394736	-5.163281561164473
O	-9.401630772248685	4.132182684394737	-6.922546251164473
O	-8.913677372248685	1.9115871443947365	-3.849262461164473
O	-12.051570762248685	2.874430914394736	-1.9429933711644731
O	-13.368311162248684	-0.6610376656052636	-1.402551291164473
O	-9.987794172248684	-1.8692996756052636	-0.18057226866447307
O	-9.600690492248685	1.2027048223947365	2.0421690888355273
O	-8.499258002248684	-1.6053511856052634	5.960947468835527
O	2.0582221277513155	-8.739492225605265	14.158950908835527
O	-5.697286432248685	-12.429043375605264	5.001417088835527
O	-8.745693802248685	-11.535737175605265	2.837865258835527
O	-7.789174432248685	-7.856245455605263	3.020927568835527
O	-4.209099062248685	-8.631543665605264	2.010952938835527
O	-5.465188362248685	-10.730187175605264	-0.9124691511644731
O	-7.582551822248685	-7.847607555605263	-2.209784401164473
O	-4.557345102248684	-5.551262905605264	-2.005426941164473
O	-2.3944456322486847	-8.137384645605264	-3.727364911164473
O	-4.862920842248684	-8.288262845605264	-6.618029861164473
O	-5.010132322248685	-4.507910535605264	-6.798922121164473
O	-1.2531653002486847	-3.8497984156052634	-6.773199631164473
O	-0.7083217882486845	-6.749993445605264	-9.266660181164474
O	-1.7855995172486847	-1.8369979456052636	-11.213018391164473
O	1.7613921977513156	-3.0431759756052634	-11.948015391164473
O	-1.6489101742486847	5.100410494394736	-15.876971791164474
O	2.1835712677513155	4.954126834394736	-11.737907391164473
O	11.910534737751316	-4.058547595605264	-4.9455899511644725
O	8.089081497751316	-3.537665745605264	-5.1987318711644726
O	8.097512587751316	-4.382591545605264	-8.906864251164473
O	10.205308937751315	-7.503752655605265	-8.267776771164472
O	8.126658167751316	-8.850266755605263	-5.404530601164473
O	4.8022551977513155	-8.030761595605265	-7.067903041164473
O	5.7940647777513155	-9.717974375605264	-10.340234691164472
O	2.6529577977513155	-12.036041675605263	-5.342247831164473
