21

O	28.644231198968363	-0.20546812727514752	6.030930385696092
O	25.269998865165945	2.930385771444204	2.405099611541662
O	26.53912225538699	3.4016730152332926	6.859658821414379
O	30.1251005114312	-1.4226190369673208	4.073179510118795
O	26.682158774677056	-1.109238121132841	4.231695604068434
O	27.88598202066088	-1.9098972901594151	3.962966851526137
O	24.94204552702887	0.863458758447192	4.503042280741971
O	26.40930644371589	4.943638258579817	3.7907452112886593
O	28.39666536558354	2.716598997205726	4.931317850057141
O	24.095660675234626	1.8669759647469175	5.201894099044191
O	26.41991761289056	4.953618643949655	5.145865053277564
O	29.31986235055996	1.5369103315758015	4.572454016025128
O	24.56715463221311	3.8667821190721567	3.992421205622052
O	26.012415089436054	3.471440802357435	3.3308891679025656
O	26.374560141149004	1.183767554121015	4.809841105862908
O	27.19242083423173	0.30187380200676595	3.995940131065674
O	26.980099149460596	2.5294319651431403	4.64795211906784
O	28.971249804453812	-0.8734794099796592	3.6303194297087327
O	24.736040789861335	3.1245274316636933	5.03053235112649
O	28.59341046651563	0.2441329038051714	4.562084639777167
O	26.105161803836012	3.3838702752810494	5.469877944329553
