99

O	2.6833810348666667	0.5401170760256411	1.806035654038461
O	3.152959684866667	0.9300220170256411	3.2051889240384606
O	2.025604904866667	1.3907854860256412	4.033927214038461
O	2.262141884866667	1.961498876025641	5.1392647940384615
O	0.7918749548666666	0.7554250269256411	3.6845065440384612
O	0.4172444448666668	0.2965241710256411	2.4572277440384607
O	-1.0136543361333334	-0.4026099639743589	2.505629744038461
O	-1.4842448581333334	-0.3705290839743588	1.092686794038461
O	-0.40087224013333334	-0.763973913974359	0.135923101038461
O	0.8687829348666667	0.03019287402564108	0.259396252038461
O	1.4410360748666666	-0.27642495397435896	1.6485692540384609
O	1.8098052448666668	-0.4014465339743588	-0.828910607961539
O	1.2304819548666668	-0.32712498397435896	-2.211281575961539
O	-0.04143947513333335	-1.143189313974359	-2.323260055961539
O	-0.9578624171333333	-0.5851684739743589	-1.238002325961539
O	-2.2429073351333333	-1.283732323974359	-1.543749395961539
O	-2.2782162151333334	-1.218038883974359	-3.070050875961539
O	-0.8822120831333333	-0.8339021639743588	-3.529498905961539
O	-0.48101306713333336	-1.492492603974359	-4.6742061859615385
O	0.19871008486666675	-2.619277653974359	-2.176354805961539
O	1.5575573548666668	-1.791277673974359	1.637350764038461
O	7.3162931148666654	8.04040161602564	-0.039814432961539026
O	8.671235924866666	10.78818309602564	-2.293864265961539
O	5.203800914866667	12.00357749602564	-3.3147645459615394
O	-5.4593483851333335	7.602906716025641	-8.936125495961539
O	-2.2704296151333336	7.079566076025642	-10.940766905961539
O	-0.12210259513333321	9.43976503602564	-8.859348965961539
O	-1.4078423031333334	8.22682985602564	-5.487696205961539
O	-1.0396536041333333	4.521365106025641	-6.218851055961538
O	2.3436498448666665	4.983684756025641	-7.883582055961539
O	3.508619574866667	6.745275506025641	-4.7040143459615384
O	2.0765710648666666	4.045610956025641	-2.4469132259615387
O	3.832500474866667	1.401860156025641	-4.564615045961538
O	7.131107894866666	3.2641486660256414	-4.232981625961539
O	6.580621264866666	3.5475130560256414	-0.471920522961539
O	5.992710564866666	-0.1893010549743589	-0.441465457961539
O	9.339502384866666	-0.817512253974359	-2.206108605961539
O	11.129587084866666	1.449332080025641	0.271291655038461
O	9.408321484866667	0.02409673702564108	3.3542080440384607
O	10.230566084866666	-3.5200531639743584	2.2280113140384614
O	13.943248184866667	-2.7557819039743587	2.4204696740384612
O	11.218021184866666	-4.623610953974358	6.8922222840384615
O	4.799545514866667	-7.827281203974359	4.637255274038461
O	1.2961060148666665	-6.504298473974359	3.916998664038461
O	0.0026500948666667856	-7.246800873974359	7.410016504038461
O	3.1821170148666664	-5.892225883974358	8.99327270403846
O	3.0837195048666666	-2.629565533974359	7.054054114038461
O	-0.6435761521333333	-2.073412643974359	7.626032504038461
O	-0.2632498371333333	-2.6776082339743588	11.350474294038461
O	2.6194112948666666	-0.1942071129743589	11.57798889403846
O	0.7928570948666667	2.351042256025641	9.422216684038462
O	-2.2043294151333335	2.049842286025641	11.720654194038461
O	1.6208677348666667	5.757489586025641	13.00127269403846
O	-1.8397093421333333	7.118431666025641	12.235105394038461
O	-6.261773635133334	10.207775146025641	8.603560444038461
O	-4.064562395133333	7.4060702160256415	7.285535114038461
O	-0.4195199191333333	8.335523616025641	7.903492734038462
O	1.298813324866667	6.229858356025641	5.228263204038461
O	4.337898344866666	8.504584216025641	5.430154494038462
O	4.766990044866667	13.08315839602564	2.7940735440384614
O	1.7916721648666667	10.85241089602564	2.063351034038461
O	-1.0500466827333332	11.40125599602564	4.509700414038461
O	-4.473061245133334	10.30932182602564	3.2742047140384614
O	-9.165119795133334	7.741264546025641	0.265590902038461
O	-7.274313645133333	6.111503286025641	-4.568948815961539
O	-10.296372235133333	3.9377762260256413	-5.4203018259615385
O	-9.383559755133334	2.208840836025641	-2.1435841259615387
O	-12.010792215133334	3.797247636025641	0.10165834003846097
O	-13.453536115133334	0.5593022180256411	1.507118194038461
O	-9.982403825133334	-0.778152503974359	2.296752394038461
O	-8.974956395133333	2.560011386025641	3.836727394038461
O	-7.315743875133334	0.3289363590256411	7.923200714038462
O	4.105284314866667	-6.431401743974359	15.23664849403846
O	-5.520164445133334	-10.70209980397436	8.44415743403846
O	-8.865059395133333	-9.87957310397436	6.747068824038461
O	-7.627381345133333	-6.3433032739743584	6.076667254038461
O	-4.391838715133334	-7.655142013974358	4.5826571140384615
O	-6.345640015133334	-10.07393490397436	2.3700480240384607
O	-8.467470205133333	-7.240411083974359	0.9711471040384609
O	-5.307791595133333	-5.276368053974359	0.18934315003846097
O	-3.729259165133333	-8.34148028397436	-1.414431825961539
O	-6.732142835133333	-8.71576852397436	-3.7163471759615394
O	-6.6790037651333325	-5.023334373974359	-4.573796915961538
O	-2.9842439051333334	-4.772252583974359	-5.384552145961539
O	-3.0442011151333332	-8.04747183397436	-7.317364455961539
O	-4.129699585133333	-3.4152243639743585	-9.90534685596154
O	-0.8770513251333334	-5.092773423974359	-11.020793605961538
O	-1.4016513301333333	-1.6273457139743588	-14.192955205961539
O	-4.430765375133333	2.633915396025641	-15.65252820596154
O	0.12821808486666675	2.7759842760256412	-12.333573805961539
O	5.010474514866667	-0.9486004339743589	-9.808515755961539
O	10.376122984866667	-6.017419443974359	-5.860392045961539
O	6.684670564866666	-5.166522563974358	-5.540581105961539
O	5.850323954866667	-6.592054293974359	-8.978010455961538
O	7.784027434866665	-9.76589190397436	-8.12844270596154
O	6.201822514866667	-10.36791910397436	-4.739842525961539
O	2.6968058748666666	-9.486819603974359	-5.917460315961539
O	2.910793984866667	-11.80949690397436	-8.954577955961538
O	0.6418176748666666	-12.90324240397436	-3.1374853259615394
