21

O	26.912300515519988	5.135979916121303	4.632057428610806
O	26.090749623930378	6.364783237427261	4.879788105294516
O	24.686782718524466	6.260689828191812	4.423301002867802
O	24.079386915644278	7.182189718916709	3.880303631454973
O	23.98700911537191	4.98352404153651	4.670430947710052
O	24.858151052837467	3.8143442030247185	4.348729864304642
O	24.14682723909675	2.5038413374839994	4.4666221201672665
O	25.022566408223895	1.363250743573232	4.033756754972096
O	26.393395767467492	1.3641058578290748	4.642445152038803
O	27.03730432884033	2.693849101750575	4.352868825961731
O	26.229041552232232	3.8382920433481065	4.955181810922642
O	28.443407300250538	2.65219851555509	4.880232235974648
O	29.26997243172555	1.5056634409790932	4.378506004566576
O	28.61000943881454	0.17414359393633583	4.603419552193916
O	27.215599967693215	0.2990692402519961	3.9957429461786713
O	26.72946844917986	-1.1085267085825825	4.0907917461012495
O	27.97896566336893	-1.9176743855087215	3.735533244515083
O	29.152551177210796	-0.9612945431046975	3.7839891850744793
O	30.302750942670738	-1.5266257552532492	4.304597466209737
O	28.59008571420319	-0.20323375182861692	6.057191509398355
O	26.11350086179002	3.647886557003992	6.463955170133092
