99

O	-2.016982505888461	2.4963897395038464	-0.7328142015897429
O	-3.083546623888461	3.4191812395038466	-0.22361037828974284
O	-3.032251503888461	3.612071929503846	1.2623983604102573
O	-3.262805783888461	4.699868309503847	1.7878387604102572
O	-2.815101883888461	2.3953884995038464	2.0708654004102574
O	-1.740191458888461	1.5242227325038464	1.5003591404102572
O	-1.470004603888461	0.3217172455038465	2.355922230410257
O	-0.27676874388846096	-0.4357507204961536	1.842338640410257
O	-0.35994155388846094	-0.7599094004961536	0.37907079841025715
O	-0.595860155888461	0.5181395595038465	-0.41363876698974283
O	-1.8723564398884611	1.2169430295038466	0.03837737841025718
O	-0.628737512888461	0.15360580250384648	-1.8698981095897427
O	0.588690296111539	-0.5696179804961535	-2.3630286195897425
O	0.8698242361115389	-1.8036604104961538	-1.5521023295897427
O	0.9258631461115392	-1.3493132204961538	-0.09726164258974285
O	1.396424166111539	-2.5942221404961536	0.5793957614102572
O	2.428966676111539	-3.1398634604961537	-0.40828357738974286
O	2.2500249161115393	-2.376802880496154	-1.7018650495897427
O	2.411222756111539	-3.1584833704961537	-2.831304539589743
O	-0.18097580388846102	-2.8471258804961534	-1.8046614995897428
O	-3.080127933888461	0.30027798050384646	-0.12012498558974283
O	0.9396167361115391	9.760616859503846	-4.714001619589743
O	3.2950283861115395	11.740980309503847	-6.947249049589742
O	6.387300076111539	10.823992189503846	-4.913366769589743
O	12.878782676111538	0.4401369805038465	-1.0974289245897428
O	12.284643276111538	0.6529991115038465	-4.846951919589743
O	11.199196876111538	4.304783779503847	-4.849867159589743
O	8.961770976111538	4.026105309503847	-1.7839773295897428
O	7.135426336111538	0.8877448401038465	-2.8931752395897425
O	6.787071236111539	2.1189087195038465	-6.470034529589743
O	5.144459056111539	5.269595539503847	-5.079311399589742
O	2.8502523661115395	3.290446179503846	-2.777794609589743
O	1.839692866111539	1.0997510855038464	-5.732155499589743
O	1.0352155761115391	4.192192419503846	-7.805037069589742
O	-0.972901565888461	5.6175886895038465	-4.904968659589743
O	-2.831870253888461	2.3131064895038462	-4.798357499589743
O	-3.7219425638884607	2.5888723795038464	-8.484961489589743
O	-4.939458083888461	6.164504969503846	-7.985283619589743
O	-6.898282213888461	5.420656819503846	-4.812074179589743
O	-8.59032027388846	2.4528872995038467	-6.487604789589743
O	-10.150566393888461	4.772908969503846	-9.060353339589742
O	-12.747854123888462	3.7456964195038465	-4.251995679589743
O	-9.871561343888462	-2.523398320496154	-1.2639797175897427
O	-6.879926503888461	-3.2431837604961533	0.9959572404102571
O	-8.93889048388846	-3.110742380496154	4.189597070410257
O	-10.793367983888462	-0.016089911496153575	2.999073250410257
O	-7.617470633888461	1.8655771695038466	2.1093192704102575
O	-5.794491053888461	0.9064243836038465	5.307445920410257
O	-8.770700803888461	1.9750019295038466	7.436006360410257
O	-8.96003994388846	5.356675289503847	5.684950680410258
O	-5.189925203888461	5.830361839503846	5.868959990410257
O	-5.342084343888461	5.121618399503847	9.585761600410258
O	-5.983685093888461	10.318439789503847	7.956095560410258
O	-2.962938333888461	9.612525759503846	10.142779150410258
O	3.3746150761115397	8.822923279503847	11.321221950410257
O	1.5257929961115388	6.998953289503846	8.539175610410258
O	-0.17008123388846097	9.604672239503847	6.335972230410257
O	-0.501871551888461	7.642928639503847	3.0851967604102573
O	-0.855521411888461	10.902451809503846	1.1673089004102573
O	3.2514669061115393	13.817560609503847	-0.45702359858974284
O	3.9470227161115394	10.417262599503847	1.0666410104102573
O	4.098976476111539	10.544102459503847	4.851444310410257
O	5.993012136111539	7.682597849503846	6.480072310410257
O	8.837912676111538	2.3982802195038464	7.7464917404102565
O	10.097293176111538	0.07673508050384648	2.991669490410257
O	10.93266057611154	-3.3419908304961536	4.474799400410257
O	7.356763356111538	-3.1177465204961536	5.788810850410258
O	8.122636016111539	-2.1268281304961536	9.379108660410257
O	6.091916766111539	-4.8722212104961535	11.074747150410257
O	3.0720144061115393	-4.146169000496154	8.882824600410258
O	3.468429036111539	-0.40007651049615356	9.466362760410258
O	-1.290270083588461	0.045507834503846434	10.720302550410258
O	-15.631420123888462	2.2924041495038465	6.376172740410257
O	-8.822666413888461	-7.962217770496153	8.654474280410257
O	-5.574793263888461	-9.400541190496154	10.110473050410258
O	-3.7380666738884614	-6.227497290496154	9.082681900410257
O	-5.135452533888461	-6.437156040496154	5.559287330410258
O	-4.105228153888461	-10.107260290496153	5.3272123604102575
O	-0.509387338888461	-9.274337390496154	6.267139560410257
O	-0.459518469888461	-6.599191070496154	3.5844682104102574
O	-1.966733344888461	-8.995760640496155	1.0467080704102574
O	0.8309122861115388	-11.471566590496154	1.7292830704102573
O	3.462218456111539	-8.750088920496154	1.4756113904102572
O	2.271472556111539	-7.224637290496153	-1.7877524895897428
O	1.6988158061115388	-10.664698490496153	-3.3322617595897426
O	6.563921386111539	-8.332447810496154	-3.7858184495897427
O	4.6999685061115395	-8.695710320496154	-7.1073101395897424
O	9.002736276111538	-7.294703830496154	-8.476608119589743
O	13.898339176111538	-5.694848980496154	-6.768658489589742
O	9.533645076111538	-2.3303860804961536	-7.966047499589743
O	3.317046516111539	-2.278526690496154	-10.293869849589743
O	-4.833822183888461	-2.572136790496154	-12.178727249589743
O	-2.7029193438884613	-3.3769501404961533	-9.136162449589742
O	-0.861191850888461	-6.200992380496154	-10.920551749589743
O	-4.192275963888461	-7.624573420496153	-12.107296449589743
O	-5.945386033888461	-7.530733550496153	-8.748358589589742
O	-2.916860263888461	-8.798093150496154	-6.830386619589743
O	-2.373003633888461	-11.740670390496154	-9.215160709589743
O	-5.643297723888461	-11.433306890496153	-3.789684039589743
