99

O	2.7677856137448726	-0.5858184160128206	1.7335080820038473
O	3.340550483744873	-0.9008042260128206	3.0839734020038474
O	2.468239393744873	-0.43594050601282053	4.212086242003847
O	2.9415612337448724	-0.0032413420128206694	5.262394002003847
O	1.0192372937448728	-0.6841651960128206	4.063505272003847
O	0.5206636537448728	-0.3548339460128207	2.6884529620038475
O	-0.9589995522551272	-0.5754506460128206	2.5718987320038473
O	-1.4702261342551273	-0.0713117830128206	1.2432922720038475
O	-0.6715676752551272	-0.5966135260128207	0.08578875400384733
O	0.8210794437448727	-0.3362071860128206	0.27178131500384733
O	1.3198115537448727	-0.9486375260128206	1.5657200720038473
O	1.5753778237448728	-0.8209174060128206	-0.9331115299961525
O	1.0519060837448726	-0.3000475560128206	-2.2394365679961528
O	-0.4303641042551273	-0.5379877660128207	-2.4171345579961527
O	-1.0847050998551273	0.07264755898717934	-1.1807802239961527
O	-2.530971336255127	-0.006380951012820657	-1.5494715779961525
O	-2.526834436255127	0.36112493098717935	-3.0345639779961524
O	-1.0728594524551271	0.29527145598717935	-3.4876011279961525
O	-0.9327587252551273	-0.21364682901282062	-4.7647461979961525
O	-0.7650895822551272	-1.9890984960128206	-2.6134493379961525
O	1.1013903037448727	-2.456970846012821	1.5264046720038473
O	9.765683833744873	4.670958033987179	1.0741173520038474
O	12.057143633744872	7.152430873987179	-0.6744818009961526
O	9.285004333744872	9.71952779398718	-1.1904246189961527
O	-2.1830443262551276	10.757444713987178	-6.843132107996152
O	0.6105260037448728	9.552649163987178	-9.124816397996153
O	3.453011993744873	10.480129963987178	-6.763717547996152
O	1.7765372637448729	9.13402040398718	-3.6233801379961528
O	0.7630805937448728	5.785787743987179	-5.100165807996152
O	4.095282723744873	5.33636057398718	-6.866962877996152
O	5.798406603744873	5.8499949639871796	-3.4913421779961524
O	3.4493603037448723	3.435917613987179	-1.7227544379961526
O	4.128842393744873	0.8463746319871794	-4.440551287996152
O	7.882490223744873	1.2781823039871794	-3.9756430579961526
O	7.455477323744872	0.9456240249871793	-0.20934111899615265
O	5.528113523744873	-2.2486182360128204	-0.8864543129961526
O	8.397652733744874	-3.6558345160128205	-2.9470406079961524
O	10.883486833744872	-2.7661540260128206	-0.20085434429615265
O	8.739329793744872	-4.089333536012821	2.6469026720038475
O	8.191743953744872	-7.362561416012821	0.7851325220038474
O	11.925633933744873	-8.058913056012821	0.8734124920038473
O	8.654577383744872	-9.70398428601282	5.0585598920038475
O	1.536086723744873	-9.801624686012822	2.6436130420038473
O	-1.2225577366551272	-7.171153016012821	2.4385006820038475
O	-2.7385885262551275	-8.131946736012821	5.790425722003848
O	0.6946294137448727	-8.385068076012821	7.3973578420038475
O	1.8157685937448726	-4.97594608601282	6.158556922003847
O	-1.4422789172551274	-3.23760348601282	7.0714599120038475
O	-1.3624217372551273	-4.726822016012821	10.580710762003847
O	2.228931613744873	-3.56456651601282	11.120307062003848
O	1.4963844737448726	-0.13262186901282058	9.649827182003847
O	-1.4366821462551274	0.19201309798717936	12.024007162003848
O	3.4637185037448726	1.9156886139871794	13.780721462003848
O	0.7571083037448727	4.56261452398718	13.515240162003847
O	-2.168121476255127	9.722203143987178	10.870588262003848
O	-1.1380791039551272	6.65337034398718	8.869057792003847
O	2.584628573744873	6.0662019339871796	9.429388632003848
O	3.4497899137448726	4.09492439398718	6.283984312003847
O	7.108109913744873	5.02385925398718	6.724789182003847
O	9.211241933744873	9.57196382398718	5.024312592003848
O	5.631596673744872	8.774507693987179	4.066911312003848
O	3.1651058537448726	9.787776203987178	6.760206782003848
O	-0.4052106632551272	10.286778953987179	5.563466942003847
O	-5.676230636255127	10.281953793987178	2.4279206220038474
O	-4.462299616255127	9.13407648398718	-2.7477597779961527
O	-8.064064136255126	8.43797954398718	-3.8118188779961524
O	-7.886867476255127	5.84472165398718	-1.0179251319961526
O	-9.766891556255128	7.7630961439871795	1.6719756120038474
O	-12.318157966255129	5.05187390398718	2.4941783420038472
O	-9.594258176255128	2.4149801539871794	2.7654281220038475
O	-7.445637866255127	4.75746729398718	4.869548352003847
O	-6.775504736255127	1.2740719509871794	8.309208112003848
O	1.2828154937448728	-10.53631758601282	13.328075962003847
O	-9.150328096255127	-9.503577186012821	6.486808772003847
O	-11.943403366255126	-7.193935366012821	5.221409122003847
O	-9.486680306255128	-4.28484220601282	5.184313742003847
O	-6.940696466255127	-6.324658596012821	3.2432671020038475
O	-9.626567136255126	-7.360336836012821	0.7334183190038472
O	-10.564560866255128	-3.7289779260128206	0.06948501400384732
O	-6.910969986255127	-2.924633666012821	-0.5284030229961527
O	-6.532337806255128	-5.942932666012821	-2.8091003279961524
O	-9.428876036255126	-4.701042866012821	-4.928431037996153
O	-8.007755496255127	-1.1859654160128206	-5.0277121279961525
O	-4.4630813562551275	-2.1230580660128204	-6.011371717996153
O	-5.711349536255128	-4.66838660601282	-8.562226087996153
O	-4.985502076255127	0.47581857598717936	-10.086268877996153
O	-2.566108866255127	-1.9882360360128206	-11.734053537996152
O	-1.7462352412551272	2.018088293987179	-14.105320437996152
O	-2.9821416262551272	7.288680203987179	-14.469594037996153
O	1.2739625537448727	5.07103921398718	-11.508616737996153
O	4.415355033744873	-0.6089479660128205	-10.116639037996153
O	7.500973253744873	-7.98507356601282	-7.634170107996153
O	4.377793233744873	-5.94557138601282	-6.903710977996153
O	3.1170044637448724	-6.21380748601282	-10.493955137996153
O	3.737704573744873	-9.974345586012822	-10.431568237996153
O	2.008555063744873	-10.66249118601282	-7.129933857996153
O	-0.9165600232551272	-8.350552866012821	-7.872789647996153
O	-1.5364528092551273	-9.89329058601282	-11.318231637996153
O	-4.112145646255128	-11.297418786012821	-5.695932817996153
