103

O	1.009311472467532	-0.5587754554415582	3.2939762751818185
O	2.279516342467532	-0.4938714954415583	3.609657265181818
O	2.532100482467532	0.6482767505584418	3.025813925181818
O	2.271021152467532	1.1843599735584418	1.7693345651818184
O	1.5169928324675324	0.20677260455844182	1.1089181451818182
O	0.7836343524675322	0.4157106175584418	-0.0891101588181818
O	-0.33965555553246785	-0.3403716754415581	-0.4568930483181818
O	-0.6285414785324679	-1.4241829554415584	0.3729760081818182
O	-0.4517719725324678	-0.7609462654415583	1.5534846651818182
O	0.824986902467532	-0.7033475754415582	1.9314832051818183
O	2.607925532467532	2.1360545345584416	0.7136782051818181
O	-1.1483251769324678	-1.0880746354415582	-2.2402630548181817
O	-1.259809418032468	-0.04539329744155818	-1.3916152238181818
O	-2.5675184475324677	0.03074948355844176	-1.035965074818182
O	-2.3013656075324675	-2.0079548154415585	-2.275622564818182
O	-3.1004676475324677	0.07542640355844177	-2.419631404818182
O	2.445840932467532	-0.7765535454415583	4.794384405181819
O	2.9902088324675318	1.6814565025584418	-0.4945178576181818
O	3.1324174724675324	3.3183795545584416	0.5694676651818181
O	1.5056311124675323	2.634574344558442	-0.037959104818181766
O	-1.349578869532468	-2.7858616254415582	-1.8289441448181818
O	-3.205060817532468	-1.9974364554415582	-1.3313122228181817
O	-2.884640547532468	-2.4073456754415585	-3.3229124748181817
O	-3.020819827532468	1.4164423765584417	-2.269980214818182
O	-4.175795187532468	-0.11629998744155823	-3.0117482448181816
O	-2.207237177532468	0.29344662755844175	-3.4358391448181815
O	-3.5932902775324678	-3.1187225054415584	9.802806035181819
O	-6.781081297532468	-4.115223165441558	11.625429935181819
O	-8.752658417532468	-1.1113061954415584	10.350039035181819
O	-13.445110797532468	0.4514187045584418	-0.3439070548181818
O	-12.677116697532467	0.3035920815584418	3.3790629251818185
O	-9.459364187532467	2.272253614558442	3.281563905181818
O	-8.037517767532467	0.28460230255844177	0.38102320418181823
O	-9.116140807532467	-3.0626145654415584	1.6932717851818184
O	-7.328171617532467	-2.1889215754415585	4.956055955181818
O	-4.213980757532468	-1.1100071054415581	3.2205653951818185
O	-4.252614057532468	-4.361352675441558	1.130329245181818
O	-4.527412787532468	-6.352993075441558	4.375432985181818
O	-1.5956733535324679	-4.318641485441558	5.889476815181818
O	0.37455524246753225	-5.302292125441558	2.853749375181818
O	-0.34143161753246787	-8.986194865441558	3.2976691751818183
O	0.7195469624675321	-8.669506025441558	6.918736355181818
O	3.8305946824675323	-6.574715135441558	6.249375285181818
O	4.870278372467531	-8.973803745441558	3.4845810951818184
O	5.1242391124675315	-11.805777125441558	6.052594415181819
O	9.459170202467533	-8.500930135441559	5.0943974151818185
O	8.516097672467533	-5.170163135441558	-1.5183555098181818
O	6.911984192467532	-2.001774715441558	-2.6719149248181817
O	9.997562302467532	0.1649054525584418	-2.427019874818182
O	10.870039502467533	-1.4305768854415581	0.9020488151818181
O	7.511282022467533	-0.8708013654415582	2.5222299251818185
O	7.2358771024675335	2.742419964558442	1.2218794951818182
O	10.695918702467532	3.5955218645584415	2.515546515181818
O	9.907076402467533	2.1797293645584417	5.966936355181819
O	6.513570742467532	3.8701970945584416	6.100454635181818
O	8.171785032467533	7.169489404558442	5.2430154051818185
O	7.719368912467532	5.797842544558442	10.534594135181818
O	5.874184312467532	8.936803494558442	9.468680735181819
O	0.5937123424675321	12.477824274558442	8.056073185181818
O	1.3002669324675322	9.072309744558442	6.550114495181818
O	1.7901490124675323	6.540584834558442	9.374585755181819
O	0.9429682324675319	3.2773461745584416	7.589006545181819
O	0.2792209724675321	1.6285406985584419	10.914229135181818
O	-4.335665967532468	1.973452824558442	13.512897835181818
O	-4.130657497532468	3.3909390845584415	9.998487635181819
O	-2.783977277532468	6.934078174558442	9.931003235181818
O	-3.6516104475324678	8.958442964558442	6.822616905181818
O	-5.375714157532467	10.860253174558443	1.216950985181818
O	-8.267683997532467	6.808839974558442	-1.0265902458181817
O	-8.188033657532468	8.284694014558442	-4.580866384818182
O	-4.3797072075324675	8.049291434558441	-4.068910434818182
O	-3.7011258975324677	11.702782174558441	-3.2911878948181816
O	-0.9741795255324679	12.230369974558442	-5.9070340548181814
O	0.8714659124675324	9.103840564558443	-4.8011211648181815
O	0.44948410246753223	10.110760234558443	-1.1325208878181818
O	5.293939812467531	9.446744494558443	-0.2798631038181818
O	16.47332760246753	-0.08620578644155819	3.5478421451818187
O	11.978361002467533	3.9345660445584416	-7.473299294818181
O	9.677179302467533	6.426299104558442	-9.294039134818181
O	7.377212552467533	6.492009144558442	-6.2951420348181815
O	7.284666692467532	2.6709140345584417	-6.186324464818182
O	6.478216232467533	2.5593708445584418	-9.909608384818181
O	3.5145904524675324	4.9154498445584425	-9.489786404818181
O	2.252116442467532	2.681499414558442	-6.7452787048181815
O	2.7758671324675324	-0.4600285154415581	-8.837758844818183
O	0.6188768424675322	1.0714934675584418	-11.567704464818181
O	-2.074296709532468	2.0654441245584416	-9.089251834818182
O	-2.383023077532468	-1.3167727254415582	-7.503603034818181
O	-2.202834177532468	-3.2262958554415584	-10.760542964818182
O	-7.032399407532468	-1.5478153754415582	-8.760614134818182
O	-6.642918687532468	-5.366064775441558	-8.871473694818182
O	-11.244296697532468	-4.808811815441558	-7.801542534818181
O	-15.231494897532468	-1.223419375441558	-6.762071604818182
O	-11.929175097532468	-3.749441845441558	-2.917124264818182
O	-7.099678157532468	-8.301132275441558	-2.1660930348181817
O	-0.38477572553246786	-13.185923225441558	-1.5789776248181817
O	-1.040341978532468	-9.726720825441557	-2.756153854818182
O	-3.221764927532468	-10.895245425441558	-5.6854154048181815
O	-0.5160061355324679	-13.382270125441558	-6.692277744818182
O	2.4369405224675322	-11.001696525441558	-6.599169034818182
O	0.5362588624675322	-8.197492745441558	-8.333620244818182
O	-0.7250648545324678	-10.376199425441557	-11.161977764818182
O	4.410038172467532	-6.559062475441558	-10.737212164818182
