99

O	3.0515528321410272	-0.10159668337179495	1.1643630950615382
O	3.867695802141027	-0.19084484437179494	2.448884845061538
O	3.0182965721410273	-0.05114121737179489	3.6451569650615383
O	3.516785502141027	0.14391802662820508	4.777912905061538
O	1.681379582141027	-0.509471262371795	3.425785305061538
O	0.9980882321410272	-0.525883052371795	2.2430492050615385
O	-0.44918011385897305	-1.187095992371795	2.4145300250615382
O	-1.226907529258973	-0.6990489923717949	1.2423530850615383
O	-0.4328749158589731	-0.7671672923717949	-0.02384749993846169
O	0.8947419921410271	-0.059312317371794876	0.025803598061538313
O	1.7389950821410267	-0.817373752371795	1.0669951450615383
O	1.5434503521410268	-0.11110307537179487	-1.3263789549384617
O	0.6684671121410268	0.3575329146282051	-2.4512513049384617
O	-0.6670403088589731	-0.3308426123717949	-2.489430114938462
O	-1.2611426508589731	-0.14307294137179494	-1.0961512969384617
O	-2.643735387858973	-0.6768583023717949	-1.2888773149384618
O	-3.005737287858973	-0.12012622837179487	-2.6657868349384617
O	-1.718496859858973	0.3761483996282051	-3.297164194938462
O	-1.6381203768589732	0.13902120662820505	-4.654672064938461
O	-0.539449205858973	-1.7778186623717949	-2.875738584938462
O	1.720916072141027	-2.236713322371795	0.5342652610615383
O	7.820153262141027	7.515135987628205	0.7140532850615383
O	8.876701452141027	10.832643077628205	-0.8191838299384617
O	5.394662642141027	12.360096277628205	-0.5287652469384617
O	-6.619631927858973	10.179468207628206	-4.4748056649384615
O	-4.027661647858973	10.300787767628206	-7.254844044938462
O	-1.258155821858973	11.821044077628207	-5.125321364938462
O	-1.8539315708589732	9.586119457628206	-2.1012475449384618
O	-2.000657648858973	6.320461447628205	-4.028171924938462
O	0.9462437021410268	7.2604704476282045	-6.233903484938462
O	2.9556305121410276	7.8677010876282045	-3.0457277249384616
O	1.830774652141027	4.599187957628205	-1.4767534949384618
O	2.8083389521410274	2.767261887628205	-4.676204934938462
O	6.255726822141027	4.378843857628205	-4.591650274938462
O	6.600152732141027	3.4229559176282054	-0.9172951629384617
O	5.694281542141027	-0.11013717737179485	-1.9219410849384617
O	8.482832622141027	-0.1682090933717949	-4.554597464938461
O	10.985906352141027	1.139209659628205	-2.0041379549384617
O	9.885844452141027	-1.195677872371795	0.7932451850615383
O	10.103516652141026	-4.185034632371795	-1.5552806949384617
O	13.817755852141028	-3.572902302371795	-2.0420845249384616
O	12.015109052141026	-6.768109462371795	2.1358102250615385
O	4.988180702141027	-8.974624872371795	0.6208345770615383
O	1.548951432141027	-7.441510732371795	1.2295800550615383
O	1.0158826321410268	-9.272188022371795	4.514652435061539
O	4.580816252141027	-8.553486712371795	5.620614905061538
O	4.344603932141027	-4.836235912371795	4.892690075061538
O	0.9105431321410269	-4.448131902371795	6.5001800850615385
O	2.065592812141027	-6.243764072371795	9.633530995061538
O	5.139605182141027	-4.008564912371795	9.922567825061538
O	3.1131331221410274	-0.8750848923717949	9.19428069506154
O	0.697675582141027	-1.875248092371795	11.935938825061537
O	5.036353082141027	1.160273538628205	13.346340425061538
O	1.6309807521410271	2.7409707176282048	13.915490625061537
O	-3.1954204578589733	6.904459227628205	12.630499625061539
O	-1.617984040858973	4.662036787628205	10.00548232506154
O	2.1415212321410273	5.2935168276282045	9.979806625061538
O	3.011796632141027	4.156265677628205	6.442074975061538
O	6.211781132141027	6.201344327628205	6.603878375061538
O	6.450237472141027	11.384084777628205	5.521428935061539
O	3.196000812141027	9.552801367628206	4.872988445061538
O	1.0431159021410268	9.306337997628205	7.981361425061539
O	-2.655681627858973	8.723775207628206	7.338605655061539
O	-8.120063137858974	7.341750207628205	4.911924695061538
O	-7.529230137858973	7.362650917628205	-0.4964695949384617
O	-10.850264137858973	5.625694097628205	-1.2259358929384616
O	-9.383978987858972	2.9078922776282052	1.0136412050615382
O	-11.278888547858973	3.706253117628205	4.213230395061538
O	-12.655373947858973	0.2046289966282051	4.834404615061539
O	-9.231308727858973	-1.3605772823717948	4.291722595061538
O	-7.6030896378589725	1.275654973628205	6.510996285061538
O	-5.273800457858973	-2.191895832371795	9.153905045061538
O	6.838200042141027	-11.118103122371794	10.95277822506154
O	-4.422276747858973	-12.806565822371795	5.720529745061539
O	-7.974321067858972	-11.430709622371793	5.236975095061538
O	-6.603160347858973	-7.886503772371795	5.434469945061538
O	-3.9219684378589728	-8.675642312371794	2.8631340650615384
O	-6.5378567678589725	-10.211544822371794	0.5478897300615383
O	-8.653071087858974	-7.049953722371795	0.6727610720615383
O	-5.5850180678589725	-4.977265042371795	-0.1953005607384617
O	-4.698464967858973	-7.369321402371795	-3.0162407649384617
O	-8.164975127858973	-6.931653332371795	-4.514575594938462
O	-7.972460397858973	-3.163954132371795	-4.152325254938462
O	-4.547260467858973	-2.7049292223717947	-5.717270054938462
O	-5.341425177858973	-5.167140622371795	-8.505700874938462
O	-6.556867667858973	0.0703967606282051	-9.158267034938461
O	-3.807205977858973	-1.190255202371795	-11.501617774938463
O	-4.715816947858973	3.129842977628205	-13.19154657493846
O	-7.593915647858973	7.671044637628205	-12.450217274938463
O	-2.409349767858973	6.6614601876282045	-10.47208367493846
O	2.554133292141027	2.2534083976282053	-10.517821774938461
O	8.188043702141027	-3.8961617523717953	-9.796143544938463
O	4.757813052141027	-3.1506306523717953	-8.33746163493846
O	3.042357422141027	-3.3610509623717952	-11.737380774938462
O	4.819980012141027	-6.662249652371795	-12.427303374938461
O	3.995760662141027	-8.320708972371794	-9.12294494493846
O	0.410666602141027	-7.059340572371795	-9.073813264938462
O	-0.2801048178589731	-8.260880102371795	-12.64332967493846
O	-1.2667158838589732	-11.171982522371794	-7.098632974938462
