103

O	0.581031295653333	0.04910465698666633	1.0574487715200005
O	-0.734066005346667	1.4438128179866663	-0.5137154326799996
O	-0.03126841834666705	-0.2694559050133336	-0.12257984047999965
O	-1.357881591346667	-0.6961779250133338	-0.5300504266799997
O	0.24455778065333295	0.13270151498666627	2.3342800615200003
O	-0.887978705346667	1.9368128849866664	0.6683234415200003
O	-2.049584804346667	-0.49766531501333366	0.42871068752000036
O	-1.599362224346667	0.6395723379866662	-1.2832484624799996
O	1.201184495653333	0.9363452034866663	3.1099789915200002
O	0.17980809465333297	2.720242424986666	1.4501023015200003
O	-1.309299544346667	-0.6470430250133337	-3.1611289384799997
O	2.480785285653333	0.9806672039866663	2.6317989815200002
O	1.5971128656533329	2.872625624986666	1.3107741415200005
O	-0.6812343913466671	0.03721753198666633	-2.2051430284799998
O	2.5473221856533326	3.572691604986666	2.0875580515200003
O	0.46353313065333296	-0.14663663501333368	-1.4634851084799996
O	2.885486685653333	0.28093127098666626	1.5379526715200005
O	1.449402575653333	2.6352232649866663	-0.03185848647999967
O	1.5583054156533331	0.10173500298666627	-1.8998871284799996
O	1.8177416256533332	-0.17770023501333365	0.7695368815200003
O	0.3327971846533329	2.041826534986666	-0.8897897184799997
O	-2.910903164346667	0.9907109489866663	-1.6473797384799995
O	3.5288273056533326	1.6536575129866664	3.29962718152
O	3.9013365556533324	2.3279631349866663	4.11939758152
O	3.9177651456533327	-0.7004335550133338	1.3706667715200005
O	3.321284645653333	-2.024475495013334	1.6223957415200003
O	5.055167575653333	-1.2431876850133337	1.3730587015200004
O	3.953454035653333	-0.9671986250133338	-0.07787854347999967
O	-0.16234313134666706	10.780557874986666	2.2571038915200003
O	-1.671616764346667	14.101888044986667	1.1045050615200005
O	-0.5132450713466671	13.679394044986667	-2.50822842848
O	-5.170189444346667	6.739461964986666	-10.91452597848
O	-0.6698517623466671	7.515707594986666	-7.55278762848
O	-2.7866448043466674	4.583150914986667	-6.52269139848
O	-5.508211154346667	6.737958254986666	-4.98874787848
O	-2.8084881243466673	8.483754234986666	-2.88377162848
O	-1.316737833346667	5.244653954986666	-1.8260485884799995
O	-4.826073424346667	4.0481398249866665	-0.7345799194799997
O	-5.2940336443466665	7.070343684986666	1.3402713515200004
O	-1.8387729543466669	6.639127324986666	2.98490069152
O	-2.944461214346667	3.059211504986666	3.84620919152
O	-6.026495154346667	4.230319164986667	5.5263809015200005
O	-3.939457044346667	6.725571804986666	7.5185646015200005
O	-1.091648303346667	4.279853144986666	8.304480421520001
O	-3.657297484346667	1.6969430419866662	9.49916965152
O	-4.926770234346667	4.059806444986666	12.20470912152
O	-0.666213591346667	0.6573307589866663	13.21222562152
O	-3.7292721043466672	-0.15996509501333378	15.33901252152
O	-0.7160014113466671	-4.911046625013334	8.168385261520001
O	0.833801435653333	-5.271286085013334	4.67390990152
O	3.9760820856533328	-6.942347515013334	5.90819907152
O	4.284869195653333	-4.409566915013334	8.72540474152
O	3.8757692756533326	-1.3238022150133337	6.486139311520001
O	6.293825745653333	-2.7640237350133336	3.8666463015200003
O	8.956214755653333	-3.4801445250133343	6.41962486152
O	8.615592125653333	0.07543116198666633	7.84256997152
O	8.645851355653333	1.6459437189866661	4.41150033152
O	11.750095455653334	-0.24428935501333382	3.53609933152
O	12.283317955653333	4.661662104986666	5.92179099152
O	13.683106255653334	4.319932984986666	2.41669068152
O	13.837319455653333	5.4155373349866665	-3.98811158848
O	10.762990455653334	4.068487164986666	-2.12853811848
O	9.899852855653334	6.4863046249866665	0.6875273415200003
O	6.193614195653333	5.697974084986666	1.2156749615200004
O	5.7786181756533335	9.064821254986667	2.9034356315200003
O	5.073604685653334	13.649025744986666	0.2922236345200004
O	5.022880365653333	10.409555024986666	-1.6609313284799996
O	8.465969265653333	9.254714834986666	-2.66172922848
O	2.026631545653333	2.8189358049866664	-10.86628107848
O	1.9853108856533328	-0.40334355501333374	-12.941560278479999
O	3.6746126756533326	-1.9056069650133336	-9.859246968479999
O	7.255781505653333	-1.9733019150133335	-11.05308307848
O	7.9519119456533325	-5.647592465013334	-10.31186304848
O	6.610046425653334	-5.361928255013334	-6.81601060848
O	8.559542935653333	-2.103234795013334	-6.25217002848
O	10.408125855653333	-3.7449534350133336	-1.9313714984799997
O	8.791220335653334	-5.106119235013334	13.10364152152
O	6.111444185653333	-12.646462055013332	3.38281136152
O	6.679401805653333	-9.540873155013333	-0.9941628984799997
O	3.5329597556533328	-8.992811855013333	1.0744517315200004
O	1.744266785653333	-11.734220155013332	-0.8574794944799997
O	2.559585925653333	-10.118446855013334	-4.20205100848
O	1.209373975653333	-6.846624785013334	-2.8736818984799997
O	-1.870625564346667	-8.530195155013333	-1.5285211684799995
O	-2.582489244346667	-9.930334755013334	-4.98343879848
O	-2.0184141743466673	-6.570700945013334	-6.61043628848
O	-4.265890004346667	-4.556040465013334	-4.325797638479999
O	-6.909490044346667	-7.1894332150133335	-4.38464291848
O	-6.996127344346667	-3.434596825013334	-8.229901698479999
O	-9.957391884346666	-3.2793110450133343	-5.842403518479999
O	-11.189912044346666	-0.19057620501333372	-9.194310378479999
O	-9.608242964346667	2.323273684986666	-13.74171057848
O	-8.908474644346667	4.221882854986666	-8.45645366848
O	-10.317719024346667	2.919865254986666	-2.0732576684799997
O	-11.263885944346667	0.48654327898666627	5.90804444152
O	-9.025691394346667	-0.4887028250133336	2.9947846615200002
O	-11.939601544346667	-1.7451380850133338	0.8831006715200005
O	-13.242763744346666	-3.748885515013334	3.85474448152
O	-9.968750174346667	-5.400803745013334	4.7731093515200005
O	-8.978229764346667	-6.087013185013334	1.1583764715200005
O	-12.334060244346666	-7.683628985013335	0.3369623695200003
O	-6.904962604346667	-10.337855255013332	2.27487335152
O	-8.787044634346667	-13.047856755013333	0.34227215352000034
