99

O	-2.810134042074359	-0.9665204073846153	1.483730186937179
O	-4.1382856620743595	-0.5272091873846153	2.0243355269371794
O	-4.150767842074359	0.9127363656153846	2.4430468469371793
O	-4.743913642074359	1.2950513676153848	3.4501573669371792
O	-3.4934308420743587	1.8605225126153848	1.520530766937179
O	-2.182754486074359	1.3548007236153845	1.007650536937179
O	-1.511735891074359	2.3486194626153845	0.10770756793717906
O	-0.10954474207435894	1.8871173226153846	-0.24002421946282093
O	-0.07686027207435897	0.47434593061538466	-0.7499866920628209
O	-0.7761139110743589	-0.4718109273846153	0.22248977193717906
O	-2.200722774074359	-0.04523916838461539	0.4673788069371791
O	-0.6527847680743589	-1.8765491073846157	-0.2964304070628209
O	0.7530392079256409	-2.2916416473846155	-0.6191826270628209
O	1.4462119279256411	-1.3475089773846154	-1.573184733062821
O	1.3351152879256412	0.03026919561538466	-0.924600137062821
O	2.216914917925641	0.8427681256153846	-1.815706733062821
O	3.3851620879256408	-0.11015359438461536	-2.0791516530628207
O	2.940492557925641	-1.4862687873846157	-1.624036623062821
O	3.382914347925641	-2.5051245873846155	-2.447139113062821
O	0.8790434279256409	-1.3949810173846156	-2.963203273062821
O	-2.977700712074359	-0.026387872384615374	-0.8439106910628209
O	-2.6484568920743587	-6.001702777384615	8.67903897693718
O	-1.1658722000743589	-8.590228407384615	11.03780143693718
O	2.044557477925641	-6.607401427384615	11.58677423693718
O	11.850899367925642	-1.7774997573846156	4.874122556937179
O	11.225210567925641	-5.488484217384616	4.3278764669371785
O	8.890101667925641	-5.919829487384615	7.307105366937178
O	6.899555837925641	-2.7377116073846155	6.6784387769371785
O	6.33565696792564	-3.331484747384615	2.971243966937179
O	5.5723680179256405	-7.017842027384615	3.4782857569371792
O	2.897384147925641	-5.976520017384615	5.992404836937179
O	1.471633337925641	-3.3255456073846155	3.667481756937179
O	1.3267266679256409	-5.915027857384615	0.869325556937179
O	-0.5383027110743589	-8.331048457384615	3.140854106937179
O	-2.930170062074359	-5.547191167384615	4.141805676937179
O	-3.470627532074359	-4.922018917384616	0.4429301309371791
O	-4.39146821207436	-8.564188757384615	-0.14089186806282092
O	-6.820977142074359	-8.477427257384615	2.7922141469371793
O	-8.384250762074359	-5.1417120273846155	1.8497402869371788
O	-8.882698692074358	-6.324989997384615	-1.732314293062821
O	-11.172304292074358	-9.102132877384614	-0.5140896540628209
O	-13.231307532074359	-4.078667567384615	-1.716669393062821
O	-8.285389832074358	-0.43354286738461545	-6.048375553062821
O	-5.240401712074359	1.7518597786153847	-5.319745493062821
O	-7.214864472074359	4.997709422615385	-5.487322973062821
O	-10.061254652074359	3.5011184026153845	-3.464558293062821
O	-7.78056803207436	2.2154782126153845	-0.714523860062821
O	-5.738365042074358	5.416396032615385	-0.4943541830628209
O	-8.905356552074359	7.531424562615385	-0.2767700331628209
O	-10.303476482074359	5.3608976326153845	2.5290268869371793
O	-6.960811182074359	5.295118682615384	4.344433376937179
O	-6.853740162074359	9.076157172615385	4.159465156937179
O	-9.32983964207436	6.808088882615385	8.49501936693718
O	-6.262852832074358	8.917106362615385	9.234863266937179
O	-0.07282146207435902	9.876987722615386	10.94714273693718
O	-1.129443072074359	7.454699822615384	8.208548036937179
O	-3.649098252074359	5.012081492615384	9.69317083693718
O	-3.240014432074359	2.068826372615385	7.304212036937179
O	-4.747661402074359	-0.2415786673846153	9.91842803693718
O	-1.9717574490743588	-2.4371139373846153	13.85226683693718
O	-0.09541177207435902	-0.5136084673846154	11.18012343693718
O	-0.007065522074358954	3.2094264026153847	11.88391023693718
O	2.7910777179256407	5.105990242615385	10.15118363693718
O	7.353356607925642	6.917656392615385	6.474518286937179
O	9.379036567925642	2.4557279026153847	4.114476346937179
O	11.395036267925642	4.335884482615385	1.4702082069371791
O	7.979441627925642	5.783985382615384	0.5774769749371791
O	8.322019937925642	9.167743082615386	2.273422616937179
O	7.419389757925641	11.307657322615386	-0.7500409770628209
O	4.3468668179256404	9.190241732615386	-1.472387593062821
O	3.358518307925641	9.253388142615385	2.208479276937179
O	-1.2411234340743589	10.671550992615385	1.089415606937179
O	-15.413935032074358	6.778103612615385	-2.5945098030628206
O	-5.358914102074359	10.052929862615386	-9.292807283062821
O	-1.8137064000743588	11.524981422615385	-9.24965565306282
O	-1.248224524074359	9.998107922615386	-5.8078341830628215
O	-2.4679691320743586	6.606373922615385	-6.999480933062821
O	-0.17787632207435888	6.810784922615385	-10.04930311306282
O	2.870919847925641	7.454836572615385	-7.858461333062821
O	1.955481277925641	4.445674022615385	-5.752127373062821
O	1.4219423479256412	2.321034592615385	-8.85856659306282
O	4.925331917925641	3.1864862926153847	-10.04515605306282
O	6.394350617925641	2.447632292615385	-6.626009563062821
O	4.73406026792564	-0.9254940273846154	-6.098970653062821
O	5.451484977925642	-1.9735336873846157	-9.69910105306282
O	9.142628267925641	-2.9692241673846156	-5.866703593062821
O	7.5435562479256415	-6.117925037384615	-7.338470163062821
O	11.048813867925642	-7.868691537384616	-4.694700713062821
O	15.030219167925642	-6.629864477384616	-1.223173609062821
O	9.747214567925642	-8.047409027384614	0.14825788693717906
O	3.9381031879256407	-10.053465177384615	-2.362638483062821
O	-3.549556792074359	-11.480326477384615	-5.823959983062821
O	-1.278059523274359	-8.466578297384615	-5.372944673062821
O	1.465168767925641	-9.950233677384615	-7.569496353062821
O	-1.121638259074359	-10.773196777384614	-10.24566455306282
O	-2.7970940220743588	-7.3745003673846155	-10.31477790306282
O	0.480392947925641	-5.456230487384615	-10.126670723062821
O	2.058424797925641	-7.454806217384616	-12.98197526306282
O	-1.112203216074359	-1.9641697273846153	-13.11028936306282
