21

O	28.579678442578007	-1.9934383284309325	3.3137543696552143
O	28.40441267826626	-1.0417661314640867	4.374294990756493
O	28.029511136625388	0.15005276880705432	3.6232839428782753
O	29.558688629092618	-0.018043822082032257	4.086723797433161
O	29.776113804222653	-0.3147858336732434	5.460793112724569
O	29.674941763356294	1.2785638880295878	4.5983734999829995
O	28.37075477534217	1.479476092368072	5.243475523424281
O	28.187833489676965	1.0919083329636914	6.335069504978644
O	27.55248836525159	1.3654401292346583	4.112482442034516
O	26.820808144427097	2.590999111399188	3.976472813177111
O	27.357661125057277	3.872528545924773	3.910810896065545
O	26.688272085628814	4.968718271949093	4.462155722856661
O	25.32755779608964	4.831202556166216	4.439005700494439
O	24.527885782983837	5.995978029183554	4.477681216909788
O	24.171803257820052	7.044199901878904	4.746999764390994
O	24.74593654343315	3.6113874432502238	4.317780630711153
O	25.593751322067142	2.490480810232394	4.489922262170467
O	23.371301741769884	3.2222595401291394	4.465208891128087
O	23.317544258104984	2.4037755022676404	5.62812446539747
O	22.213655900712702	3.750713517717535	4.51918370819291
O	22.98988819057165	2.08552293967658	3.679846271018323
