21

O	26.907678258730847	5.1429443750864765	4.613550174789347
O	26.100841674288294	6.376317435160151	4.883882509788545
O	24.68880148054116	6.280872105911261	4.389914320855955
O	24.10542729730968	7.238014110019852	3.8844746078766352
O	24.002234010083946	4.999474320229311	4.649013599892368
O	24.863938664132753	3.819588647198323	4.346116825957566
O	24.142479314748982	2.516649979207274	4.469705931086329
O	25.0202118808912	1.3749195066147084	4.042184170494059
O	26.389504283666252	1.3748637133903792	4.6549551877201205
O	27.055597797913464	2.710828955456711	4.346599843263991
O	26.23494729721881	3.8445418115725727	4.951563570295639
O	28.46256164751418	2.6784595208523205	4.871877342873564
O	29.275266510134465	1.5052238076889441	4.40504454518983
O	28.60400228392918	0.17885651673203795	4.622197198895835
O	27.214377653588272	0.3125436401317112	4.008001583436499
O	26.72156115752555	-1.095083724453554	4.085575155371305
O	27.97416159319601	-1.9053950623464047	3.7429794387442694
O	29.146055208929404	-0.9557394617624089	3.8012827374217912
O	30.297600635327655	-1.5223052357119558	4.31666100499186
O	28.58104163619344	-0.21566598478513055	6.071173316112031
O	26.072800483171445	3.639310639425168	6.45297542824732
