96

O	0.052191577734329586	2.3066954536865674	-1.3960324064477612
O	1.1754104777343297	2.6313419936865676	-0.705249104447761
O	2.3801036977343295	2.377711023686567	-1.289300804447761
O	2.4397422577343297	2.2192250636865674	-2.641866581447761
O	1.3233343877343295	1.4601362846865673	-3.097024101447761
O	0.17720275773432959	1.2708793715865674	-2.310518681447761
O	3.55091384773433	2.248750973686567	-0.429541935447761
O	3.6679305477343296	1.8149821546865672	-3.321722821447761
O	4.212691837734329	1.5029655716865673	-4.309767161447761
O	-1.2086566147856703	2.375014153686567	-0.805031765347761
O	-1.6711096532656704	1.6855076526865673	0.32893112855223905
O	-0.7827111412656704	1.6068340776865673	1.242473628552239
O	-2.9880056722656705	2.148383322686567	0.7738724585522391
O	-3.5887510522656703	2.952869083686567	-0.20853269744776104
O	-2.80010770226567	3.130481463686567	1.887246678552239
O	-4.0428165922656705	1.2479583523865674	1.0732906885522389
O	-4.839836182265671	0.017611663686567303	-1.3724540694477612
O	-4.0746220722656705	0.10162142368656735	-0.18148514044776098
O	-3.0323098022656705	-1.2126649663134326	0.06471872355223895
O	-5.46112254226567	-0.4953531963134328	0.3143505985522389
O	-3.3893023622656706	-2.390239496313433	-0.564746162447761
O	-2.7604258322656703	-3.491822496313433	-0.09494138344776104
O	-2.2381150622656705	-3.6974966363134323	1.147938558552239
O	-2.5420125922656704	-2.6238377263134325	1.937830728552239
O	-2.6017793022656703	-1.3904356863134328	1.368604478552239
O	-1.4874983852656705	-4.7580654663134325	1.518134688552239
O	3.565370687734329	1.1241246410865673	0.3545710685522391
O	3.55610480773433	3.3154288836865673	0.42865131855223904
O	4.63374410773433	2.230343593686567	-1.172119770447761
O	0.7265598277343295	5.450385773686567	-10.979719471447762
O	-1.3045981514656704	7.200274183686568	-13.67370227144776
O	-5.85423054226567	7.209525063686567	-2.332040861447761
O	-7.415935512265671	5.917623233686568	-5.5192834714477605
O	-4.098139162265671	6.654259073686568	-7.312930411447761
O	-2.0622424782656705	4.938772363686567	-4.541053901447761
O	-4.356778802265671	1.9248529066865672	-4.820739681447761
O	-3.85557845226567	1.7453568596865674	-8.56660726144776
O	-0.11351837226567052	2.0325403246865674	-8.06145102144776
O	-0.41192568726567047	-0.9096333063134328	-5.63314758144776
O	-2.1132038682656704	-3.040501206313433	-8.160821781447762
O	0.5729260377343295	-2.177857376313433	-10.746580251447762
O	3.50264286773433	-2.6517368863134325	-8.36109722144776
O	2.1371433177343295	-6.020318406313432	-7.253853051447761
O	2.4153416777343297	-7.355489246313432	-10.793974331447762
O	6.713924647734329	-7.733996126313432	-7.288525861447761
O	5.33497351773433	-11.133730236313433	-8.28752765144776
O	5.28989989773433	-9.316073736313433	2.556513908552239
O	4.18978295773433	-6.972566036313433	-0.275337432447761
O	3.5174983977343293	-3.993120836313433	1.9824804185522389
O	6.909386747734329	-4.103069916313433	3.642677468552239
O	8.65710467773433	-4.717502396313432	0.31639485855223903
O	6.965086837734329	-1.8338412763134326	-1.395887165447761
O	7.479320827734329	0.6130483126865673	1.511826028552239
O	11.171866637734329	-0.29745760631343265	1.699659078552239
O	11.682553537734329	0.26528103268656733	-2.020540951447761
O	9.70806283773433	3.5217907636865675	-1.9586941014477608
O	13.50658663773433	5.801922173686568	-4.237015961447761
O	7.807719947734329	10.484781633686568	-0.575581413447761
O	8.57081295773433	9.367242753686567	-4.142393331447761
O	5.773071317734329	6.817557453686567	-4.663518951447761
O	6.162529017734329	7.117503003686568	-8.408735291447762
O	-5.215386902265671	11.486927463686568	5.89285354855224
O	-2.1097691752656704	9.319309443686567	6.2063909185522395
O	0.23984310773432949	11.927040263686568	7.664326318552239
O	1.3893828877343295	9.876621453686568	10.656465728552238
O	2.1098177877343294	6.874322743686568	8.462989988552238
O	3.924262537734329	9.118234773686567	5.965167118552239
O	7.876664637734329	6.153208373686567	5.940520478552239
O	14.81607293773433	-6.007728796313432	0.12305575455223905
O	12.096857437734329	-8.699723446313433	3.4800426085522385
O	7.587089667734329	-4.188351106313433	10.192409128552239
O	5.51090215773433	0.7402599686865673	9.571593828552238
O	3.9647681377343296	-1.9778867363134327	7.418780888552239
O	1.5806381277343298	-2.895359786313433	10.255615628552238
O	0.3427674177343296	0.6940058136865673	10.490659628552239
O	-0.28323334126567046	0.7138455206865673	6.771641638552239
O	-2.0666890122656705	-2.635057186313433	7.084045318552239
O	-4.43116149226567	-1.1910953763134327	9.658008128552238
O	-4.99334582226567	1.9401988516865674	7.5840895985522385
O	-5.821046712265671	0.21678664868656727	4.425871348552239
O	-8.01668028226567	-2.4041503663134325	6.091237048552239
O	-10.21758331226567	2.2887243736865672	4.3513483185522395
O	-11.47389766226567	-0.8022938063134326	2.438721818552239
O	-14.31630706226567	2.635171743686567	0.830648168552239
O	-15.437268362265671	7.932411393686567	1.0874868585522388
O	-12.05440626226567	5.452317053686567	-2.678510561447761
O	-9.728737202265672	-0.39399204631343276	-4.693856681447761
O	-6.121576832265671	-7.738061796313433	-6.412713201447761
O	-5.81015002226567	-5.072959686313433	-3.6886901514477612
O	-9.38529488226567	-5.725289956313433	-2.465350811447761
O	-8.72501484226567	-9.465224136313433	-2.402440741447761
O	-5.412704332265671	-9.290297836313433	-0.561235403447761
O	-6.619753062265671	-6.701890656313433	1.932544948552239
O	-9.78963027226567	-8.652076366313432	2.783919218552239
O	-4.05000729226567	-8.693739876313433	5.56131584855224
O	-6.568066802265671	-9.640029236313433	8.282256648552238
