21

O	26.903778717184792	5.122268301847756	4.59674442011465
O	26.091645117703532	6.348739537362662	4.887603542352291
O	24.67642129381937	6.24386870615175	4.40365766088507
O	24.08088083747663	7.202521769469478	3.914924887919925
O	23.992165434062105	4.960871803108163	4.662123028463548
O	24.86418388540137	3.7847559197015346	4.35200231424394
O	24.149403344131464	2.480343712674376	4.548486806839872
O	24.997491546768476	1.3348106667264483	4.069072495192225
O	26.385103707458843	1.33881342400924	4.6414935054742745
O	27.04744955156909	2.680986883388606	4.363422338808467
O	26.23630988380327	3.8268611561292163	4.955969584941682
O	28.443535071631015	2.6247250375583655	4.913364952980916
O	29.27800916218446	1.4934249368265908	4.391662082952868
O	28.609895135412202	0.1640018322978387	4.605569341943033
O	27.219522937078597	0.2862851010419951	3.9907156151658896
O	26.733947927683463	-1.1224394342801	4.084541138662889
O	27.986105624144628	-1.9297691933418168	3.7385661039172184
O	29.15742167486485	-0.9744280187061449	3.7931241171863004
O	30.30510717150637	-1.5369637660404163	4.321342090572801
O	28.580668573107253	-0.17833029473446405	6.068013039442114
O	26.069447284013165	3.6541469068430814	6.461438433525261
