29

O	23.511797584189388	4.192229526115355	3.8907640531371976
O	27.440314264087732	4.154170366372761	5.026971719775349
O	26.019101004063785	4.973999341179323	5.010957450815047
O	26.081372193422506	4.825050947327662	3.607142189241367
O	27.333937936536135	4.616337781523957	3.639575627053163
O	26.460284590590007	3.267806133928553	3.0887863276560146
O	25.56087511676871	2.8506323543561836	4.14954473478661
O	24.530174203604382	3.039951619248539	4.541953819433556
O	25.00853988113543	1.6039641326689118	4.8057452543313675
O	26.389460259420268	1.0221969225499843	4.772718915479755
O	27.35974595838797	2.1355218149124906	4.580249566649805
O	26.5722924863194	3.215526125984198	5.261300957811897
O	28.7565706443517	2.178896837139602	4.9165205851362614
O	29.172401888245155	0.8644629237219961	4.370656391050174
O	28.472075403765434	-0.3022869668872177	4.701508261756626
O	26.992239174325718	-0.15552980826194385	4.298636205417141
O	26.733624340548072	-1.602431855363949	4.211150941529851
O	27.98334186491668	-2.477551934580643	3.9931172589521218
O	28.945291579815862	-1.4064298966396758	3.8595249434179233
O	29.035269803604503	-1.1805110890603239	2.5439222960117203
O	28.695616325089482	-1.17691664087215	5.875752964910841
O	26.26924721929982	2.4902310157089476	6.610163235763293
O	30.186499594232792	-2.1163861863712867	4.201563494782366
O	31.018184777542643	-2.2669557764046244	3.43882664624594
O	30.938360875852503	-1.1635867994981444	5.091846464431711
O	26.987084514938424	4.655986188576759	6.036539540693196
O	27.994907005508693	-0.5257574057835488	2.17374374927096
O	28.66995016671827	0.5368113347888579	1.7208644348941222
O	26.94937922813844	0.5678537835856396	1.59039227788457
