21

O	26.881871768876916	5.0473411147414335	4.85510578543641
O	26.021684213912675	6.304268502241373	4.941164639863323
O	24.71161396408884	6.108444535602823	4.296617749161166
O	23.956233247849994	7.077350849962382	4.0527175998425475
O	24.27722879975909	4.747584247069889	4.3528436768410845
O	25.05461131645129	3.626465083964421	4.390251452416978
O	24.15903025571683	2.3150754438249055	4.527594430247674
O	25.062685615557402	1.216750634439153	4.07788109973268
O	26.450144168377175	1.3344651719770473	4.626119684884698
O	27.110315611341303	2.6617922197475243	4.380108839830069
O	26.26763545192934	3.7082833268958955	5.1287938584573745
O	28.509750754913213	2.5984449500382065	4.923667479222064
O	29.334002258800734	1.47961138016548	4.3573587087266095
O	28.665232951186976	0.1448126184204479	4.619798607199081
O	27.279276570552142	0.2684003742880654	3.991232353723259
O	26.77873533335776	-1.1357590204521546	4.100657539781475
O	28.02692635372274	-1.9403155017112927	3.7395809601593406
O	29.20433314472527	-0.9972809178555979	3.8055184343789996
O	30.348968728446835	-1.5657598993194648	4.328712094602612
O	28.61055562352271	-0.19940500847019949	6.081741166424782
O	26.27982000354639	3.1797509904726877	6.550811245226212
