103

O	3.9280399182337846	-1.8218471500135136	0.7201461407017573
O	0.6936877782337847	-1.7098191500135136	-1.7802689502982425
O	2.1658208982337848	-2.3602747300135136	-1.4609654102982426
O	2.6281020382337847	-1.0249632900135137	-1.4613110802982425
O	1.6217033082337848	-0.6291271600135137	-2.127651390298243
O	1.677703378233785	0.040616274986486345	-0.5676884582982427
O	1.6133274482337847	-1.0474350700135138	0.39157155470175736
O	2.2748847582337848	-1.7580444100135137	0.9479413397017573
O	0.9958532182337847	-1.4098839500135134	1.7246924697017574
O	-0.2891381617662153	-0.8011337200135137	1.2506616397017574
O	-0.23557652176621524	-0.6966558000135136	-0.23399543139824264
O	0.6528964582337846	-1.8774922300135137	-0.49199614729824265
O	-1.3239266121662152	-0.6133349000135137	-1.1692122522982427
O	-2.1472186147662153	0.4117435369864863	-0.48362904729824263
O	-2.4780217417662156	0.2762789249864863	0.8704182497017574
O	-1.1932735058662154	0.16988000498648637	1.7141362497017574
O	-1.8177764217662153	0.6277143659864863	2.966511849701757
O	-3.1040220917662156	1.4580780749864863	2.789774989701757
O	-3.0940384017662153	1.5200742399864864	1.3452842897017574
O	-2.4702743817662154	2.666143469986486	1.0496671697017574
O	-3.637455171766215	-0.44868067001351364	1.4395807397017575
O	-0.12704416176621525	-2.9585585100135137	0.3205967417017574
O	-4.5145980817662155	1.7892886999864865	1.0785270797017574
O	-4.858951911766216	2.765827519986486	0.6053132607017573
O	-4.859192771766216	0.9011103779864863	-0.08685680229824265
O	0.8748745782337846	-2.9110244500135134	-1.8074844002982426
O	-1.2096614926662153	2.4973857799864865	1.2242102297017574
O	-0.8703690137662152	2.768663929986486	-0.041145076298242655
O	0.3996511982337847	2.3827374399864865	1.0617875497017575
O	4.107472608233785	2.5411978699864863	-9.453386040298243
O	3.7471464882337844	5.266496349986486	-12.114447750298242
O	4.0344940582337845	8.115904279986486	-9.598431630298242
O	-1.9299549067662154	12.441186239986488	0.9532811097017575
O	-4.187485571766215	11.958592539986487	-2.0556189602982426
O	-1.3815504157662153	11.604991539986488	-4.622930510298242
O	0.7434667182337846	9.333108189986486	-2.490209270298243
O	-2.1362907107662155	6.896010119986486	-1.4529262502982425
O	-3.495335431766215	6.872508969986486	-4.993368800298242
O	-0.02580039176621529	5.839505839986486	-6.265288950298243
O	0.2518922982337848	3.2404478299864863	-3.693720310298243
O	-3.1350017617662154	1.7800992239864863	-4.498769550298243
O	-2.061182006766215	1.6181968069864863	-8.113790620298243
O	1.2024619382337849	-0.1371892450135137	-7.144729910298242
O	-0.9035417457662154	-2.5646946700135134	-5.159206340298242
O	-3.092481771766215	-3.3283989500135136	-8.274856680298242
O	0.038902098233784654	-3.8631624100135133	-10.402333450298242
O	1.8861634182337847	-5.990909380013514	-7.821579620298242
O	-1.2240413570662152	-8.183112720013513	-7.366754710298243
O	-1.0287959747662152	-9.233437760013514	-10.999058350298242
O	1.7941476282337847	-12.029505560013513	-7.067640910298242
O	-1.1989488607662153	-10.436520760013513	-0.3506586342982426
O	-0.5818723957662153	-7.619190690013514	2.1724619697017573
O	1.8974001482337846	-9.694359460013514	4.187491659701758
O	3.624266468233785	-10.914470860013513	1.0394002097017574
O	3.995471428233785	-7.394555790013514	-0.4030070502982427
O	5.202449478233785	-5.859443560013514	2.822153199701757
O	7.769924738233785	-8.617656530013512	3.321301529701757
O	9.119088998233785	-8.150361960013512	-0.20880911722824266
O	9.127948998233784	-4.365512870013514	0.14677888770175734
O	13.896041798233783	-4.338963190013514	-1.3512862502982426
O	13.845096798233785	4.540827499986486	3.4039971097017574
O	10.901467798233785	2.4147659599864864	2.271148119701757
O	11.579232898233784	1.2779136979864862	-1.3115393002982425
O	8.004899028233785	0.6162964869864863	-2.477489700298243
O	9.108985898233785	0.9037846909864863	-6.079188240298242
O	9.626434998233785	5.506420719986486	-8.662295320298242
O	8.083947338233784	5.558458699986486	-5.216739380298242
O	10.683166098233784	5.671809429986486	-2.4550356702982428
O	9.431599498233783	6.961071799986486	0.8876170097017575
O	5.985869738233784	8.732142699986486	5.680891359701758
O	0.9003568482337849	9.590572419986486	3.840268209701757
O	-0.6797905127662153	9.758397069986486	7.319236359701757
O	0.8112887282337846	6.241409199986486	7.6249824997017575
O	3.855402548233785	7.135843019986486	9.760297239701758
O	3.2519194982337845	4.605204469986486	12.557170049701758
O	2.7199240782337846	1.8050552599864864	10.066736949701758
O	5.803030658233785	2.8857660299864865	8.071973499701757
O	7.619394368233785	-1.7275356400135138	8.086240029701758
O	8.186490898233783	-15.275747360013511	1.3953794597017575
O	1.2821557282337848	-10.557070360013514	10.683468249701757
O	2.1765717782337846	-5.253928440013514	10.561513449701758
O	-0.13256110176621538	-6.578600920013514	7.860358169701758
O	-3.110876991766215	-6.286683380013514	10.211233649701757
O	-2.3604201917662153	-2.6256879700135136	10.890986349701757
O	-2.2461537017662154	-2.0388004800135135	7.181963919701758
O	-5.480750281766216	-3.9151959600135133	6.652029669701758
O	-7.173200641766215	-1.6490442300135135	9.171392349701758
O	-5.699540481766215	1.4387939409864863	7.5063129597017575
O	-6.488614741766215	0.6755605979864863	3.9343552897017573
O	-10.055198101766216	-0.5702902800135138	5.013978679701758
O	-9.255262531766215	4.659155369986486	3.848568959701757
O	-11.466561501766217	2.7984021199864864	1.3611870397017574
O	-11.924040801766216	7.287327799986486	0.05074609070175734
O	-10.296649891766215	12.361594139986487	0.9307346197017574
O	-8.059272431766216	8.721216239986486	-2.7396673502982427
O	-8.757140091766216	2.708101039986486	-5.3439845302982425
O	-9.210840321766215	-5.297752860013514	-7.7460302902982425
O	-8.039748521766215	-3.3737527300135137	-4.634146500298242
O	-11.531577701766215	-2.1038666800135135	-3.857756600298243
O	-12.934178401766216	-5.631985090013514	-4.297581400298243
O	-10.384421331766216	-7.3993830600135135	-2.1136916302982427
O	-10.407624151766216	-4.690962210013514	0.5687279837017574
O	-14.219266801766215	-4.666402190013514	0.8015916897017574
