101

O	2.4312450757608692	-1.6549167012275356	-1.0245581954927543
O	4.29762282576087	-2.8005073212275358	2.4106495425072456
O	3.278365085760869	-1.860839041227536	0.07270884050724558
O	2.3537841957608694	-2.4894566312275357	2.3824208725072458
O	3.559052865760869	-0.9713135512275358	1.0499652325072455
O	2.990656355760869	0.28333057877246426	0.8340410725072456
O	2.129207885760869	0.5227631057724642	-0.2155275544927544
O	2.3500858257608694	-0.2786946822275357	-1.2983447054927544
O	2.941631595760869	1.4114909907724642	1.7535331425072456
O	3.4134393357608697	-1.703286031227536	2.2886242625072457
O	1.5533304957608691	-0.01297068022753578	-2.3987749874927546
O	0.4300367057608693	0.8249052307724642	-2.334896497492754
O	0.6396111557608694	1.9516835087724642	-1.8456875974927545
O	-0.6391128292391306	0.5618824808724643	-3.3039749874927544
O	-0.060446657239130674	-0.13726606022753574	-4.338317777492755
O	-1.0726643582391306	1.8859846687724642	-3.8538444474927545
O	-1.7706643422391306	-0.28042437422753574	-2.7864616974927543
O	-1.1521135702391305	-0.9348011212275357	-1.7200249344927543
O	-2.0367227342391305	-1.5266230812275356	-0.7181812203927544
O	-3.190808894239131	-1.0353683112275358	-0.23583706849275443
O	-4.039232204239131	-1.4733478012275358	0.7446876425072455
O	-3.5978988142391306	-2.5306398812275357	1.4775070225072455
O	-2.3711065342391304	-2.8865979912275357	1.1000849125072456
O	-1.8854686942391305	-2.799184251227536	-0.1624901814927544
O	1.8428509957608692	1.5199561497724643	2.5497835025072457
O	-3.8874582042391306	-0.3524680982275358	-1.2372243964927545
O	-4.99084269423913	-0.8975824712275356	1.4959868425072456
O	-4.39654152423913	-3.2991352712275357	2.2834061525072458
O	3.230722965760869	2.6423113887724643	1.3178603025072455
O	-1.8438259592391306	-3.731191171227536	2.0032401825072457
O	-1.8922077842391305	-3.7125545712275354	-1.1583475384927544
O	3.8447569657608693	1.0667518457724643	2.6938310125072458
O	9.04351175576087	-7.238498451227536	-3.5586395174927543
O	10.697269915760868	-9.056992891227535	-6.413088757492754
O	3.3734442157608693	0.33987879377246427	-9.191186137492755
O	3.2042404957608697	-3.2617935312275357	-10.389010487492754
O	6.04533938576087	-4.059012011227535	-7.966712817492755
O	4.28991425576087	-2.1535078712275357	-5.122454017492754
O	1.1194408257608695	-4.040102951227536	-5.800328247492755
O	2.975572685760869	-7.378877381227536	-5.691106647492754
O	4.685404425760869	-6.3520320512275354	-2.490256497492754
O	1.3321885657608692	-5.556730731227536	-1.1396477984927544
O	-0.09249235223913066	-8.925391031227536	-1.9094411774927544
O	2.9314538957608693	-10.478971901227537	-0.16194271749275435
O	2.6862513357608693	-8.121079191227535	2.863670822507246
O	-0.9922641777391307	-8.855416271227536	3.279242442507246
O	-0.2104427672391307	-12.563545101227536	3.8260738225072455
O	-0.24678066623913064	-9.071458641227537	8.104214942507246
O	-2.9390415442391307	-11.738770201227537	8.372913682507246
O	-6.622438734239131	-1.3147675212275356	8.574980682507245
O	-3.9494500342391308	-2.928960421227536	6.502062902507245
O	-2.9523476342391306	0.36671488777246425	4.645823752507246
O	-2.3725143042391306	2.2239300587724644	7.797415902507245
O	-0.5031756062391306	-0.7561859512275356	9.220092862507245
O	1.6107647657608695	-1.1685072112275359	6.208994452507246
O	2.519603895760869	2.6537483787724643	6.036919022507246
O	3.382421945760869	2.748390988772464	9.663729252507245
O	5.7350236757608695	-0.22507233622753575	9.453724852507246
O	7.3739465257608705	1.0329788407724643	6.279583282507246
O	7.95281112576087	4.385335878772464	7.938816652507246
O	11.882361115760869	0.5590599557724643	8.391656652507246
O	12.844403715760869	3.744381778772464	6.564692642507246
O	11.222605715760869	5.123918628772464	1.5558714825072455
O	12.356629015760868	1.5898329477724644	2.3957964525072457
O	9.461482215760869	-0.33881105022753577	0.9466171025072456
O	11.600412115760868	-3.4863201212275357	0.7999170925072456
O	12.386778215760868	-1.6215156812275358	-3.5556159074927542
O	3.2627736257608695	9.591191188772465	-9.772949247492754
O	2.852642435760869	9.298309248772464	-6.005196837492754
O	5.22271149576087	12.060043198772464	-4.953240427492754
O	2.781782625760869	13.957957998772464	-2.733934067492754
O	1.8035651457608695	10.752579598772463	-0.9462637054927544
O	5.45604141576087	9.752073218772464	-0.5911249874927544
O	4.935290565760869	8.954468758772464	4.228114242507246
O	1.2944101157608694	-0.7382006212275357	15.298480552507245
O	-3.5081137442391306	0.6643546944724643	14.423036152507246
O	-5.16537349423913	8.032383238772464	9.044719932507245
O	-5.01968686423913	10.963603098772465	6.599379832507245
O	-1.9780452042391308	9.446922538772464	4.919780052507246
O	-3.7602748942391306	6.090355098772464	4.571130912507246
O	-6.856959454239131	7.800673108772465	3.1175010225072457
O	-4.731221714239131	9.501136198772464	0.44772981250724553
O	-3.2335306142391307	6.129407988772464	-0.4602369724927544
O	-6.73048564423913	4.507716458772465	-0.5263665454927544
O	-4.7674172142391305	6.749574808772464	-5.123458467492754
O	-4.8597714042391305	2.992682368772464	-5.379289527492754
O	-8.558689934239132	2.838596598772464	-5.834998507492754
O	-5.306722264239131	3.332730708772464	-10.170192307492755
O	-7.29428967423913	0.07817455577246424	-10.056552097492755
O	-5.28019510423913	-0.08787326622753577	-14.335227647492754
O	-0.49626552323913065	-1.5966953012275358	-13.988696847492754
O	-3.030242914239131	-5.814837011227536	-9.543372327492754
O	-6.27137783423913	-10.142660501227535	-3.1134613774927544
O	-5.35977895423913	-6.529409411227536	-3.7822220874927543
O	-7.95891953423913	-6.160674571227536	-6.554683817492754
O	-10.604043084239132	-7.736003841227536	-4.302365927492755
O	-9.94568560423913	-5.636023421227536	-1.2413107904927543
O	-9.554313384239132	-2.4096848812275358	-3.232187797492754
O	-12.805931884239131	-2.9087869312275356	-5.094068837492754
O	-11.63758188423913	0.2659617577724643	0.30366419250724563
O	-14.72662758423913	1.9241026887724644	-1.2455155754927545
