97

O	-0.7478475082947069	1.2412522931132355	-1.9189875644558823
O	-1.122252244014707	2.2508267586132353	-1.0498566054558822
O	-2.460743502014707	2.2461016186132357	-0.6755993104558823
O	-3.314626532014707	1.4290395996132355	-1.3141241994558823
O	-2.7462365120147068	0.18337830861323545	-1.6891421314558823
O	-1.3412617720147069	0.0047247986132354924	-1.5944939334558823
O	-2.815514242014707	2.8760591986132353	0.5598822155441177
O	-4.7343496020147064	1.4992372166132353	-1.3444872984558822
O	-5.679698322014707	1.1435908184132355	-1.8984169744558823
O	0.624145117985293	1.0490543856132355	-2.1556272144558823
O	1.629824157985293	1.0452884926132353	-1.1683472784558824
O	1.301265047985293	1.6685066256132355	-0.09881576745588228
O	2.952502727985293	1.3314654306132354	-1.6957140994558824
O	2.912288687985293	1.3241413036132355	-3.083572444455882
O	3.3456115479852935	2.7041009586132354	-1.3299221144558824
O	4.0892346079852935	0.4428322786132354	-1.5101610304558823
O	4.403943417985293	-1.9876339513867647	-2.4161594344558823
O	3.267785787985293	-1.0237122513867645	-2.045539374455882
O	2.357833227985293	-1.7386742713867647	-0.8355552952558823
O	2.961067127985293	-0.8232707413867648	-3.373519574455882
O	2.184126927985293	-3.075652551386765	-0.8532273364558823
O	2.121213557985293	-3.7467221113867644	0.31582573554411764
O	2.3811474379852933	-3.321850221386765	1.5732615255441178
O	2.957817597985293	-2.0910628513867646	1.4519497255441178
O	2.6254257979852933	-1.2368421913867644	0.44841640554411777
O	1.6926662479852932	-3.7451181613867646	2.6853651055441174
O	-2.189851772014707	2.1558192336132356	1.6072721555441178
O	-3.9693048220147067	3.2137183086132355	1.0207544755441178
O	-2.0524531720147072	4.063902868613235	0.5861920955441178
O	-6.298481882014707	1.6176982626132355	-10.204046354455881
O	-6.039568652014707	1.7111327486132355	-14.001138044455882
O	4.165729107985293	3.7689418786132354	-7.610377604455882
O	3.4987851179852933	1.1355660829132355	-10.256498984455881
O	-0.16708094301470688	2.2869954086132354	-10.309821404455882
O	-0.4099445680147069	2.267895538613235	-6.482597474455883
O	1.035099527985293	-1.2907416713867645	-6.524558554455883
O	-1.531639852014707	-2.4334102813867644	-9.018206694455882
O	-4.243593792014707	-0.8206900313867647	-6.943424514455883
O	-2.8942944920147067	-2.8089514613867643	-3.9877559344558824
O	-3.1564030620147068	-6.034579581386765	-5.809378554455883
O	-6.7403000820147065	-5.196329181386764	-6.811029364455883
O	-7.796820142014707	-3.9555106613867648	-3.368920904455882
O	-6.364494522014707	-7.071044821386764	-1.7413721604558823
O	-8.745318182014707	-9.266428221386764	-3.7142564544558825
O	-10.259597172014708	-7.168459251386764	1.2035492155441176
O	-10.009110202014707	-10.964477221386764	1.2439027855441178
O	-3.6014805020147067	-6.005999551386765	8.659785565544118
O	-4.108791952014707	-5.123371051386764	4.960647975544117
O	-2.024656372014707	-1.9512793913867648	5.081315445544117
O	-3.828002392014707	-0.4814558013867647	8.035761765544118
O	-7.203490312014707	-1.5051355713867647	6.608985125544118
O	-6.547001612014707	0.02224853861323539	3.259913615544117
O	-5.087177192014707	3.294980968613235	4.694983145544118
O	-8.074278712014706	3.6861759586132354	7.003029865544118
O	-10.562551722014707	3.2036861586132357	4.165838315544118
O	-8.619885762014707	5.530786068613235	1.8502569855441175
O	-12.823869952014707	8.062472868613236	0.9667781755441176
O	-5.634705432014707	11.553739378613235	-1.0516899644558824
O	-8.427632962014707	9.725564838613236	-2.8981980144558825
O	-6.689929972014707	6.416575888613236	-3.5677837144558824
O	-9.119009172014707	5.642104848613235	-6.346019764455883
O	-5.720286612014707	7.997413148613235	-8.824469284455882
O	8.765646127985294	10.353121098613236	-2.8960494744558822
O	6.2190744179852935	9.503139698613236	-0.20931471345588226
O	5.367035977985293	13.019214278613235	0.9148988155441178
O	5.955897947985293	12.467738278613236	4.631676525544117
O	3.855491007985293	9.341488938613235	4.6279724955441175
O	1.140257107985293	11.122867958613236	2.619684505544118
O	-2.355236782014707	9.740471808613236	5.822625795544117
O	-12.451740652014706	-0.7835836213867646	10.015258855544118
O	-8.555954842014707	-3.0220627613867648	12.401355155544119
O	-0.6400605880147069	1.6720328446132355	13.379480655544118
O	1.152116687985293	5.2493255486132355	9.767453255544119
O	0.9240865879852931	1.6631930996132354	8.575205575544118
O	4.410534117985293	0.9540411266132354	9.958372055544118
O	5.887862687985293	3.8583992786132355	7.987744955544117
O	4.262328467985293	2.528149778613235	4.852645435544117
O	5.604619537985293	-0.9599760613867647	5.689937735544118
O	9.127412197985294	0.37952359961323545	5.843697545544117
O	8.708348287985293	2.3860875486132356	2.6536145155441178
O	7.383724647985293	-0.4189831613867645	0.5660487255441178
O	9.870650147985293	-2.9525779413867643	1.9034017155441176
O	11.094024247985294	0.02840918861323538	-2.5141659244558823
O	10.736324847985292	-3.7273187513867643	-3.2384236344558825
O	12.451755347985292	-2.0342783813867644	-7.325292974455882
O	14.005589547985293	2.4329640086132356	-9.971143654455881
O	8.863293547985293	0.1265401086132354	-10.120798414455882
O	5.281333187985293	-5.0033006313867645	-7.992801824455882
O	0.6846273379852932	-11.004699521386764	-4.378151704455882
O	2.237064307985293	-7.694107961386765	-3.340220364455882
O	5.802651657985293	-8.995048421386764	-3.8321885844558823
O	4.9554257079852935	-12.120520321386763	-1.8405217764558823
O	3.3288147479852928	-10.360607121386764	1.0953236055441178
O	5.983894257985293	-7.652681371386764	1.2837523655441176
O	8.871455927985293	-10.130578221386765	1.2313210355441175
O	5.7861041079852935	-7.510136231386765	6.168076755544117
O	9.315332547985292	-8.302362541386763	7.406320725544117
