57

O	-4.641396710062858	-2.06755217916	4.347894643854286
O	-4.3281720300628574	-1.1972705661599998	5.343525303854285
O	-3.234677710062858	-0.4262266271599999	5.095928443854286
O	-2.516454400062857	-0.57432672716	3.9155466538542854
O	-3.2199108900628577	-1.00559479116	2.8092957138542856
O	-4.273123320062858	-1.77765169916	3.0743267638542857
O	-2.2923871100628572	-0.08545350315999989	6.0058068838542855
O	-1.0593047700628573	-0.26897351315999996	5.5533414338542855
O	-1.1824468300628574	-0.38135958815999993	4.196883783854286
O	-2.662878930062857	-0.75705786516	1.5395333158542857
O	-0.19356668006285727	-1.12334593816	3.3083529638542855
O	-0.05016039006285733	-2.39619552316	4.1241192438542855
O	1.0577737975371426	-2.27790909916	4.985533123854285
O	1.3253819289371427	-3.59003589316	5.382959903854285
O	0.3129923749371426	-3.93274256316	6.294953593854285
O	-0.9724123400628575	-3.84335108316	5.758907173854285
O	-1.1885556000628574	-3.0083362131599998	4.6603120838542855
O	2.5729773599371426	-4.22309353316	5.389089103854285
O	-2.6035453300628575	0.27293045683999995	7.343770613854286
O	-1.3901614800628572	0.76607931684	8.073359763854286
O	-3.1936008800628573	-0.99051177416	7.973474103854286
O	-3.7136634700628575	1.2850132968399999	7.325458283854285
O	4.196019669937143	12.97831873684	0.6015200348542856
O	-4.110852300062858	9.59444953684	0.10385299485428567
O	-3.9496781900628575	5.92002975684	0.9123539268542857
O	-2.495550740062857	6.8234941968400005	4.292195293854285
O	0.41752908193714267	8.69862123684	2.8028939338542855
O	1.0849007391371426	6.214824586840001	0.00494630485428571
O	1.6487120799371426	3.5898895868400005	2.565551853854286
O	3.9552538699371427	5.5916252568400004	4.757311023854285
O	5.755148149937143	6.703586036839999	1.5831662938542856
O	6.135257379937142	3.1758628968400004	0.21866977385428565
O	7.4890884399371425	1.6946610568400002	3.495324703854286
O	10.012759789937144	4.545831896839999	3.593930163854286
O	11.056138079937144	-1.7230998391599999	0.24016853385428566
O	11.589345949937144	-3.6876604831599997	3.458382733854286
O	9.959933689937143	-7.6131770331599995	0.16979352585428564
O	5.5635468499371425	-8.40923603316	4.433450063854286
O	2.662643709937143	-9.87382439316	2.4466237738542858
O	3.9749609599371425	-8.71950655316	-0.9357277361457144
O	4.595521969937143	-5.27753809316	0.5558168619542857
O	0.9021496979371426	-4.89316282316	1.1950916228542856
O	0.05712125993714268	-6.59645933316	-2.0171958361457145
O	1.9036847959371426	-4.23054713316	-4.350555456145715
O	0.3250034569371426	-1.29826302656	-2.465891176145714
O	-3.185789590062858	-2.65534597316	-2.6833643861457146
O	-2.7676352800628576	-3.22653487316	-6.423289346145714
O	-0.9511239000628573	-0.09530845315999992	-7.636423096145715
O	-2.3544584100628576	2.5325871168400003	-5.261404246145714
O	-4.591234630062858	3.6055145968400004	-8.085400646145713
O	4.2485171199371425	-12.86610176316	-5.406827046145715
O	-13.987406050062857	2.01882117684	4.887493993854285
O	-10.615609650062856	1.13403822684	3.434695333854286
O	-11.552597450062857	2.16783213684	-0.029904852145714367
O	-14.637136150062856	-0.03767541315999989	-0.10703184714571434
O	-12.685313250062856	-3.09030192316	0.9436437608542856
O	-9.648851150062857	-2.6962448931600003	-1.2938608361457142
