21

O	26.90438942811396	5.094108178399608	4.875911736906058
O	26.04078819218377	6.349969506915534	4.9887906498900065
O	24.71725138348843	6.156923168638506	4.373109167495793
O	24.016023786254145	7.16343856966734	4.147333299011509
O	24.262105753874263	4.800788943287031	4.412771732064411
O	25.03791031536383	3.685931907111156	4.491015688414052
O	24.160151006808327	2.355822242970371	4.606756923223252
O	25.059510817331528	1.2540854632224694	4.155314427483662
O	26.450112324853265	1.3803524772425013	4.708390568469159
O	27.10274472500529	2.71990047474075	4.414206067869991
O	26.276398842235754	3.7650358841716773	5.177933652109235
O	28.5223321982402	2.681269890146181	4.90392244622901
O	29.325222486461904	1.5242165835023014	4.385622334337123
O	28.666024780106017	0.18561024425464812	4.677567965804583
O	27.27024088314514	0.3068261080565291	4.069403033907401
O	26.768053413230053	-1.0938346129154963	4.206146923330486
O	28.008201749881586	-1.9172376227659695	3.8607540440045267
O	29.18839932439301	-0.9564543229192162	3.8558921614062633
O	30.35470549302261	-1.51762456031972	4.336828082084285
O	28.634753658019743	-0.13342583410854036	6.14479552412808
O	26.3350387150859	3.2633412000973627	6.614605827112099
