23

O	29.938089549120686	0.20176961571857	4.593037823172713
O	29.14567050441129	-0.8540595880396502	4.665615247849685
O	28.93359181065842	-1.6925260387016858	3.419002849530287
O	28.708742646785947	-0.47896206008102826	2.5917733923772044
O	27.570708129101202	0.025034403623392265	3.4677566446249672
O	27.906945874718065	-0.1586243051258256	4.810425147084157
O	27.89279097221057	1.1678019341143004	5.325960884256919
O	28.925404968153092	1.755670316327264	5.704939419376798
O	27.170809400503455	1.9741425522440958	4.559288106056347
O	27.018265205322955	1.2358221705495345	3.391230697785895
O	26.301095756516986	1.7345476274087168	2.500502443445529
O	26.762281072207724	3.303826494890875	4.7610808408665655
O	27.49326885311741	4.372758870801024	4.341638529675006
O	26.87396339429434	5.570237384719462	4.7200465917889325
O	25.490684147056072	5.5747012823215005	4.579773040050677
O	24.758440149569036	4.450849365419959	4.564039057211838
O	23.606825007081397	4.463705929381916	3.8305407539836134
O	23.030499352350752	3.3902158705728835	3.206611886172427
O	23.300729038130854	2.263392629982079	3.908018622534999
O	24.57127783918599	2.1954221338305593	4.488725314090201
O	25.42148854359065	3.3066565212777945	4.584663101001992
O	24.611395546978017	6.730716410700238	4.847471425301114
O	24.488345673106164	7.84607481923298	4.422438810561739
