99

O	-3.122650346538461	-0.3532285608205129	1.0599994100128214
O	-4.392064426538461	0.33998983017948714	1.4535337800128212
O	-4.169865396538461	1.7383554121794873	1.9504185800128213
O	-4.860157356538462	2.232217389179487	2.840645880012821
O	-3.2002738765384615	2.5450174791794873	1.1833761700128211
O	-1.9762348165384616	1.7930917791794871	0.7853556400128211
O	-0.9564716825384615	2.629411519179487	0.08151583501282123
O	0.3227457634615385	1.875779089179487	-0.1530136109871788
O	0.12660277346153848	0.5062380131794871	-0.7371030709871789
O	-0.8761453365384615	-0.2800393308205128	0.10385305201282119
O	-2.2046371635384614	0.44155756517948713	0.17852910801282118
O	-0.9971178165384615	-1.6804882508205128	-0.4288785002871788
O	0.31633538346153856	-2.388559960820513	-0.5878216119871789
O	1.3134789134615383	-1.6063284008205128	-1.4179543299871789
O	1.4155243234615384	-0.2423235908205129	-0.7413590219871788
O	2.5637421034615384	0.35980081417948717	-1.4864240799871786
O	3.530726603461538	-0.8185921808205129	-1.6268350299871788
O	2.734546373461539	-2.070711660820513	-1.2778825839871788
O	3.0577858734615386	-3.1527035208205128	-2.0751578599871787
O	0.9277056234615384	-1.523567430820513	-2.867186159987179
O	-2.7636878565384615	0.6597219931794871	-1.2180390289871788
O	-5.015809766538462	-5.355021380820513	8.032026100012821
O	-4.453002326538462	-8.221675760820514	10.466531150012822
O	-0.9975629725384615	-6.985802510820513	11.502384650012822
O	10.428283233461539	-4.338639540820513	6.306291140012821
O	9.10570743346154	-7.822462090820514	5.547388570012821
O	6.3517086634615385	-7.762223630820513	8.179419800012822
O	5.189876783461538	-4.219866080820513	7.415107990012821
O	5.018105463461539	-4.647295630820513	3.6462938400128215
O	3.4246754534615382	-8.085569880820513	3.912799990012821
O	0.7185873134615384	-6.509706390820513	6.093948830012821
O	0.2189319334615385	-3.5962928808205126	3.7049872800128214
O	-0.09443435653846155	-6.065206150820513	0.8145334300128212
O	-2.7222048565384616	-8.040120970820514	2.7332556900128213
O	-4.578720446538462	-4.815603330820513	3.5174031900128213
O	-4.466733546538462	-4.057143020820513	-0.1953036019871788
O	-6.056290726538461	-7.408029020820512	-1.028282352987179
O	-8.785177106538463	-6.822233720820513	1.5643472700128211
O	-9.459167826538462	-3.220051780820513	0.5507018070128212
O	-9.709485156538461	-4.238207060820513	-3.1067463499871786
O	-12.68283476653846	-6.464719810820513	-2.300870089987179
O	-13.441443666538461	-1.105567110820513	-3.574997079987179
O	-7.292471936538462	1.4181294741794872	-7.088530959987179
O	-3.9782371165384616	2.887007409179487	-5.888940279987179
O	-5.173324596538461	6.484670569179487	-6.191859149987179
O	-8.519773436538461	5.622779669179487	-4.613651569987179
O	-6.960392716538461	3.8527315291794872	-1.6400546899871786
O	-4.329298316538461	6.531182589179487	-1.0361292899871788
O	-6.972098206538462	9.281335759179488	-1.155238853987179
O	-9.16787532653846	7.443211809179487	1.3621450100128212
O	-6.192196966538462	6.639907509179487	3.5931848700128213
O	-5.256731706538462	10.308344559179487	3.5637087400128213
O	-8.722446526538462	8.596762389179487	7.453157440012821
O	-5.404559226538462	9.986312449179486	8.662799390012822
O	0.5576880134615385	9.571124169179487	11.202079250012822
O	-0.6109690105384614	7.456589719179487	8.261332430012821
O	-3.7702043965384613	5.604790369179487	9.31191747001282
O	-3.6798454865384613	2.6621279691794872	6.890680170012821
O	-5.985455596538461	0.7124558071794872	9.200061210012821
O	-4.300287766538462	-2.063025300820513	13.377703150012822
O	-1.7127371545384615	-0.5701448708205129	11.047033950012821
O	-0.9279273345384615	3.040036539179487	11.892232550012821
O	2.4185563234615386	4.299851019179488	10.610471150012822
O	7.716512263461539	5.110696069179487	7.628590190012821
O	9.042694233461539	0.3349050561794872	5.388718600012821
O	11.751711833461538	1.7553773751794872	3.100702390012821
O	8.87554693346154	3.914901569179487	1.8250491200128214
O	9.70067803346154	7.130870919179487	3.674969320012821
O	9.692451433461539	9.439700559179487	0.6411894920128212
O	6.365492583461538	8.043081919179487	-0.5530624579871788
O	4.925566103461539	8.289591449179488	2.967658990012821
O	0.9287568634615386	10.678143419179486	1.3121236000128214
O	-13.117407366538462	9.973665369179487	-4.327303389987179
O	-1.7844783305384615	11.048642939179487	-9.533421719987178
O	1.9540675834615384	11.718149339179487	-8.974431559987178
O	1.7101757434615386	10.077169589179487	-5.547139509987179
O	-0.032697996538461505	7.040038129179487	-7.012834309987179
O	2.6396404334615386	6.768444289179487	-9.728967399987178
O	5.430539193461539	6.719473159179487	-7.136884009987179
O	3.6181928334615385	3.963239069179487	-5.280428079987179
O	3.0669158634615385	2.028881149179487	-8.504828719987179
O	6.802087003461539	2.125075999179487	-9.193187359987178
O	7.604351093461538	1.0590834571794872	-5.641996749987179
O	5.206214583461539	-1.8792657308205127	-5.458840669987179
O	6.164261063461539	-3.028689630820513	-8.972504589987178
O	9.005431733461538	-4.830045820820513	-4.731891919987179
O	6.985455633461539	-7.546407940820513	-6.514948119987179
O	9.645580033461538	-10.034916260820513	-3.503566069987179
O	13.292995733461538	-9.715304260820513	0.4998370770128212
O	7.693998593461538	-9.966740860820513	1.1185885100128212
O	1.9841649234615386	-10.647076560820514	-2.1993907699871786
O	-5.096942696538461	-10.393383560820514	-6.656856369987179
O	-2.3171010285384614	-7.946034560820513	-5.802785869987179
O	0.3173704834615385	-9.970597660820513	-7.676753729987179
O	-1.9996008745384615	-10.192945160820512	-10.695862649987179
O	-2.8858765765384615	-6.511280500820513	-10.855768549987179
O	0.6692517634615385	-5.349852120820513	-10.172815649987179
O	2.1554001634615387	-7.619415490820513	-12.869701249987179
O	0.27617986346153844	-1.571918080820513	-13.206579049987178
