32

O	27.64511749020173	4.181571323287141	4.350400408185181
O	25.59215337772016	7.602385016292013	5.174880855591455
O	26.81292785423108	5.308863080116247	4.376572425950151
O	25.919454496158387	6.2662828590056305	6.583342076997101
O	25.46608637897019	5.311818651492669	4.481836797989422
O	24.90847608414664	4.0340772864209935	4.465178722262865
O	25.689196589581957	2.897644241450968	4.468515026594208
O	26.913376609505054	3.073187264348631	3.890429774440781
O	23.526262168117597	3.6596414446214127	4.729560075238933
O	25.162740548283246	6.294227215691374	5.498752686443742
O	27.69340226620036	1.9325494994992938	3.807480567322985
O	27.378694731311867	0.7493352878623807	4.492220473591178
O	26.220703360187937	0.3265502906924409	4.310053198057968
O	28.503354855652635	-0.12705769733495131	4.836385775664285
O	29.528929455757538	0.20565951080998746	3.9813862274841223
O	28.08924414055652	-1.527976089756344	4.505462931547194
O	29.029589406436877	0.03623742523218887	6.234284760052769
O	28.58573776761128	1.3238812642699629	6.539359210857668
O	28.545571977746746	1.6798455234541727	7.9564525699419235
O	28.191274439498468	0.9066447278827598	8.99690236630039
O	28.050878674044203	1.16884112686277	10.332798669498388
O	28.156368566860767	2.476472100923563	10.691461555024024
O	28.327496683103732	3.247252306299808	9.618714629467716
O	28.996123108444845	2.886938436009664	8.495908430793225
O	23.205097893151024	3.32238842617169	6.008705119198034
O	28.592340678567794	-0.41526060805881526	8.782049632070917
O	27.401823586607787	0.5771435445547595	11.347756891492008
O	28.3470161498725	2.912036788424953	11.97669525070577
O	22.904711090133965	2.7877378553633108	3.9284596543482393
O	28.14895570863354	4.537334312053298	9.951676226457375
O	30.298538190327324	3.0483314785371167	8.173899311992614
O	22.88056521876652	4.841498835609587	4.6593521460226555
