99

O	2.808816034269231	1.0212320425064103	1.3873640958679485
O	3.587475484269231	1.1707181255064103	2.660392735867948
O	2.716374444269231	1.28586254550641	3.8750560558679483
O	2.963047734269231	2.0307163685064102	4.804213455867949
O	1.567523564269231	0.3613858025064102	3.935175765867948
O	0.860302854269231	0.22732728350641018	2.631679865867948
O	-0.36669818273076893	-0.6236125514935899	2.7025203558679483
O	-1.141695091130769	-0.6377010814935898	1.4164820758679484
O	-0.297883659730769	-0.8537376614935898	0.19310466486794833
O	0.873627684269231	0.12166282750641022	0.18272406086794832
O	1.7212169042692311	-0.012723261493589821	1.4288348158679485
O	1.6634700442692312	-0.036668807493589806	-1.0865230491320517
O	0.837403314269231	0.03590550450641028	-2.3378658341320517
O	-0.327236646730769	-0.9147509714935899	-2.325446734132052
O	-1.096027823330769	-0.6179755614935897	-1.0434692231320517
O	-2.321536435730769	-1.4514417414935896	-1.2410136441320516
O	-2.6256723257307693	-1.2789139314935896	-2.730434374132052
O	-1.394071330730769	-0.6221612714935897	-3.343055904132052
O	-1.105080227930769	-1.0886260414935895	-4.611465194132052
O	0.09006109426923103	-2.3513208714935896	-2.457928364132052
O	2.265589834269231	-1.4320532314935899	1.5410487958679484
O	6.116403634269231	8.99090975850641	-0.31962599473205167
O	6.68540054426923	12.096892668506412	-2.4386412241320516
O	2.9645606742692308	12.879716368506411	-2.726013824132052
O	-7.876679275730769	7.50985296850641	-6.9888710341320515
O	-5.057751625730769	7.63673245850641	-9.537862784132052
O	-2.8897842557307687	10.08316171850641	-7.580769994132051
O	-3.389912505730769	8.399557028506411	-4.204900844132052
O	-2.690240155730769	4.86509419850641	-5.401965394132052
O	0.25342157426923095	5.96117937850641	-7.538223194132052
O	1.7356078642692312	7.58338514850641	-4.418236214132052
O	1.085187024269231	4.51138257850641	-2.277079854132052
O	2.749877294269231	2.3449648085064103	-4.939112284132052
O	5.795101114269231	4.63152924850641	-4.950817524132052
O	5.908688614269231	4.50429682850641	-1.1506440331320515
O	5.815016424269231	0.7264220612064103	-1.4508849341320516
O	8.817819744269231	0.7381464374064103	-3.7807156941320517
O	10.73022551426923	3.01218627850641	-1.3964659341320516
O	9.79396201426923	1.0860570895064101	1.7453292858679483
O	10.81985911426923	-2.1915784814935897	0.10796085786794832
O	14.387989214269231	-0.9263530714935898	-0.22787781873205165
O	12.75624511426923	-3.5589282014935892	4.390424745867948
O	6.49165086426923	-7.42386876149359	2.861327305867948
O	2.774938654269231	-6.54640003149359	2.8767924558679483
O	2.235994064269231	-7.8007999214935895	6.426557245867948
O	5.445407574269231	-6.15202872149359	7.615238645867948
O	4.5837523442692305	-2.7786646114935896	6.103037695867949
O	0.9817440442692309	-2.8092262714935896	7.324049845867949
O	2.092934664269231	-3.70864622149359	10.860170185867949
O	4.635162954269232	-0.8679141014935897	10.911776985867949
O	2.149850584269231	1.5801722355064103	9.392799045867948
O	-0.336080637730769	0.6342850525064102	12.087786685867949
O	3.146975734269231	4.73094036850641	13.162372785867948
O	-0.5379183097307689	5.63778115850641	13.111306885867949
O	-5.87671002573077	8.37136407850641	10.621857985867948
O	-3.607905925730769	6.04147585850641	8.644929225867948
O	-0.0667581057307689	7.44077706850641	8.773649825867949
O	1.411191274269231	5.86211539850641	5.634675565867949
O	4.121314364269232	8.52581059850641	5.589929195867948
O	3.490293424269231	13.325921468506412	3.453216075867948
O	0.7388074842692309	10.76426286850641	2.9707847658679483
O	-1.669264232730769	10.67619290850641	5.896337725867948
O	-5.0874289357307685	9.21205776850641	5.120222765867948
O	-9.87268544573077	6.2766563585064095	2.6484636858679482
O	-8.677615135730768	5.38184135850641	-2.5819741841320516
O	-11.506747985730769	2.8838811785064102	-3.170669204132052
O	-9.810127825730769	1.0127797225064104	-0.30831595563205166
O	-12.17430498573077	1.9950776385064102	2.502675175867948
O	-12.92720618573077	-1.5294586914935895	3.7454228758679484
O	-9.23356726573077	-2.4208033714935895	3.7999551858679483
O	-8.39724840573077	0.8747337385064102	5.523840605867949
O	-5.778078835730769	-1.4557060214935897	9.006923685867948
O	7.52802661426923	-7.12917000149359	13.519002285867948
O	-2.5204061257307693	-12.10508143149359	7.953515585867947
O	-6.191442005730769	-11.629040731493589	6.936082355867948
O	-5.554870015730769	-7.90338500149359	6.476014005867948
O	-2.497240655730769	-8.58713842149359	4.3322508158679485
O	-4.489146125730769	-11.06229113149359	2.2118791758679484
O	-7.18463265573077	-8.46431686149359	1.5090925658679484
O	-4.503468945730769	-6.01325779149359	0.44023095186794836
O	-2.839270995730769	-8.64823505149359	-1.7365351241320517
O	-6.130207145730768	-9.226980521493589	-3.542431984132052
O	-6.690757605730768	-5.49854732149359	-3.9642587141320518
O	-3.253339205730769	-4.63707001149359	-5.324813374132051
O	-3.253947055730769	-7.70684063149359	-7.595950924132052
O	-5.356574175730769	-3.0642225414935895	-9.419241484132051
O	-2.169467395730769	-4.14622138149359	-11.239254914132053
O	-3.6858729957307688	-0.5191261214935897	-13.862232014132053
O	-7.4415930757307684	3.3708566185064104	-14.303740114132053
O	-2.4198319257307688	3.87088572850641	-11.788013414132053
O	3.263160394269231	0.6752439274064103	-10.538247514132053
O	9.847239914269231	-3.90092143149359	-8.13188031413205
O	6.19475203426923	-3.625655531493589	-7.118589994132051
O	4.950211044269231	-4.83766498149359	-10.514424614132052
O	7.389402024269231	-7.7636159114935905	-10.364768414132051
O	6.524631524269232	-8.89217460149359	-6.851504344132052
O	2.782292864269231	-8.428116171493588	-7.334097264132052
O	2.744128474269231	-10.40524733149359	-10.608590114132053
O	1.706855774269231	-12.34188273149359	-4.659640194132052
