21

O	26.90688762912312	5.119984866189116	4.6222949869430305
O	26.08729839755209	6.3487871394386435	4.883409163704226
O	24.68111329364249	6.240764098519785	4.399743480849703
O	24.0647095700874	7.197898570458721	3.9332580611474652
O	23.984449879043574	4.96331747855948	4.655897801859901
O	24.856314975466116	3.788714841594227	4.3468037310467045
O	24.138530510490863	2.4845136884027275	4.510452375930644
O	24.978693684151338	1.3153020737243244	4.0775828582717555
O	26.373544841259264	1.3415258608898828	4.636332059517867
O	27.041674667433725	2.6849456063303916	4.3639382307381975
O	26.224536058975985	3.825288038037189	4.960272892196582
O	28.443911076076898	2.6430512219861804	4.9038164950683925
O	29.274371052622076	1.508607727909358	4.3818919545114605
O	28.603150930743006	0.17337221412116	4.61102353831504
O	27.217756533123968	0.2958342685340696	3.9869467724907293
O	26.732399811997208	-1.1151955231513966	4.076346840058039
O	27.981729671229935	-1.9268430130695087	3.7314260718946883
O	29.156686719955708	-0.9628532136650743	3.799334791561457
O	30.2933249763866	-1.5358550861325273	4.33913733101875
O	28.574897829615246	-0.2048190334538431	6.064066690589264
O	26.144708958238656	3.667383362387871	6.474943930501935
