97

O	0.44461748630882314	-0.9254543829264703	2.2042020689264707
O	0.02891329430882328	0.29132049107352975	2.731906178926471
O	-1.2880355126911769	0.3501210420735298	3.138014548926471
O	-1.9997707936911766	-0.7884029429264703	3.1984530389264707
O	-1.6801092036911767	-1.7233587329264701	2.1773897789264707
O	-0.5341221316911767	-1.50026216292647	1.3693399889264706
O	-1.9285139736911767	1.6291874810735298	3.193546198926471
O	-3.183447953691177	-1.0243249529264704	3.9524141489264712
O	-3.883911873691177	-1.8576409429264704	4.335325798926471
O	1.685719526308823	-0.9455668229264702	1.542684668926471
O	2.1287904963088233	0.020854732073529725	0.6206779189264707
O	1.575591666308823	1.1661875360735297	0.7514043789264707
O	3.5768372963088235	0.017667026073529768	0.5048885489264706
O	4.151482496308824	-1.0779787829264704	1.1787799689264706
O	4.134412206308824	1.1840705480735298	1.2197900589264705
O	4.266755206308823	-0.14818012292647031	-0.7542690070735293
O	3.7399077763088235	-2.57601263292647	-0.33330852907352926
O	3.4000099763088234	-1.6063060029264704	-1.2435192120735292
O	1.9409150563088233	-1.2497724329264701	-1.9795648810735291
O	4.315022386308824	-2.24239656292647	-2.307538411073529
O	1.762783286308823	0.10344451207352978	-2.310083771073529
O	1.466859606308823	0.4300137540735297	-3.599879791073529
O	0.5986229763088232	-0.3098642629264703	-4.348485591073529
O	0.7571111263088232	-1.5945379929264705	-3.9519733910735293
O	1.455107986308823	-2.09464028292647	-2.910905841073529
O	-0.5615521025911767	0.18390014207352978	-4.898642321073529
O	-1.984509773691177	2.13233986707353	1.8685710289264708
O	-3.040062423691177	1.9892759870735297	3.734822048926471
O	-0.9565109816911768	2.4927597470735297	3.7424769289264708
O	-0.8937650566911768	-8.167525432926471	8.878989618926472
O	0.9093639763088232	-11.03059013292647	10.62501100892647
O	7.749961946308824	-2.92443885292647	4.569339388926471
O	7.552609666308824	-6.684086542926471	4.120673388926471
O	4.679741926308823	-6.71994314292647	6.672321498926471
O	2.895929066308823	-3.785618752926471	4.962533678926471
O	3.232532396308823	-5.673002612926471	1.633519778926471
O	1.707360616308823	-8.77540690292647	3.103447178926471
O	-1.0832985696911768	-6.69009158292647	4.567584038926471
O	-1.6392366736911768	-5.3290533229264705	1.0553326089264705
O	-1.9759239436911766	-8.72185772292647	-0.40744883507352925
O	-4.473217283691176	-9.665398132926471	2.316207838926471
O	-6.474207893691176	-6.431845272926471	2.1064336689264707
O	-6.715717483691177	-6.7559084229264705	-1.6670858510735291
O	-8.568832993691176	-10.04706613292647	-1.3249975250735293
O	-11.349056783691177	-5.236480632926471	-1.3753224530735293
O	-12.149229883691177	-7.42281075292647	-4.383891891073529
O	-8.278872113691177	2.51190383707353	-7.012933641073529
O	-6.970217063691177	0.0567395190735297	-4.36861226107353
O	-4.364029843691177	2.4303991970735295	-2.9620374510735292
O	-6.759751553691176	5.279508697073529	-2.431440721073529
O	-9.392794233691177	2.92866208707353	-1.0106591100735294
O	-7.042352273691177	1.3466092660735298	1.4304870089264705
O	-5.493011583691176	4.69225128707353	2.5744021589264707
O	-8.941579333691177	6.17211209707353	3.128609398926471
O	-10.079631313691177	3.20904341707353	5.223575808926471
O	-6.819775073691177	3.1498190970735296	7.203978058926471
O	-9.459982253691177	3.1913913170735295	11.43531070892647
O	-1.4320500436911767	5.027919857073529	11.790234408926471
O	-3.598106233691177	1.9787988390735296	12.53797780892647
O	-2.684343283691177	-0.19743075292647028	9.55784060892647
O	-3.8696776336911767	-3.2774878429264707	11.382795908926472
O	0.7362791363088231	-3.1786012329264706	12.803266508926471
O	11.577401316308823	5.536021437073529	5.258111228926471
O	8.028502226308824	6.653564667073529	4.494878418926471
O	7.757833816308823	9.47334831707353	7.011834218926471
O	6.604349806308823	12.15490956707353	4.574663978926471
O	3.944169446308823	9.89655296707353	3.154530088926471
O	2.867389456308823	8.88894139707353	6.6754572089264705
O	-1.8618066736911767	9.92267909707353	5.695264308926471
O	-15.179039783691177	5.04673548707353	0.2944355899264707
O	-13.347195583691176	6.296782207073529	-4.28356314107353
O	-5.5925030736911765	11.32691336707353	-4.758260591073529
O	-1.6029599526911769	10.97171541707353	-1.1499147900735291
O	-2.2637231236911766	7.8614054770735295	-3.2037905310735293
O	0.02789647930882322	9.163574767073529	-5.964325151073529
O	2.8928506063088233	9.62853635707353	-3.4998131410735294
O	2.4045640163088233	6.08477021707353	-2.296196551073529
O	2.309322096308823	4.9101397070735295	-5.942084641073529
O	5.677371256308824	6.47830590707353	-6.584371671073529
O	7.1508544463088235	5.1102505170735295	-3.372630601073529
O	6.106162986308823	1.5576618450735298	-3.909666271073529
O	7.057795566308823	1.5524368480735298	-7.58571743107353
O	10.728097616308824	0.10924942807352978	-3.798109941073529
O	9.712780416308824	-2.76482221292647	-6.135974441073529
O	13.332931516308824	-4.628591142926471	-3.698989261073529
O	16.954088016308823	-3.7413296229264708	0.23510143892647073
O	11.913401716308824	-6.18373602292647	0.8757360389264707
O	6.559079596308823	-8.249164532926471	-2.399818421073529
O	-0.5237353106911767	-9.85944323292647	-6.581386771073529
O	1.2809125363088234	-6.786430032926471	-5.261560881073529
O	4.254141986308824	-7.28398557292647	-7.62164809107353
O	1.872581906308823	-7.74937128292647	-10.54790409107353
O	-0.28241649069117675	-4.707507362926471	-9.86484558107353
O	2.677477616308823	-2.4548062829264703	-9.096060301073528
O	4.561790586308824	-3.438799172926471	-12.25442809107353
O	0.5408231263088231	1.4075157830735296	-11.20814969107353
O	2.903691506308823	2.55546135707353	-13.98624479107353
