96

O	4.607896352049999	1.4922271772083335	1.3109269040124998
O	-2.3565585379500007	1.7056937402083334	-1.1568306449875003
O	-1.1247010859500008	0.9725265179083336	-1.1036980269875003
O	-1.9208808079500008	-0.22585011379166653	-1.4701686209875002
O	-3.194464507950001	0.016609607208333488	-2.3553162759875
O	-3.190655617950001	1.4161536372083336	-2.3778386959875
O	0.11716445204999903	0.3495415642083335	-0.7379278790875002
O	0.39458421204999916	-0.17330396379166657	-1.9151657159875004
O	-1.059247930950001	-0.6403802937916664	-2.2269900759875
O	0.5118310020499992	0.3231635822083335	0.4641201240124998
O	1.4702386620499992	-0.5598498537916664	0.9208269240124997
O	2.6693877520499996	-0.023672323791666394	0.4093349040124997
O	3.548958442049999	0.1923944212083335	1.3536172040124996
O	3.493261872049999	-0.5178388537916664	2.6196934840124997
O	2.3986942420499995	-1.3517077037916665	2.8582575340124996
O	1.512290332049999	-0.4681692337916664	2.3789770340125
O	3.0330269320499994	0.20835700420833347	-0.9789356679875003
O	-3.310723437950001	-1.1131598937916665	-3.0137656459875
O	4.2543540120499985	-0.3331192337916665	3.8191546840124992
O	5.152961412049999	-0.8169487337916664	4.4119004040125
O	-1.262198460950001	0.43196294220833353	-3.3396096959875003
O	-2.258650987950001	0.8739010612083336	-4.1267467959875
O	-0.6993129119500009	1.6009495982083335	-3.0965841259875004
O	-0.8361420742500009	-0.4676805337916664	-4.137833045987501
O	-1.639540019950001	-1.3974541637916666	10.336846704012501
O	-4.568066377950001	-1.5028387437916666	12.7601968040125
O	-5.989952957950001	1.8289199002083336	11.6025089040125
O	-12.084425307950001	4.046275386208333	1.7421380840124998
O	-10.707750077950001	3.8548093662083334	5.2836102240125
O	-7.205001217950001	4.963749746208333	4.451786974012499
O	-6.747491537950001	2.5610125462083335	1.4454641540124995
O	-8.363719647950001	-0.3045287037916665	3.2610763440124995
O	-5.846681357950001	0.21863758920833354	6.1105465140124995
O	-2.949617647950001	0.3784883732083335	3.6967134340124996
O	-4.1621110979500004	-2.8531142137916667	2.0425373740124995
O	-4.258492577950001	-4.5160998237916665	5.452661514012499
O	-0.7085790279500008	-3.1876046637916664	6.223636644012499
O	0.41216119204999924	-4.600047203791666	2.9412022740124995
O	-1.100101493950001	-8.119945123791666	3.9017432940124994
O	0.634710752049999	-7.9841591537916665	7.277024654012499
O	3.9523011820499994	-6.734896553791667	5.8706945240124995
O	3.9100758220499987	-9.462502623791666	3.2269913740125
O	3.9908780220499986	-12.121883323791666	5.9534723540125
O	8.708026422049999	-9.989375823791665	3.9472892740124994
O	7.28452251205	-6.791622973791666	-2.6737003359875002
O	6.136422812049999	-3.3278525637916667	-3.7306336359875005
O	9.66933249205	-2.0266167437916667	-4.2657089259875
O	10.81444649205	-3.6316022637916667	-1.0322145559875002
O	7.962432372049999	-2.1548126837916666	1.0111221740124998
O	8.368391522049999	1.3162395742083335	-0.47627806698750025
O	12.10563099205	1.3217446042083334	0.11606683701249976
O	11.665321892049999	0.2842741292083335	3.7519132940124997
O	8.857713742049999	2.7872251162083335	4.281617014012499
O	11.32851069205	4.545521256208334	8.2629298240125
O	5.6287378820499985	12.599279276208334	6.4794825840125
O	5.228497642049999	9.050341816208334	5.1636994540125
O	5.648480312049999	6.631723956208333	8.0735480540125
O	3.7358955620499987	3.6035655062083336	6.7305033840125
O	3.3549510620499987	2.3145207362083333	10.2767681040125
O	-0.45884150695000087	3.8695722862083333	13.617781604012501
O	-0.5964925779500009	5.0572851762083335	10.0326980040125
O	1.512665822049999	8.144981536208334	9.4286313040125
O	0.5508845720499991	10.194064846208335	6.3720281340125
O	-1.694158329950001	12.163819976208334	0.9917948340124997
O	-5.8521682779500015	8.944912896208335	-0.3211484079875002
O	-6.089319927950001	10.110980836208334	-3.9750183759875
O	-2.4372385579500007	8.985818036208334	-4.0977885859875
O	-0.7888301319500008	12.400887776208334	-3.7835746759875004
O	1.4535563020499993	12.149117676208334	-6.857568475987501
O	2.6274947720499995	8.660719576208335	-5.787852655987501
O	3.1962238120499986	9.862662526208334	-2.2256303259875003
O	16.97681849205	-3.568494983791666	0.44492049401249967
O	7.891313012049999	4.511658806208334	-8.0609949959875
O	6.950605082049999	0.8717340992083336	-7.650866045987501
O	5.517625472049999	0.8080283142083335	-11.1928069959875
O	3.270828442049999	3.8012952662083332	-10.4434617859875
O	2.072962142049999	2.0845186162083333	-7.3766837059875
O	1.4842097420499993	-1.1801066337916666	-9.3202754859875
O	-0.7217693969500009	0.7182735552083335	-11.7484650959875
O	-2.598080427950001	2.4479394562083336	-8.9051115459875
O	-3.3878027179500005	-0.6857048837916665	-6.9643550259875004
O	-4.211385647950001	-2.6990653837916665	-9.962973935987499
O	-8.050268787950001	0.2377903462083335	-7.4364799859875
O	-8.51658405795	-3.549406113791666	-7.1957400859875005
O	-12.575260307950002	-1.8408225737916668	-5.485274895987501
O	-15.326738107950002	2.6329422062083334	-4.1063577859875
O	-12.00470570795	-0.43033442379166653	-0.7367224408875003
O	-8.37289346795	-5.929969433791666	-0.43192950398750024
O	-3.096210117950001	-12.452549323791665	-0.46069077398750025
O	-3.112305877950001	-8.901983863791665	-1.7947526839875003
O	-6.0092689779500015	-9.580123423791665	-4.1867443759875
O	-4.25396080795	-12.728229723791666	-5.423361505987501
O	-0.8548615935500009	-11.173189223791665	-6.033312885987501
O	-2.308625787950001	-7.992692193791666	-7.5798192059875005
O	-4.558042017950001	-9.933315123791665	-9.9860969459875
O	1.3047144320499993	-7.6123880337916665	-10.8532517959875
