21

O	26.885086618342115	5.043211301898092	4.852712981304805
O	26.025042911183224	6.299339572359689	4.933442764340057
O	24.70880787373961	6.100294978801433	4.301011174053898
O	23.95491866083364	7.068704320305889	4.04899977836194
O	24.27410127404212	4.738800311180138	4.354861296892624
O	25.06018880452068	3.6222850792629133	4.393348040090544
O	24.179089795199634	2.292654653262387	4.52350700064272
O	25.077984862279664	1.1991251000826724	4.061739353179962
O	26.457753425476245	1.3335873221928893	4.6243675058986975
O	27.11556286026554	2.663421579318194	4.369577106451395
O	26.27221723465969	3.704312927128408	5.129059571409192
O	28.52318134275668	2.6362235066272737	4.888973822052238
O	29.339182852998697	1.4738922551785585	4.405568441044624
O	28.674466309402344	0.14601779419988836	4.637516477901031
O	27.292713585981843	0.2663246532184844	4.0005497772031635
O	26.794620652088707	-1.138889196776604	4.105002019998118
O	28.045639737652795	-1.9422886413636629	3.749507457336214
O	29.22161568346608	-0.9858536051833349	3.8145181720686487
O	30.37011933746187	-1.5517784880411083	4.330450033376115
O	28.611700668114047	-0.2002063767487694	6.098831882102563
O	26.29378893182447	3.1721784204887404	6.548573686732393
