153

O	-1.9449205562899994	0.0554383367240007	1.6007588509499997
O	-1.7544209062899994	0.28557555172400073	-0.07566560805
O	-2.2552495762899993	-1.3804909532759992	1.88503972095
O	-2.422248486289999	1.1865156457240007	2.4382016109499998
O	-3.1017461762899994	-0.30271322927599925	0.58734989095
O	-0.13701794828999936	0.10915675372400072	2.1145405509499997
O	-0.9268436502899994	0.4734606777240007	0.6962089909499999
O	1.2003822237100006	0.1525214769240007	2.57040111095
O	2.222594463710001	0.8195793307240007	1.79934820095
O	1.7872675337100008	-1.2934213732759992	2.4608465109499997
O	0.9207863937100005	-0.9964225132759992	1.1385640809500002
O	3.1879431837100007	-1.3080227732759993	2.64457907095
O	3.952765853710001	-0.33931545827599924	2.2318292509499997
O	4.0761288137100005	-2.2344479732759996	3.3519222909499997
O	-5.2104789362899995	0.8199375797240007	-5.05970865905
O	5.43832368371	-0.7845665432759992	4.783408590950001
O	-9.66758789629	0.5554111447240007	-7.57807854905
O	-1.6383450362899994	1.7870253767240007	0.55076370595
O	6.35529965371	-0.014929842275999305	5.53063031095
O	-9.05873365629	1.6651842467240008	-6.96182093905
O	-3.7909461762899994	0.4505314487240007	-5.3802756690499995
O	6.42813725371	0.03255032472400071	6.872084660950001
O	-1.6767862462899994	-1.2384182932759993	-0.17591144605000003
O	-3.299391506289999	1.0659377637240006	-6.565787139049999
O	-3.0941894362899993	1.0833498727240007	-4.15858424905
O	7.230940753710001	0.2296105435240007	4.933228580950001
O	-7.83895809629	1.5227962167240008	-6.2485555990499995
O	-3.0855489762899992	2.3594641167240007	-4.63395355905
O	8.40445004371	-0.6129445472759993	5.158181770950001
O	-7.38630820629	0.1981123213240007	-6.25701718905
O	-4.1205894362899995	1.2452646247240007	-3.07280930905
O	7.52459224371	-1.8616009532759994	4.771899400950001
O	8.51468344371	-0.7174176912759993	6.403416930950001
O	-5.23355947629	0.7046406817240007	-3.64338890905
O	-7.87620723629	-0.8693328432759992	-7.05860324905
O	-3.7393775362899992	0.4205739237240007	-1.90373172905
O	6.792502933710001	-3.0719999432759995	3.01753168095
O	7.61838688371	-2.0715404832759994	3.51718420095
O	-2.6254837762899994	0.8646920637240008	-1.27088900505
O	8.08796603371	-3.0085436132759993	2.12759642095
O	-9.32440779629	-0.7692793332759993	-7.1373877090499995
O	-10.07902750629	-1.7631979332759993	-7.963986579049999
O	7.5111875037099995	-3.3079817932759994	0.7799011609500001
O	8.69838088371	-3.8671900132759998	-0.19020175205
O	-7.144635056289999	-1.9322140332759992	-6.41844651905
O	6.50637055371	-3.0214551632759994	-0.10031197305
O	-5.900655286289999	-1.4171649132759991	-5.82706852905
O	7.230486953710001	-3.7253527732759997	-1.30338636105
O	5.825671363710001	-2.8529378532759995	1.0084550709500002
O	5.94762681371	-2.2251754532759995	2.27570932095
O	-6.08435400629	-0.0067753892759992995	-5.76982262905
O	6.12199121371	-1.8957640132759994	4.668832510950001
O	5.38846389371	-2.2767494832759994	3.45352676095
O	-11.32454277629	3.0553848267240005	-2.7602423590500003
O	-7.55165181629	3.1654687067240004	-2.81282567905
O	-5.0259225462899995	5.9199924667240005	-2.47465368905
O	-2.3633050562899993	4.436779466724	-0.58810206805
O	-1.4883450132899994	5.591429646724	2.9093694809499997
O	-4.612353576289999	3.9318003067240004	4.48690661095
O	-7.048335596289999	5.4139325067240005	1.9914164409499997
O	-5.315516166289999	8.785556786724001	2.14052877095
O	-5.3033856862899995	8.789317066724001	5.97486040095
O	-9.00043720629	7.867690906724	5.98277720095
O	-9.80770512629	10.548541596724002	3.40798469095
O	-10.542859276289999	8.935607716724002	-3.3884575790500002
O	-10.703599076289999	6.564099716724001	-6.33222316905
O	-7.191596576289999	5.4125650567240005	-7.14794445905
O	-6.54001461629	2.7439737567240003	-9.86244429905
O	-3.026443176289999	3.9379782867240007	-10.743026259050001
O	-0.18519115928999935	7.869437706724001	-8.85854274905
O	-0.9546032732899994	7.700375866724	-5.146071119049999
O	1.0774560337100005	5.815717076724001	-2.60493597905
O	0.3286552437100006	2.2452661867240007	-3.58404959905
O	2.846586473710001	-0.04907029827599929	-2.11288565905
O	4.91256909371	3.0888892067240006	-1.30302552805
O	6.65840473371	4.487216626724001	-4.3320738390499995
O	9.46321029371	7.0271450767240005	-4.31815938905
O	11.35675902371	7.219189996724	-7.594577559049999
O	13.15082512371	10.488539596724001	-8.37937937905
O	15.162907123710001	9.893239976724	-4.523284719049999
O	14.740553623710001	6.214435546724	-3.5855375090500003
O	11.96190922371	4.265261356724	-1.93655136905
O	11.13617302371	1.2725537667240008	-4.12521951905
O	8.314983993710001	0.1854256163240007	-1.76214349905
O	7.52289979371	0.7143961367240007	2.06406859095
O	10.33578592371	2.7609138967240003	3.52153567095
O	11.30532552371	1.9929725167240007	7.113421170950001
O	9.64986132371	3.3640248267240005	10.162290140949999
O	2.719331853710001	7.1179362567240005	10.68847264095
O	12.25363702371	-11.777605003276	5.57030355095
O	9.27411651371	-10.873703003275999	7.82059707095
O	6.47174623371	-11.952875803276	5.5150726609500005
O	8.066743253710001	-12.625112203275998	2.03221801095
O	14.15135292371	-0.4372128412759993	10.64803674095
O	14.46160202371	5.264678876724001	10.296270640949999
O	13.42415122371	6.401736656724	6.85322162095
O	10.978891723710001	9.256194296724	0.5846239509500001
O	7.81801414371	7.713668046724001	2.03688419095
O	5.8500528237100005	8.493216886724001	-1.16895879205
O	0.3952855407100006	10.025904146724	0.12659267494999993
O	-8.32005586629	12.367514796724002	-5.54902400905
O	-9.214409856289999	10.771345696724001	-8.872642489050001
O	-9.991913766289999	1.5643165667240007	-10.96167675905
O	-13.27279337629	0.6706883077240007	-9.16714742905
O	-12.30802617629	-0.19612753427599927	0.9010887209499999
O	-8.67708035629	0.6735599137240007	1.45954806095
O	-7.2255176162899994	-2.0681163032759993	-0.7756174330500001
O	-5.50357271629	-5.4327475132759995	-0.015076601050000027
O	-8.25636379629	-7.862754373276	0.93511086095
O	-7.69432427629	-10.104356303275999	-2.11638657905
O	-7.89477806629	-7.134416573276	-4.48160586905
O	-11.53004067629	-6.812168743276	-3.43042892905
O	-11.94949767629	-9.569579743275998	-6.02637305905
O	-11.483545176289999	-7.001202633276	-8.78056276905
O	0.3815097877100006	-11.297744903275998	-0.8246670380500001
O	4.051371903710001	-12.229425503275998	-0.5982405040500001
O	9.70689212371	-9.652167023275998	-3.2501970790500003
O	12.075218223710001	-7.654390963276	-5.43356113905
O	13.545928323710001	-4.585203163276	-3.76217636905
O	11.138267423710001	-3.0581758432759996	-8.32899263905
O	9.48292198371	-6.457060383276	-8.551794939050001
O	6.206962783710001	-6.091877483276	-6.6837124890499995
O	4.85591304371	-9.448881573276	-7.908078179049999
O	4.062551963710001	-7.861986153275999	-11.26897795905
O	1.7330591837100007	-5.195281933275999	-9.84796097905
O	-1.9182083862899995	-5.692373153276	-10.80528675905
O	-3.0075062562899992	-3.2887365032759996	-8.10124616905
O	-0.8691181062899993	-4.540539073275999	-5.296526979049999
O	-0.6666686462899993	-8.322264663275998	-5.85561735905
O	2.703153113710001	-8.527307253275998	-4.14976772905
O	4.54104789371	-7.148905103275999	-1.1240827370500002
O	4.800843593710001	-6.537573143275999	1.71575986095
O	1.4924077337100006	-7.6317945332759995	2.7945787909499997
O	-1.0959949992899993	-10.379496503275998	2.89200923095
O	-11.47389047629	-9.004642533275998	7.70195442095
O	-12.78995767629	-5.674957923276	9.01771553095
O	-12.63852307629	-1.851797603275999	5.5328000709500005
O	-9.31299578629	-0.1353601182759993	5.894967550950001
O	-5.95729511629	-1.1985267932759993	4.61064206095
O	-2.9344241262899993	-2.2260877032759994	6.59980589095
O	-4.1735036362899995	-5.8652158132759995	6.726886850950001
O	-6.99032901629	-4.772097633275999	9.074445370949999
O	1.5474420537100004	-5.006513903276	7.18408067095
O	3.370581413710001	-1.6582131332759993	7.548023310950001
O	2.7542547337100007	1.9622430667240007	6.77890221095
O	1.8609474937100006	2.3517331567240007	10.471676140949999
O	-0.8904406782899994	-0.24697607427599927	10.18777844095
O	-2.210502806289999	1.5405311867240008	7.113627360950001
O	-2.674139146289999	4.720625186724001	9.114989540949999
O	-6.73994040629	1.1347252067240008	9.75531084095
O	-7.638939006289999	4.149441386724001	7.6013249509500005
O	-8.36506588629	6.355057696724001	10.58031434095
O	-12.445895276289999	2.8983858267240006	9.29195073095
