53

O	56.098776244331205	139.84745081928662	18.954059296616112
O	55.9730423540683	140.03427854013898	17.26617938007229
O	54.74008807998318	139.63937705368127	19.54540050075247
O	57.347027761156525	139.28296704388652	19.53000584450273
O	55.446763814677574	138.72768647575663	18.05154980300346
O	56.3931074289998	141.64256940232528	19.429756227606795
O	56.38313009192725	140.8399018422002	17.972419052022012
O	56.6308053437641	142.9696423681558	19.854851057175257
O	57.18685018200238	143.94715871601326	18.949487836428187
O	55.24178582126497	143.6602945547866	20.056869934357103
O	55.18157575584584	142.7852647919925	18.70849076819115
O	55.368611286578464	145.05684655143364	20.228395305653194
O	56.277423825178545	145.75299036094623	19.6094013163843
O	54.68427329502855	146.0039217676408	21.112817062272207
O	55.162745226458405	136.58876290693922	12.312150150820571
O	56.50461368906729	147.24630203526826	22.18507457445927
O	54.03707930734995	132.18275782804446	9.946145733602407
O	57.57897450415277	140.03657122929042	17.55116278823639
O	57.482164814634075	148.09926598606532	22.74038725706896
O	55.295100565013655	132.70489804721146	10.302271234186206
O	54.83616114233203	138.0337968107705	12.068188664090773
O	57.82455221604645	148.15771543397523	24.039007288009163
O	54.47326411639136	140.22258952016875	17.498209164062235
O	55.21370493017177	138.48911584524961	10.773610108441526
O	55.76749688915779	138.6731981926908	13.118064198463216
O	57.65394536083805	148.95972324949997	22.097315795214325
O	55.39928468609252	133.9260083768878	11.019843143320504
O	56.90736570519812	138.59345808572792	12.377214146334616
O	56.967262442786726	150.1891812898966	22.490414471631624
O	54.14053822026156	134.4732102997352	11.29530336648283
O	56.08642548885874	137.6291031574848	14.150910108073269
O	55.60432637573103	149.40493984905433	22.391029978762333
O	57.14355540388143	150.2966753660273	23.727767476823878
O	55.35596986528638	136.56270427856893	13.719904712913138
O	52.89212918354907	134.06814081350493	10.748152528971886
O	55.564630216048975	138.05949125389935	15.467980885523808
O	53.99263412309907	148.77629267815726	20.94670405047726
O	55.13462929615378	149.52372021618038	21.211005338476205
O	56.214703724222005	139.1332822560592	15.98068690442347
O	53.95501859693108	150.0708891945926	20.054044513982788
O	52.86781857610478	132.6171751445251	10.660916184523227
O	51.66643972537983	131.94297493341338	10.075481547352304
O	53.329580979853134	149.5280802050963	18.807928388494084
O	52.660577885631824	150.76031133992765	17.972893714413395
O	52.04906280325966	134.86941204648033	11.597810346685483
O	53.34504651700829	148.51228891839617	17.894441304295764
O	52.76859617832167	136.06815456532505	12.053636285969503
O	52.451206641761026	149.29498813441296	16.866999527921607
O	53.70036525589195	147.8123191513996	18.945585798637858
O	54.5951307759624	147.87843867635067	20.04554714763828
O	54.14078984374409	135.78261065279128	11.805100291001187
O	55.44738110704874	148.0093423908119	22.308838342780767
O	54.75993955468505	147.31502668276914	21.21087198028623
