88

O	2.336501757148649	0.7588945792810818	0.8498851737297298
O	1.0449963571486487	0.27383525828108185	0.3594192537297298
O	1.7251480771486487	1.791575528281082	-2.54778125127027
O	-2.4896306928513514	-2.9584500117189183	1.7436010287297297
O	-2.3310303028513513	-2.423246061718918	0.5191114177297298
O	-1.5115763178513513	-2.680373971718918	2.65154570872973
O	-1.3659959228513512	-1.531937841718918	0.11003941772972983
O	-0.1669244828513512	-0.7609106117189182	3.43245176872973
O	0.8520758471486487	0.03781714028108185	2.69334052872973
O	0.6699079671486488	1.3095998012810819	-0.5212781032702702
O	1.8365924471486488	1.845511918281082	-1.2392661612702702
O	-0.8596458308513512	-1.4834958717189182	2.36811383872973
O	-0.7307956328513512	-0.8993557917189181	1.1438111687297297
O	0.15514470714864892	0.23851291428108184	1.3858062487297298
O	3.9453741471486485	8.212645108281082	-10.183551071270271
O	7.3745718571486485	7.084799028281082	-8.97928176127027
O	10.55958425714865	7.437208208281081	-2.54130237127027
O	5.637418637148649	7.879512228281082	-4.9379623412702704
O	5.519668927148649	4.158156408281082	-5.69251631127027
O	8.02903757714865	2.2912386382810817	-3.52552677127027
O	7.063513637148649	-1.1718622417189182	-2.28448880127027
O	7.569467367148649	-4.382359461718918	-4.16467468127027
O	7.030167527148649	-7.943571171718919	-3.02547373127027
O	6.671855137148649	-11.636866861718918	-3.83782438127027
O	4.663099537148648	-12.471030261718917	-7.0194131112702705
O	5.601985437148649	-9.111242071718918	-8.579856501270271
O	11.15858325714865	-3.4223533217189184	4.98562715872973
O	11.54403355714865	-3.7196667617189183	8.76030051872973
O	-0.27589383785135113	-9.773758461718918	9.05280703872973
O	-3.5715514728513513	-9.505603471718919	10.980464128729729
O	-11.15697620285135	-2.215830611718918	9.89245199872973
O	-9.457107402851351	1.3610028402810819	6.7153462487297295
O	-8.436682832851352	-1.469279591718918	4.38416124872973
O	-10.33514041285135	0.02189205028108182	1.45016048872973
O	-8.961301832851351	3.526193798281082	2.12461746872973
O	-5.387553832851351	2.2214325282810816	2.30745603872973
O	-5.5950883328513505	-0.08630213971891815	-0.6575549662702702
O	-7.2489833828513515	2.353869538281082	-3.17710076127027
O	-6.922902702851351	5.853766168281082	-1.58905999127027
O	-12.61549204285135	-3.2603426717189183	-5.538492451270271
O	-13.12247514285135	-7.0341929917189185	-5.34322910127027
O	-11.370286042851351	-7.394848041718919	-8.70119634127027
O	-8.56732548285135	-5.112795311718918	-7.519756371270271
O	-7.819100782851351	-7.224415301718918	-4.4496473212702705
O	-5.788993112851351	-9.481246021718919	-9.11221193127027
O	-3.107682982851351	-8.709188681718919	-6.510879321270271
O	-0.9800271368513511	-11.005796161718918	-0.27033068127027016
O	-2.027707823851351	-7.343812881718918	-0.6401229972702701
O	-1.9279418008513511	-6.5357653517189185	3.09147302872973
O	1.2298922371486487	-8.314009051718918	4.11634839872973
O	4.68721781714865	-6.895187801718919	4.551220648729729
O	6.466554487148649	-10.247682461718918	5.00915904872973
O	5.314694137148649	-12.415607461718919	2.0528224487297297
O	3.2449394671486487	-9.57652986171892	0.6132787207297299
O	3.1777953971486492	-6.391045241718919	-1.4093715012702703
O	5.095067477148648	-4.384626931718918	1.1872957687297299
O	7.99646643714865	-6.796821461718919	1.6894169887297297
O	-7.436516202851351	8.59905818828108	-9.434321121270271
O	-7.361278162851351	8.453972218281082	-5.64032274127027
O	-6.126402722851351	11.011178438281082	-3.13204889127027
O	-3.013561762851351	10.638748638281081	-1.00690454827027
O	2.864676087148649	10.38048998828108	1.32234700872973
O	-2.5985629028513513	0.48951581048108184	11.76654152872973
O	-8.135472762851352	3.698114618281082	13.08809662872973
O	-4.254794562851352	12.064188538281082	9.944749428729729
O	-2.382481802851351	8.866518648281081	9.00970023872973
O	-4.101001962851351	5.456688398281082	9.04796607872973
O	-1.019763525851351	3.4011672882810817	8.24703400872973
O	2.725278327148649	3.5902570282810817	8.64302578872973
O	5.851168517148649	1.608349828281082	7.967288188729729
O	9.446892357148649	1.954803398281082	9.13598347872973
O	11.292884457148649	3.793901028281082	6.31168453872973
O	14.76404675714865	3.555233458281082	7.89529790872973
O	8.473677897148649	6.637747588281082	9.62033005872973
O	6.474257387148649	6.630577608281082	6.36228343872973
O	2.7721016171486488	7.3687736182810815	6.630541978729729
O	-0.08108260285135116	7.829767048281082	4.17559345872973
O	-2.7379104428513514	10.502206938281082	4.568216788729729
O	-5.647612082851351	8.897343048281082	2.73226710872973
O	-3.733501962851351	11.474975938281082	-8.04638354127027
O	-2.272306972851351	8.273447888281082	-6.559358261270271
O	-1.8870426858513512	5.416852888281082	-6.312211411270271
O	-4.111503792851352	4.5400950282810815	-9.19583167127027
O	-0.9683561578513512	-6.067735151718918	-9.69263672127027
O	-2.252120602851351	-0.1749307127189182	-9.762280921270271
O	1.353225427148649	-1.046731901718918	-8.98070100127027
O	4.771754007148649	-0.740639531718918	-10.58734047127027
O	4.42653711714865	-4.472012231718918	-11.39218817127027
