24

O	30.681807491245117	8.925237800654177	21.6713941158186
O	29.686930147980874	9.80167660052938	22.118462279718972
O	28.952813586879827	10.469265267105257	21.164044483644194
O	29.490438902734518	11.302981532095629	20.229068210117475
O	28.815088998228482	12.232517282023075	19.438873200669946
O	27.533646077783832	12.417392733200906	19.938665660156264
O	27.00578114389041	11.148198692841202	20.189933626507976
O	27.61771480747791	10.202143968220234	20.95921005103757
O	25.87611535933307	10.5924585375499	19.362496104302522
O	25.67747101010351	11.200606726508756	18.182733533645145
O	24.46601871234444	11.770213115012222	17.773324371140852
O	23.48042591469609	11.65691761766966	18.766151341489994
O	23.77177190255004	10.984858836376326	19.98697802267556
O	22.543821338036224	10.653963431025288	20.735541447217333
O	21.617375675577346	10.041030939522177	19.690121731490233
O	21.914086208579892	11.997295568934053	20.9136458663203
O	22.491990061270947	12.590933232188895	22.18461652895171
O	22.38256600344158	13.839739552846712	22.081078051644333
O	22.78251926949891	11.641848837761337	23.14353641423917
O	22.956820515661573	12.194207248101936	24.43416037788412
O	22.697993667447648	10.240155942276079	23.060528572906748
O	22.61311955821955	9.512990419178484	24.30137085016156
O	22.651457951733263	9.781933657665387	21.846822646092953
O	24.854157900524395	10.204947600279471	20.165641257890663
