24

O	21.833761746388305	12.840060524046233	24.18098049913481
O	22.045084464863486	10.741689958664484	25.293981557727427
O	28.493877993948665	12.308048392833317	21.21955832830915
O	21.626421259976098	12.033784649869164	25.294959823906147
O	21.580622838975657	8.873749782181642	24.093496244195713
O	22.229945274464345	10.178726934359142	24.085435389012368
O	25.818936820707926	12.281407749977324	21.475425572643385
O	21.854229887716528	10.891513801216723	22.89079367168838
O	21.47152846740193	12.234506831790863	22.968666569734573
O	21.517206596016983	10.202734178124583	21.67549894192169
O	22.037037520622835	10.075958377176008	20.366956307704562
O	23.347869924717827	10.351736849141437	19.8598484442173
O	23.76572452035674	11.49129967285548	20.44969380467856
O	24.386470619460756	12.52849326724618	19.80735464066028
O	25.11047003726698	12.179737881165355	18.647962879772315
O	24.738100857770778	11.042059560581853	17.934512490928448
O	23.85177489869784	10.274190896940684	18.601502418669952
O	25.26413899405331	13.330341820515084	20.677637930723236
O	27.765860376830535	11.36817278427927	20.629378272996203
O	26.265409367551598	11.348836615920533	20.48179218653649
O	28.26070310673817	10.216923615250094	21.150431153008636
O	29.63310855436702	10.540039060214315	21.272744439695586
O	29.599106197653647	11.810068864754253	21.775546712832362
O	24.75708274149592	12.150322318662795	22.38416778716209
