87

O	3.532838200046779	0.1132551413423731	4.819924656759322
O	2.0151843800467795	1.307806791342373	3.527743216759322
O	3.5753157200467793	-0.6946955206576269	5.803950776759322
O	2.482867230046779	0.01482794834237311	3.790610926759322
O	3.7660616000467795	1.5323165113423731	4.861727546759322
O	4.2593503500467795	0.2459681135423731	-1.4107617532406782
O	2.7300624400467792	2.219513331342373	4.149268636759322
O	3.0227968200467794	3.5770379113423734	3.718547506759322
O	5.14390482004678	1.932208481342373	5.030095746759322
O	1.1241084700467794	-0.5527218966576268	4.342362226759322
O	1.5054213500467792	-1.414535868657627	5.275163356759322
O	0.9019785290467793	-2.545511608657627	5.715384496759322
O	0.019274507846779317	-3.0380062386576268	4.816325556759322
O	-0.34748400195322066	-2.446721568657627	3.739748456759322
O	0.27958046404677933	-1.238962988657627	3.449902276759322
O	2.8529938200467795	-1.086570278657627	2.9448304167593222
O	2.8600926400467794	-2.2805662886576266	3.691286356759322
O	2.800323810046779	-3.554894628657627	3.1987026067593223
O	2.0872699100467793	-3.599133638657627	1.9827848467593219
O	1.8264303900467793	-2.4974408986576266	1.221215319759322
O	1.9634954400467794	-1.2660374186576269	1.904344826759322
O	4.99939933004678	-1.5563794386576268	0.19668102775932195
O	2.9092607100467793	-1.523536128657627	-0.7230838932406781
O	2.7545907800467795	-2.625285888657627	-0.00361536524067807
O	3.8134206500467793	-3.5158871886576266	-0.193307496240678
O	4.99975133004678	-2.9789718286576266	0.343153138239322
O	4.18475446004678	-0.9621239186576269	-0.774308933240678
O	3.2015172400467793	0.4967942873423731	-2.347753023240678
O	8.73438871004678	1.168749359342373	-6.843671143240678
O	9.650007640046779	-2.1437289986576267	-5.303231123240678
O	6.150216670046779	-3.6731800486576267	-5.2871419632406775
O	4.01782173004678	-0.559192432657627	-5.479687293240678
O	1.7971145200467793	1.292492241342373	-7.950301073240677
O	-1.8630862899532208	0.3227243371423731	-8.239610033240679
O	-6.200799569953221	-3.8893762686576268	-8.281668013240678
O	-5.49196963995322	-1.526909228657627	-5.424785193240678
O	-2.2387153399532207	-0.12921364765762688	-4.117160213240678
O	-2.126265689953221	3.7071742613423733	-4.183858273240678
O	-0.8511995009532207	4.644907911342373	-0.668205993240678
O	-0.36901062595322065	8.170093781342374	0.46663165275932195
O	1.1297954200467792	6.910668231342373	3.7156590467593222
O	-2.0112761899532208	5.339612751342373	5.099507746759322
O	-5.75969839995322	6.143205251342373	5.476133006759322
O	-7.52005316995322	2.7479541613423732	5.189146476759322
O	-9.24006640995322	1.304921091342373	2.152873646759322
O	-8.60292804995322	-2.412438308657627	2.737733916759322
O	-9.01733265995322	-5.314075998657628	0.32614557495932195
O	-3.5582581199532206	-3.187835498657627	11.743080576759322
O	-0.05006467775322068	-4.353182588657627	12.860522576759323
O	-0.07063392791322068	-7.178057968657627	9.760890256759321
O	-3.603975849953221	-7.545479258657627	8.414260946759322
O	-6.89000027995322	-8.185864638657627	10.207497076759322
O	-13.99018184995322	-1.080259278657627	3.261922376759322
O	-11.94083384995322	-3.2195054186576266	5.563944926759322
O	-2.7484484599532206	-11.241273258657626	6.907175986759322
O	0.9494423200467792	-11.793058358657627	7.640711816759322
O	3.591819660046779	-10.547796758657627	5.187621976759322
O	1.0121555500467794	-8.245082058657626	3.7043131067593222
O	0.3221173290467793	-9.377113038657628	0.20411028775932197
O	3.373157280046779	-9.372613658657627	-2.101125083240678
O	3.7131144500467794	-12.308940958657628	-4.4567016232406775
O	3.4901907100467793	-10.996901658657627	-8.022662543240678
O	2.574091080046779	-7.380208348657627	-7.147021113240678
O	-0.7393015979532207	-7.995265318657626	-8.931275203240679
O	-2.5956838699532208	-5.905146058657627	-6.301653663240678
O	-5.28004336995322	-7.211040368657627	-3.931790313240678
O	-5.80886874995322	-4.274557188657627	-1.644826963240678
O	-4.66098626995322	-0.8662496586576269	-0.530560940240678
O	-6.08386939995322	2.6239256113423735	-0.9588696432406781
O	-5.07592753995322	4.881917271342373	1.9051397067593219
O	-5.10216276995322	8.418273971342373	0.685750077759322
O	-3.9287604299532206	10.187441001342373	3.840096016759322
O	-6.13126885995322	11.802821441342372	6.5147495367593224
O	4.6623647600467795	7.471731391342373	-10.652042123240678
O	-2.549308229953221	13.340530541342373	9.204612856759322
O	0.21692426904677933	11.983832641342373	6.980421996759322
O	4.62550528004678	8.110801301342374	1.0639289367593219
O	3.8836551800467793	6.226643871342373	-2.185358713240678
O	3.5844170700467792	3.116938001342373	-0.10655556624067802
O	7.29240433004678	3.086968631342373	0.8243957817593219
O	9.871534610046778	2.2106537813423732	-1.8600408732406781
O	12.95675375004678	4.168374881342373	-0.672002843240678
O	17.27914145004678	2.9483793713423734	-2.635364053240678
O	8.98670925004678	7.0857276213423726	-1.0170779932406782
O	8.252447470046778	5.880977411342373	-4.510038983240678
O	11.787731050046778	6.247269011342373	-5.869309833240678
O	8.195958100046779	10.367835141342374	-6.325379503240678
