32

O	21.91706970075713	11.984606351159682	25.117910003882653
O	22.14356133502433	10.659062079908875	24.658542584725733
O	22.79158625097625	13.29112314838617	23.191684899562784
O	21.41487300419351	10.368523265978807	23.614453893921066
O	21.17259666116318	11.611573116262784	23.017888169193135
O	25.017128909395584	14.31536366737097	22.065555752448997
O	22.013252132669198	12.535274015433435	23.721231163699688
O	20.55760552384333	9.262434022256581	23.599519163416886
O	20.546928630930854	12.311765177648448	25.552473347713082
O	24.227984971363284	16.30832759799719	21.914905415687087
O	22.94822055533648	12.81467165744737	25.75169523155484
O	24.054373166764492	14.107846036832832	20.274106670936305
O	23.154198166901633	14.193166837967766	25.20486851903177
O	26.263652333665718	19.545372071256487	19.831934839442326
O	22.420745765287602	15.146536967297738	26.107566223989856
O	24.573608489724013	14.661619071136178	25.200154488480536
O	20.507229282282353	12.196387729205991	21.860122547167265
O	20.71013787696769	13.736360044639163	21.883105317210646
O	20.338827254266494	14.44753015987936	23.022106576857446
O	20.889504226542666	15.711855153357032	23.22239378675853
O	21.85073851823105	16.26406035783579	22.40511555481647
O	21.866515229287096	15.605434994823446	21.165410507064273
O	21.116333244799407	14.474477354128018	20.86731719783374
O	23.23973356474404	16.646122604519423	22.894066842495832
O	24.75899674735596	14.552167368958582	19.089860418642992
O	23.988314674490745	15.617068241575243	18.62344184481811
O	26.062836589243126	14.88473699131506	19.22086094572901
O	24.47103160972882	16.946635215529092	18.508768965537683
O	26.630916619391126	16.166631058389893	18.992144778729514
O	24.140674919199423	14.942109049326117	21.455026930587817
O	25.80407205334485	17.239866877112476	18.681941616709118
O	26.00960421729343	18.559856492071944	19.25740571875595
