36

O	19.283191589837266	12.473024344699098	26.16645097201298
O	18.282480194445803	12.26234934149082	25.251399199525466
O	17.28322442106542	12.402699181436088	26.422578768641188
O	18.462436335176207	12.696861239267403	27.376663986809607
O	22.987347620321138	10.69674540696167	22.433322180077237
O	22.728950793691027	9.864575649006937	23.59155635102251
O	23.78839228156097	11.762345768690047	22.678129166369775
O	21.940397246710774	8.788808171926311	23.449335751390255
O	22.49395439755562	10.927002984608364	24.588722570467223
O	21.717238237602825	10.136447417492294	25.49408381859373
O	20.41426772482263	10.710184920874283	25.341417039262694
O	20.18758427397553	11.391184788747525	26.639599970715715
O	20.21114012531468	13.613749173370465	26.09607286091247
O	20.63193280540414	11.981639806665136	24.514693420929426
O	21.008803736110895	13.241362582079574	24.965549679948552
O	21.341906387944864	14.166389842658193	23.958080353697977
O	21.322617663019493	13.7313542862355	22.625766080899755
O	20.320033761237354	12.790386855595678	22.377989825495078
O	20.612993218095056	11.694579679094112	23.236939333051637
O	19.40245299247986	12.71182307966143	21.21651504976812
O	19.25936212001178	11.195348770996961	21.015228005629368
O	22.498708350544703	9.952423134145107	21.307730305266446
O	22.958234713748386	10.73693044482055	20.15919264042982
O	24.282926723312908	10.636011080911802	20.30821279978958
O	24.78578895562191	11.85927376099382	20.136067763796802
O	24.289392839839405	12.955617790654397	19.50747661217458
O	22.953124707229794	13.197837649932197	19.873078099584767
O	22.363921394298064	11.947395526830814	20.015901514464957
O	26.096189778656026	11.338497600500599	19.750772335219786
O	26.502457900385252	11.968532406520286	21.031193548462603
O	24.38908925951277	12.860104426491038	23.24729900103934
O	24.132816426325515	13.350272112544358	24.40997015880973
O	27.413290873618088	13.068080258399226	20.768749286009644
O	27.09630359557563	13.867211645714143	22.043505023007093
O	25.78460024103027	14.410174068727873	21.771878499016417
O	24.607889359911862	14.184550897187808	22.53265859596948
