44

O	23.789881376988568	16.07606527577653	21.968285635080093
O	23.96291366776242	17.185175586129517	26.80212834747836
O	22.64505909553274	15.578056783804916	22.50262397943552
O	24.111631293183297	15.441028770314388	20.809656771303633
O	25.34474718271739	17.324197948989458	27.039137751544317
O	20.519579306333707	15.37790905630186	26.13444228249363
O	23.5213652842116	16.50331151436562	25.637257687748633
O	22.267069887191553	14.259512154980225	22.216357526130032
O	23.64539816404409	14.12755767012026	20.492961700114527
O	20.720537991780645	14.362464953977142	25.19293479838658
O	26.227835306530437	16.867933751842205	26.050893007452128
O	21.200386081530247	15.220566330778201	27.361067677230157
O	21.366730128328623	13.034125628008704	26.96986402181849
O	25.46805954219483	14.178464465606677	24.0986500080474
O	24.36065452993138	15.551867081414677	25.25832746011651
O	24.281080204071497	14.33286634111634	24.75244930420515
O	22.95843316966763	13.36454045699588	21.390571004914335
O	20.693308939361593	13.068328843656388	25.75560407942301
O	25.72629533368901	15.806424052815368	25.31986918077289
O	22.13656259895371	14.14753475295288	27.404774985743906
O	23.605515327967584	13.198615254308852	24.40753018955803
O	27.101206184965903	15.595682900464318	23.18199765384039
O	28.141603167138502	12.573971996806387	19.260848685144197
O	25.139985871702788	11.105739631109362	19.550094114336495
O	24.552014268011728	14.20468942908925	28.10301050678173
O	22.489310295555196	11.917396691686722	21.403506271661385
O	20.311970839620283	11.801809293743943	25.18549751081665
O	28.25161550750384	11.709850240734324	20.47381487640937
O	25.414865969175995	11.280909357965626	20.950780044183073
O	28.334395209368644	12.793904957536327	21.618859250674497
O	26.061512122442164	12.246217483118183	21.7956943583284
O	27.726509779337576	14.14150134484743	21.171444049776632
O	26.02237412268252	13.531697832603392	22.183936068124325
O	21.097677754857738	9.799401051734955	24.090638068094776
O	22.63098634358552	11.355234268256806	22.773053860080477
O	22.226955583952588	10.015520819288536	23.17644148653355
O	26.265371739875512	15.170238532942689	24.327439111719652
O	23.429283337963213	12.20265585742752	23.467193396984143
O	20.979673076778347	10.545059323636497	25.275390277834077
O	26.721235226382305	14.767920095077821	22.022044038430863
O	23.812436080642534	12.578450958801216	25.4151263888768
O	28.22152055984042	15.27477164776408	23.60675548241713
O	22.57247073568502	8.861387485347642	22.56513123171087
O	23.177440768266784	14.308353833241242	28.245213341632947
