37

O	27.539409749363628	13.593968120849672	21.43594431171703
O	27.74152802424329	12.237752771947749	21.831754626881036
O	27.010212872122068	11.632615989449365	22.81305362912979
O	27.43671044873743	11.380027027286928	20.570331632540963
O	25.997332257280693	11.44637204088712	20.21661805728926
O	25.417939157839292	12.610300904683342	19.78793368465137
O	24.114741091048938	12.864627472337968	20.10819695361628
O	23.258539844627887	11.741988785166715	20.037868841647846
O	23.78571730924357	10.431108046905106	20.08852390400002
O	25.11373605412086	10.458368287125772	20.57592026506095
O	22.97662485819523	9.423720127615931	20.903226792074378
O	22.482104573696155	10.23830268012943	22.074955079144797
O	22.147469599580337	9.541950142789304	23.32477923839743
O	21.61300861729011	10.508609046222919	24.294381783546967
O	22.62987433843758	11.542523063089623	24.779751373695394
O	23.25037756094462	12.421441033863152	23.410678647633365
O	23.749999111383676	11.074907872383863	22.397507823192875
O	24.544412625889922	13.148088101210181	23.721725111124588
O	22.478740485413184	13.457215916136192	22.777619794238632
O	21.466633430826835	9.778370739384188	25.56590022150054
O	21.11415851456392	10.907940357584152	26.480176913518775
O	20.197199673486107	11.743603115598072	25.705156723104206
O	19.424809865496083	10.799316929323972	24.98921989248723
O	19.05519052224364	11.160921324938688	23.773065381261574
O	18.815318454764736	12.508332329874342	23.509692640933036
O	19.639277637763048	13.394895326550799	24.129662967716882
O	20.325718746354376	13.036843328000533	25.298387486369908
O	17.808776231464265	10.326937165054984	23.585324156966784
O	16.91020551984613	10.176952692218018	24.68422862667523
O	17.68643935048057	10.26022653556025	22.18195593564798
O	18.3497450465264	8.893596875759368	23.602481332137742
O	21.338880682319417	8.448344963707095	23.228768461845508
O	26.057402840574667	13.301437769904485	18.701129653612455
O	28.282117140213774	14.741184761742488	21.736677547281694
O	28.060259178237686	13.706327184880264	20.12402166830493
O	26.321449027908024	14.256721531274072	21.577887654958356
O	23.648752626962157	14.124907418910317	20.061998622597518
