34

O	21.762347821575226	14.261867488444882	20.78429314415404
O	21.597683562215437	13.199139685014233	19.77846403651728
O	21.67105448767776	11.954758651872178	20.44912011232238
O	21.083342886795176	11.456994101226645	21.68318822605385
O	20.621852698842083	12.637733698678467	21.902833807207678
O	21.079293078718706	13.985399837286018	21.981635874581134
O	21.997267076985903	10.435445987820055	22.231219726582225
O	22.269196489215762	9.804102561073194	21.103658326820216
O	21.908619629403823	10.579599017007997	19.892657835185343
O	23.116823979391036	10.701296224871033	19.400302230906767
O	23.80250786694315	10.93410347928732	18.22401228538391
O	24.989274717836587	11.729713959246984	18.186028536131367
O	25.13768612142551	12.690830801919395	19.20344106043997
O	24.9737906467543	12.114292247132777	20.429284437171482
O	24.1610623210784	10.95848717408633	20.30167950776886
O	24.79187779260132	12.68089482609121	21.743216485309745
O	24.64759268703407	13.93204059353847	21.9891220250704
O	24.076280141823403	14.478548883747127	23.059244040317104
O	23.373460231853954	13.823760478005601	23.98687691874391
O	23.410155348368367	12.560193784533222	23.813165229960788
O	24.236633834376534	12.0505838819868	22.85077156348769
O	20.558608392942936	10.5667044962331	19.184648187555652
O	19.198365330308327	11.013656568327272	19.42728249248233
O	18.350279605376457	10.785450745970358	20.473593687388192
O	19.437833766615153	10.383446013032332	21.31280819241693
O	20.094218336280754	9.249417063449531	20.795110910942274
O	20.160021702735577	9.240491494014066	19.445720669284178
O	20.154973344343034	8.025838199394453	21.583819343712623
O	21.63047053485208	10.167547218567197	23.53806255137389
O	26.201411284027927	13.544014971035704	19.303359018705226
O	21.323671026774214	7.592551092695526	22.019624064661578
O	19.46216731904715	8.41962829323701	22.732488744692684
O	19.62778483733476	7.17156117103333	20.79583678392926
O	22.02086661538228	12.848816392932147	21.314329303159465
