84

O	-4.114494164679167	-1.364966104025	-7.2984564233562494
O	-4.884005954679167	-1.127570464025	-5.771665623356249
O	-4.874468234679167	0.234469415975	-5.469929983356249
O	-3.929285004679167	0.276897323575	-4.51485904335625
O	-3.694905954679167	-0.546731377025	-3.6719369133562494
O	-4.753190104679167	-1.4720149040250001	-3.5204725233562497
O	-5.186732384679167	-1.807247694025	-4.68902279335625
O	-3.543089174679167	1.735932465975	-4.44829912335625
O	-2.1528052361791667	1.490248655975	-4.26744263335625
O	-3.207371996679167	-2.035131244025	-1.2551429803562495
O	-2.185984939579167	1.106572018975	-2.9397952903562494
O	-2.683211401679167	-0.01618376802499999	-2.8298034643562495
O	-2.277462124079167	-2.512582684025	-2.0506157073562497
O	-2.358209178679167	-0.352396482025	-1.5682736523562495
O	-3.2120796606791666	0.28595376447500004	-0.6698674033562495
O	-4.120188644679167	-0.998908344025	-1.2257838273562496
O	-1.053637124679167	-2.698894724025	-1.5333793873562493
O	-1.516260011679167	-3.203352534025	0.005154646643750649
O	-2.799112841679167	-2.209053284025	0.015066486643750654
O	-3.234496064679167	-1.374733594025	1.1268445766437507
O	-4.696781414679167	-1.7983818140249999	0.9851062966437505
O	-5.381492424679166	-0.6691528740250001	1.6872980466437504
O	-2.278453331279167	-2.772215704025	-3.4164997433562494
O	-1.5076036996791669	-2.421962144025	-4.3439822233562495
O	-2.081699766679167	-2.598590004025	-5.566366713356249
O	-2.808758653679167	-3.581643234025	-5.425345033356249
O	-1.9361849426791669	2.947032125975	-4.419382453356249
O	-1.2504456486791669	0.760739409975	-5.13808371335625
O	-3.055680497679167	-3.785641694025	-4.06369952335625
O	-4.2033585146791665	1.028137970975	-1.3700676183562495
O	-5.296744154679167	0.660552513975	-0.7876146333562495
O	-6.478669944679167	0.144955573975	-1.4044218303562495
O	-6.578703474679166	0.439867175975	-2.8035752143562496
O	-5.997789464679167	1.793100125975	-2.8132582623562494
O	-4.777116404679167	1.5416417759749999	-2.4327116443562495
O	-6.765370754679166	-1.002438454025	-1.1906536303562496
O	8.795672415320833	-4.015271324025	1.6289121666437505
O	9.198462515320832	-1.993120764025	-1.5517782443562496
O	7.4939926653208335	0.8286591839749999	-3.4407082433562497
O	5.319812295320833	-1.365209144025	-5.657331833356249
O	3.845145805320833	-3.443099074025	-2.8634029153562492
O	4.3462772853208325	-1.119693984025	0.026746116643750373
O	6.262666145320832	-0.8327441040250001	3.223451716643751
O	1.0594697953208332	-1.584291774025	5.459389396643751
O	-0.2573561046791668	4.179729865975	4.612514456643751
O	0.026964575320833184	7.949156335975	5.37724776664375
O	-2.755580278679167	8.369186735975001	2.85904893664375
O	-5.6328282746791665	6.715142725975	4.82171284664375
O	-6.965355984679167	6.757831355975	8.34070742664375
O	-8.165184084679167	3.287431845975	9.27732572664375
O	-7.705860294679168	-2.563621534025	9.47720872664375
O	-6.627779774679167	-6.160021924025	9.29519362664375
O	-12.700906984679166	-2.641192814025	-1.6251242123562495
O	-12.731080684679167	-4.243957734025	1.8017699266437504
O	-12.084136184679167	-7.9016993340249995	0.1420658566437507
O	-11.807318914679167	-7.246343944025	-3.5632384633562495
O	-8.440210844679166	-6.651089614025	-4.90316766335625
O	-7.119056534679167	-5.200107384025	-1.7984693363562494
O	-4.692973494679167	-7.729247324025001	-0.6542408033562495
O	-1.6089602116791668	-8.053126534025	-2.7401119893562496
O	-0.3018207046791668	-11.491656524024998	-3.4807680833562493
O	3.229503765320833	-11.696107924024998	-2.0871673732562495
O	3.2981783853208335	-8.310489974025	-0.3329086033562494
O	3.578324335320833	-10.200085224024999	2.9366513966437506
O	1.293208005320833	-7.7638559840250005	4.742299606643751
O	-2.137245401079167	-8.650715254024998	6.1908216866437495
O	-3.406477134679167	-5.286985664025	7.30467635664375
O	-2.991341062679167	-1.496529454025	7.06066660664375
O	-3.834454024679167	4.528342325975	8.18978212664375
O	-4.9664371046791675	13.696251075975	3.933113536643751
O	1.175815765320833	9.227364135975002	0.6716804266437504
O	3.2035442653208333	6.1371943859749996	1.4667652666437507
O	0.1328976353208331	3.786535275975	-0.039193443356249524
O	0.874427725320833	5.174971675975	-3.2919661533562494
O	3.753180125320833	3.812202695975	-5.28194358335625
O	4.225118215320833	6.594858325975	-7.82404944335625
O	3.905279205320833	3.637064035975	-16.64257997335625
O	2.809937085320833	0.349597881175	-18.18679857335625
O	7.123620415320833	5.751742355975	-11.71175981335625
O	4.126140415320833	8.399116565975001	-3.2115255733562496
O	6.7090190953208335	5.915012995975	-2.0521277413562493
O	9.149549115320832	6.442068005975	-4.887211143356249
O	9.570183615320833	9.276630505975001	-0.1778548533562494
O	12.425973415320833	6.824174015975	-0.8343236433562495
