94

O	3.545694660137255	0.6047693828607857	-4.041220845725491
O	2.347255310137255	-0.4123998367392142	-4.20666887572549
O	1.6474304631372552	-0.21894861773921426	-2.99536785572549
O	2.400277840137255	-0.9823499087392144	-2.0520809157254902
O	1.365684785137255	-1.8096308287392144	-1.4266128037254902
O	0.16060713213725508	-2.1397597387392144	-1.8983365357254902
O	2.131438910137255	-2.6397794087392144	-0.47327172672549017
O	1.511577198137255	-3.6456002187392147	0.39679168427450995
O	2.319308470137255	-3.7037186387392143	1.67578805427451
O	1.815542970137255	-3.7687670787392142	2.9730676242745098
O	2.5518427201372553	-3.5849751387392144	4.10668801427451
O	3.863615700137255	-3.938109918739215	4.03105840427451
O	4.424576070137255	-4.176102588739214	2.81082828427451
O	3.687226090137255	-3.9629329087392144	1.69113575427451
O	2.839205040137255	-1.7443644687392146	0.26868695427450995
O	4.142831490137255	-1.4499892387392141	0.5189763842745098
O	4.873192310137255	-1.4558054187392142	-0.48041772872549016
O	4.290546420137255	-0.6024875587392143	1.7101926642745098
O	4.799791510137255	-0.9514154587392142	2.95882000427451
O	6.178810430137255	-0.6514543987392142	3.03301650427451
O	6.261876050137255	0.7895873932607858	2.76514294427451
O	5.121571870137255	1.4538921432607856	2.22994088427451
O	4.326473910137255	0.7533825202607858	1.38973302427451
O	5.309317900137255	2.8611352412607856	2.03370718427451
O	6.116203460137255	3.0556230712607855	0.8999432442745098
O	5.615959790137254	3.1686980912607856	-0.39469618372549015
O	6.212258840137255	2.5241638412607856	-1.4896345027254903
O	7.074000840137255	1.4478368642607857	-1.26229503072549
O	7.868560780137255	1.6093891712607857	-0.16510307872549013
O	7.2793050201372544	2.287196881260786	0.91008033427451
O	5.412823920137255	3.4164206612607857	3.63908627427451
O	7.066066380137255	3.4852857912607855	4.1002846542745095
O	4.524474810137255	4.532889181260786	3.6223613142745097
O	4.760126380137255	2.531216791260786	4.71162304427451
O	3.075943770137255	-1.6993237087392146	-3.89348606572549
O	4.281697470137255	-1.7497131387392142	-3.48779502572549
O	2.163441190137255	-2.7180235187392143	-3.56780964572549
O	2.801983650137255	-3.8836397587392146	-3.07121441572549
O	4.186902100137255	-3.789624158739214	-2.67468326572549
O	4.461035470137255	-4.625726458739214	-1.4844883627254901
O	3.557818130137255	-5.727879988739214	-1.13685740272549
O	2.273884230137255	-5.969521728739214	-1.81110241072549
O	1.818556450137255	-4.862911548739214	-2.66905075572549
O	-4.828758469862745	0.5540376901607857	8.346547284274509
O	-1.889971339862745	-1.2582384487392142	9.91011138427451
O	-2.606429819862745	-4.681582378739214	8.38066594427451
O	-4.801598039862745	-3.750100578739214	5.416727304274509
O	-8.390174359862744	-3.944976568739214	4.188090904274509
O	-5.935125279862745	-7.407116268739214	0.2192815542745098
O	-7.381612249862745	-4.444494998739214	-1.68263711672549
O	-4.279004699862745	-2.7277429987392146	-3.06594566572549
O	-4.515331879862745	0.3417954622607857	-5.31028437572549
O	-0.737314309862745	0.47590340806078574	-5.27308139572549
O	0.05382386313725507	-2.6272520987392145	-7.32049709572549
O	-1.337164449862745	-4.414299038739214	-10.39693847572549
O	-1.120255869862745	-8.152727478739214	-9.76994813572549
O	-1.6874691298627449	-12.947758918739215	-6.45906015572549
O	8.228997660137255	-9.433495318739215	-7.068557375725491
O	10.853956360137255	-8.010241098739215	-4.68786218572549
O	9.246715280137256	-10.317414518739215	-1.6747103537254902
O	7.034504780137254	-12.978003518739214	-3.21952096572549
O	7.893474680137254	-10.846950518739215	4.83047025427451
O	4.806503240137255	-10.920625318739214	2.53227842427451
O	1.152903504137255	-10.631093018739215	7.81717993427451
O	-4.183484749862745	-9.959860518739214	8.94090296427451
O	-3.696005149862745	-12.776140118739216	-1.3292723647254903
O	-3.5806973898627454	-9.356938718739215	-2.93041746572549
O	-3.6995940398627454	-5.079222108739214	-7.42882396572549
O	0.41141185313725503	3.3193189612607856	-13.97532261572549
O	0.03089471213725503	3.9256473812607857	-10.245322845725491
O	-3.007703959862745	6.068219431260786	-9.42646402572549
O	0.11344958013725503	8.164068441260786	-5.522946525725491
O	-3.0547270798627446	6.879798501260786	-3.79051294572549
O	-2.106432489862745	3.5277637212607855	-2.2233678957254903
O	-4.4995204798627455	1.4706982622607856	-0.036907707725490124
O	-1.617107059862745	-0.9743642587392142	0.3414176542745099
O	0.49981182413725506	1.5302649792607856	2.33786318427451
O	-0.5552296198627449	2.4176369412607857	5.99838349427451
O	0.778519163137255	5.907985491260786	6.31811578427451
O	0.49153268413725504	9.250439061260785	4.640412454274509
O	4.019804670137255	9.419022851260785	3.2843670342745104
O	2.7993292001372554	10.320573981260786	8.74296269427451
O	6.290179870137255	9.377328421260785	7.61135213427451
O	8.981753080137256	10.453649051260784	5.155332004274509
O	9.303152970137255	9.147533761260785	1.65025333427451
O	12.187575860137256	8.672384481260785	-0.8042449884254902
O	9.691505720137256	7.535909881260786	-3.41242831572549
O	1.856782230137255	8.202204881260785	-0.7710717410254901
O	-1.718285199862745	8.635303701260785	0.2999129542745099
O	-1.9963474198627449	5.423064871260786	2.26438098427451
O	-4.796948679862745	3.9288803912607855	4.239833524274509
O	-4.891434909862745	6.426090421260786	7.08151432427451
O	-5.661807319862745	9.165234921260785	4.58600530427451
O	-8.151047339862744	7.0998794612607865	2.69178388427451
