71

O	4.1251942982033905	-0.726324662271187	-0.6801299219999999
O	4.00933163820339	-1.799955142271187	0.12404363300000007
O	3.11851609820339	-0.5367473102711868	-1.635551729
O	5.43064077820339	-0.583528423271187	-1.443635389
O	3.04679788820339	-2.7477034622711867	0.2430825970000001
O	2.09201821820339	-1.408646462271187	-1.597617949
O	3.13944754820339	0.824743729728813	-1.987658829
O	5.83240028820339	-1.821788592271187	-2.184821729
O	2.1663988482033902	-2.431663532271187	-0.715732423
O	2.92303398820339	-3.3052911522711867	1.6105781110000001
O	3.10958509820339	-2.212116062271187	2.6865659410000005
O	4.39025407820339	-1.6203659822711869	2.2956342210000003
O	-2.64394289179661	9.440939867728813	-6.673372999
O	0.73744275820339	7.772186577728813	-6.421179679
O	4.18626411820339	8.380187647728814	-4.950422719
O	6.31162374820339	7.306789627728812	-1.953629729
O	8.01018558820339	4.351971457728813	-3.5992034389999996
O	4.87653531820339	2.631928777728813	-4.830885138999999
O	2.30409525820339	4.077226087728813	-2.4661112089999997
O	-0.6212005427966101	6.488822107728812	-2.481991579
O	-4.06433923179661	5.195689927728813	-3.4168996689999998
O	-7.66575918179661	1.682716837728813	-6.787377899
O	-6.77549097179661	1.0582520997288132	-3.1741987089999997
O	-3.5140790717966097	1.6803439377288132	-1.2836717389999999
O	-3.99800544179661	3.992078867728813	1.716194001
O	-2.17409642179661	2.214301537728813	4.545824381
O	-2.05930668179661	3.510024757728813	8.105183901
O	0.28908306620338997	0.637122327728813	9.013415601
O	-2.21128498179661	-2.233018692271187	8.657927241
O	-5.87352803179661	-2.9793445622711867	9.513477861
O	-7.32026931179661	-5.109178962271187	6.691812911
O	-9.31726426179661	-4.0461707622711875	3.657534941
O	-7.98970719179661	-6.535790212271188	1.065252801
O	-8.342249731796612	-6.544904692271188	-2.685580129
O	2.87432679820339	-12.997987162271187	5.596510881
O	2.61111389820339	-12.297478962271187	1.5501722310000001
O	-1.0166827157966098	-12.509247862271186	0.4690879910000001
O	-13.315288281796612	-7.5924720222711874	2.4435661810000004
O	-10.464532881796611	-10.070749662271187	2.148494991
O	-6.91860490179661	-12.010111962271186	-2.365767869
O	0.07902779720338998	-13.303903662271187	-3.3792886589999998
O	3.8669281382033898	-13.216618062271186	-3.388643889
O	5.68319555820339	-9.914520462271186	-3.8788927589999997
O	2.6053167182033903	-7.966870922271187	-2.7416009189999997
O	1.3395721182033902	-6.3181319422711875	-5.957801969
O	3.73225885820339	-3.7671638822711873	-7.438644609
O	3.98595068820339	-3.6351353822711867	-11.230132829
O	2.8257441482033903	-0.1868396352711869	-12.355378129
O	1.57777409820339	1.0562324097288132	-8.959481328999999
O	-1.9017940617966098	1.185423251728813	-10.471560028999999
O	-3.4400743517966097	-0.09850084427118694	-7.189103558999999
O	-5.32491189179661	-3.372602092271187	-6.791148129
O	-5.85260292179661	-3.553601582271187	-3.0581946889999996
O	-4.87949487179661	-2.1595743222711867	0.3165512130000001
O	-6.99494481179661	-0.13553693127118693	2.8299944110000004
O	-5.72600437179661	-0.7954632022711869	6.346701191
O	-6.59452612179661	2.224517707728813	8.444898381
O	-5.08224092179661	1.1504013377288131	11.763467771
O	0.5964392622033899	12.974286737728814	0.766034929
O	2.88426941820339	4.367792617728813	8.402410201
O	1.7920509382033898	5.552430627728812	4.943414611000001
O	2.42471255820339	2.053244777728813	3.6273687310000002
O	6.18397445820339	2.3378259477288132	4.212756741000001
O	8.264886628203389	4.457439117728812	1.8732234909999999
O	11.18181491820339	5.474264007728813	4.129614881
O	19.55718841820339	3.323611817728813	0.4877552620000001
O	15.148735718203389	7.446069397728813	1.990828641
O	6.84137752820339	6.478478567728812	6.293668451
O	5.59268241820339	8.272997797728813	3.2257116310000002
O	8.673468808203388	10.406257737728813	2.6601192510000002
O	5.04418730820339	14.169062137728814	2.4411883010000004
