18

O	21.941698856013666	10.252573455297238	24.722732027553143
O	22.97548160266028	10.333592048868951	23.68535601684129
O	23.257827090611677	11.771971246834873	23.835181769173705
O	22.44298058642093	12.577416806342267	23.14264376954916
O	21.965420501098215	12.300072767081737	21.77217535596748
O	21.857183172816246	11.016703574448316	21.270851515263562
O	22.8200053651578	10.922039840663562	20.09509420800677
O	23.790566346899286	10.08255540610664	19.591309217408213
O	25.074841780975255	10.739822092892078	19.214587036301534
O	25.24585492971219	12.027541049709162	18.815753371539913
O	25.951948318243442	12.979578812796753	19.593476595524237
O	26.78653623909242	12.510482995330786	20.663098311889645
O	27.21566455468878	13.014013436544763	21.913762031253157
O	27.56967822225385	11.874748149297464	22.53480814029902
O	28.08207833318531	11.16781052672194	21.485641065092157
O	27.03491234271541	11.171683385357902	20.63390283271737
O	26.181907996638017	10.289497264034186	19.974457247332833
O	22.481126156206628	10.126830143649006	22.364198432183585
