31

O	21.806189548771997	12.036617672324347	22.876115162637262
O	21.98104120696531	11.86791291732803	21.43932171691101
O	21.991893926074496	11.14401167123618	23.913777249352524
O	21.94945790970529	9.82617090925208	23.390084009124912
O	22.16324139565875	9.66662393445307	22.19386872594125
O	22.181518613003952	10.530396596734096	21.014520934042775
O	23.346637331559947	10.377935694682835	20.156277270381256
O	24.249438044181964	9.567205702936215	20.711582126027245
O	25.48355216774864	9.66117027667877	20.00086441994925
O	25.945961688849053	10.442175209883231	18.982114143055018
O	24.720889711301513	10.448014832140924	18.261964713136337
O	23.72836233210002	11.027353934866817	18.991166833509997
O	22.074846233824868	9.305971608506866	24.706265392051733
O	21.13223836990305	10.14256034201114	19.97040405641706
O	26.37470988250516	10.232548291315918	21.038383135189086
O	25.769663183579777	11.531355710312042	21.23998129847796
O	25.123160642993913	11.52252631831439	22.593957443682736
O	25.52153336466367	12.341120094474189	20.274918809365445
O	24.839645463563983	10.46472452612872	23.350759310649078
O	24.742493826189566	10.961031068025376	24.612148484243328
O	26.072318650534097	11.36285570822646	24.79740669496575
O	26.870943464111505	12.072621094864033	23.833752404663812
O	25.93841692184039	12.566661242597764	22.88490059923083
O	26.56211316673762	12.040726325978046	25.998449550521872
O	25.664485083632997	12.845710736079523	26.459197786889554
O	22.354094363005622	13.311456326918094	23.243969181846442
O	22.674317266455667	11.230600906501312	18.20868025397951
O	22.24359149898934	13.477239538682337	24.579774661690333
O	21.190537108233848	14.127839830579662	22.916267257641064
O	23.235061817370568	14.089982077951007	22.583853352856217
O	22.63139869435511	12.9381272658921	20.9982366899023
