84

O	0.5447091020925927	-4.777412043851852	0.5566212357407408
O	-0.4232730569074073	-5.153636893851852	-1.4741552772592592
O	-1.3015054369074073	-3.3120992338518516	-2.537477737259259
O	-0.4982814489074073	-5.235376373851852	-0.12775017425925916
O	0.8004868940925927	-3.3658726938518515	-1.2187160182592591
O	6.4069407230925925	-2.9040165938518516	2.629040562740741
O	1.3318051690925927	-3.9291077538518517	-0.09836820325925916
O	2.3975198930925927	-3.4938804138518513	0.7157043127407408
O	-0.17892316590740726	-3.8604654738518516	-1.9754111472592593
O	2.6791308530925924	-1.7230392538518517	2.657232362740741
O	-1.711524026907407	-2.5836698438518515	-3.5810460372592594
O	2.1130977230925927	-3.1769659638518517	4.519654992740741
O	2.4723285130925925	-2.126749163851852	0.5202028847407408
O	4.315462393092592	-3.0951312638518513	3.6917000727407414
O	3.4723090630925926	-1.5860115138518518	1.4757257027407409
O	2.9783879430925926	-2.5751046738518517	3.587360612740741
O	5.031277323092593	-3.3898328738518515	4.863261032740741
O	5.172286833092593	-2.5919477038518517	2.6909532627407406
O	4.422658623092593	-2.8167274838518517	1.4404028327407408
O	3.6110200630925924	-4.002029353851852	1.218650892740741
O	4.0862548430925925	-0.42289039585185173	0.897201282740741
O	3.8503311930925928	0.7509839561481482	0.1468571667407409
O	3.8849450230925924	0.9517592761481481	-1.2577115792592592
O	4.041950813092593	-0.3180696842718517	-1.8063411772592592
O	5.225753043092593	-0.7979129758518517	-1.3585669892592591
O	5.247752193092593	-0.6914615648518516	0.09131080374074085
O	-1.0908616769074073	-6.527682973851852	0.3728963347407408
O	-1.3575474369074072	-5.901549103851852	-2.149677407259259
O	3.6167622630925926	1.6675477661481481	1.0442054027407408
O	6.371972293092592	-0.5167128338518517	0.7802097527407408
O	5.073849683092592	7.8925567561481484	4.185196392740741
O	1.9995862830925928	10.056923576148149	4.721928162740741
O	-0.3002886099074073	10.614290776148149	1.7743253027407409
O	-1.2201715569074072	11.593156776148149	-4.125544127259259
O	-1.8709102569074074	8.321854906148149	-2.309068717259259
O	-0.04776074690740728	6.687486246148148	0.5579176017407409
O	-2.3359429469074073	6.084611756148148	3.6264467727407412
O	-1.5385017769074072	2.4197895661481486	4.541334002740741
O	-3.2193045169074073	0.6089905611481483	7.375692832740741
O	-0.9828081069074073	-2.3506278838518515	6.7724383827407415
O	-2.3062424369074073	-3.4589893238518514	3.3495829027407407
O	-5.664740306907407	-3.8409457338518513	1.6675287927407407
O	-5.320814176907407	-2.8119729438518517	-1.958813597259259
O	-5.936283946907407	0.4397195651481483	-3.6149489372592596
O	-3.0257170869074073	0.4236110811481483	-6.121424747259259
O	-1.9066608069074074	3.3718409061481487	-8.295828767259259
O	0.8668527600925928	-9.676558103851852	-8.486774867259259
O	2.0811874830925925	-8.211160933851852	-5.166087007259259
O	5.590263743092593	-9.216603043851851	-4.113613707259259
O	7.016432173092593	-5.794048403851852	-5.836445617259259
O	4.3548228630925925	-4.324931603851852	-8.08053872725926
O	2.315029293092593	-5.851827853851852	-10.852201817259258
O	-7.427808296907408	-4.710396973851852	-12.057343617259258
O	-8.189465096907407	-0.010428800851851716	-8.580164297259259
O	-5.027575856907408	-1.9603860638518518	-9.312553667259259
O	7.120218083092593	-2.193304633851852	-10.16751347725926
O	10.426300363092594	-2.9043394938518516	-8.461939407259258
O	11.567844463092593	-0.8180689268518517	-5.501200957259259
O	7.981623093092592	0.2715715661481483	-4.896192457259259
O	7.897858493092593	3.9481381261481485	-5.758623137259259
O	10.138144903092593	6.126850176148148	-3.5709570872592593
O	3.0401581930925925	9.78811547614815	-3.785453047259259
O	1.8388661630925929	7.857457926148148	-6.833170387259259
O	-0.2570037579074073	5.104706996148148	-5.255584577259259
O	-1.2414809469074073	3.3514393761481487	-2.0628875172592593
O	-4.619257136907407	3.2341451161481483	-0.15947336625925915
O	-4.866466596907407	-0.0843292368518517	1.7323576327407408
O	-7.121585646907407	0.4388630281481483	4.676800272740741
O	-6.9084020369074075	-3.0301195238518517	6.2067505727407415
O	-9.337546526907406	-5.923380473851852	5.681001102740741
O	-10.173699436907407	-8.032305783851852	2.625193342740741
O	-5.141118566907408	-9.74114844385185	3.128041802740741
O	-6.170573066907408	-8.18588214385185	-0.15972571525925916
O	-4.4983926569074075	-9.40917018385185	-3.3526142472592593
O	-7.041889216907408	-8.997380583851852	8.474730962740741
O	-4.312479086907407	-6.614272373851852	9.47635012274074
O	0.8439321950925927	-0.0813383038518517	10.24752178274074
O	1.1560371610925928	3.4119316061481486	8.844086022740742
O	2.9610534230925927	1.9728128261481481	5.826368062740741
O	5.995497673092593	1.0462430061481482	7.925609962740742
O	8.406511393092593	3.6130744461481483	9.19463706274074
O	9.794592443092593	2.0202894161481484	12.360722082740741
O	4.843818643092592	1.9379000861481483	12.36140058274074
O	4.700410243092593	5.595546126148148	11.542725082740741
