86

O	-3.4421648468771933	-1.2789990795614037	2.128044943175439
O	-4.043303676877193	-1.9118918595614036	1.092890936175439
O	-3.1500781868771934	-2.157355329561404	0.028736663175438992
O	-2.035365049877193	-2.829694999561404	0.6330321051754391
O	-1.272206533247193	-2.342659059561404	1.658973293175439
O	-2.040919261877193	-1.2651746895614036	1.9582347531754392
O	-3.947420246877193	-1.3282040895614036	3.583040983175439
O	-1.199155302677193	-3.351226109561404	-0.20566751482456103
O	-0.5768227968771931	-4.462890019561404	0.572143911175439
O	0.12634781312280685	-4.341015749561404	1.684606253175439
O	-0.5084183818771931	-3.254430049561404	2.533061883175439
O	-1.6289987928771932	-5.295932649561404	1.326455673175439
O	-0.9643233528771931	-6.314825469561404	2.279384403175439
O	0.04597529312280679	-5.981732589561404	3.187410273175439
O	0.8156652431228069	-5.042479439561403	2.5725407031754393
O	0.6610258331228069	-2.6072915195614037	3.040809563175439
O	0.8871467331228069	-3.169170799561404	4.166305733175439
O	-0.22057897687719308	-3.864477549561404	4.670579063175439
O	-1.1731579068771931	-4.022691829561404	3.589308223175439
O	-2.186340948877193	-4.769753029561404	3.772224803175439
O	1.8602959531228067	-2.518765739561404	5.030385623175439
O	-0.2985540278771931	-5.452832899561404	-0.587626622824561
O	-0.37772724787719314	-4.285051899561404	6.021177983175439
O	-4.467973696877193	-2.6302852495614037	3.873951113175439
O	-4.100470986877193	-3.315260659561404	5.075164513175439
O	-3.707290446877193	-2.329382819561404	6.099864333175439
O	-2.533981586877193	-1.9639137595614036	5.5028604531754395
O	-2.803246236877193	-1.1446078385614038	4.425219293175439
O	-1.596062993877193	-0.6877709395614037	3.901600443175439
O	-4.745465056877193	7.310535970438596	6.964399023175439
O	-7.802189976877193	5.2436130104385965	6.483011143175439
O	-7.397415416877193	4.591252370438596	2.726222703175439
O	-3.738270126877193	5.346413760438596	2.281056863175439
O	-1.5272528608771931	8.021031330438596	0.834163797175439
O	-0.6708364188771931	7.925716040438596	-2.816927036824561
O	-2.137133762877193	6.971644850438596	-8.573108896824563
O	0.03170449312280699	4.717708240438596	-6.448960436824561
O	-0.15704765687719302	3.854735260438596	-2.768342376824561
O	3.102179713122807	4.805179960438596	-0.943339266824561
O	3.8509472131228066	1.6941339604385963	1.159916472175439
O	6.957927183122807	1.3834161404385963	3.322229953175439
O	5.654353603122807	-1.9806794095614035	4.557193963175439
O	5.9779835131228065	-3.966744739561404	1.268033803175439
O	8.431799373122807	-4.360062889561404	-1.5374740168245609
O	6.5584786431228075	-4.746489889561404	-4.807704316824561
O	5.550497433122807	-2.167727309561404	-7.325071556824561
O	2.188265073122807	-3.513288639561404	-8.466639016824562
O	-0.4927926018771931	-1.8349923595614037	-10.541877636824562
O	0.531169103122807	-12.207326009561404	-3.124178016824561
O	-1.9674580708771932	-13.415270109561403	-0.5260692088245611
O	-4.882188446877193	-11.022100309561404	-2.315505026824561
O	-3.694197006877193	-9.936272129561404	-5.729337706824561
O	-2.320736766877193	-11.995160809561403	-8.610468306824561
O	6.060086223122807	-3.973977349561404	-12.446931436824562
O	3.606148373122807	-6.599215509561404	-11.340325136824562
O	-9.698649546877192	-9.931381299561403	-3.969981876824561
O	-10.388490926877193	-7.159612919561404	-1.524451726824561
O	-7.255800976877193	-5.3319084595614035	-2.711766036824561
O	-8.524536436877193	-2.179004319561404	-4.284372746824561
O	-10.371919206877193	0.16213699543859628	-1.936425116824561
O	-13.499583096877192	1.8485746904385965	-3.443475576824561
O	-9.133148996877193	5.364309920438596	-2.3450052568245607
O	-8.405183316877194	6.898950420438596	-5.774426656824561
O	-5.267750806877193	4.698181790438596	-6.056264946824561
O	-4.669378286877193	2.085331110438596	-8.759674216824562
O	-1.4783415808771931	0.4737043034385963	-7.5658161268245605
O	0.955651643122807	0.0945647424385963	-4.674308096824561
O	4.562590133122807	1.1757886104385964	-4.347217026824561
O	6.500466923122806	-1.0655971445614036	-2.039607946824561
O	9.388532903122808	0.8606821704385963	-0.638420388824561
O	10.869072003122808	-1.7864256095614037	1.6552471531754391
O	13.706867503122806	-4.209415989561403	0.8766170931754389
O	1.969691383122807	12.276216190438596	5.682228163175439
O	13.698879503122807	-6.3737244295614035	5.088190333175439
O	10.847213003122807	-4.337396859561404	6.556105783175439
O	4.626514323122807	1.0442492704385964	7.758314203175439
O	2.7719655731228072	3.7482988204385963	5.764863373175439
O	0.6116663831228069	1.0864395904385964	4.3755040531754394
O	-0.7627078688771931	0.5750865504385962	7.944437113175439
O	-3.475342006877193	3.036380890438596	9.327947693175439
O	-3.007263896877193	2.4261293504385963	13.072775163175438
O	-4.852959906877193	-1.7691130595614037	17.969318563175438
O	1.3488427931228069	3.149442780438596	10.812874863175438
O	-0.006177166877193052	6.197807380438596	9.058467243175437
O	-1.6140582978771931	7.839891810438596	12.100027763175438
O	3.584782483122807	8.955339270438596	10.754326863175438
