40

O	24.184858293072544	13.370196318583044	22.853949200416235
O	23.79460485871584	12.02323592928493	22.94927507671763
O	23.509269808737226	10.9249312352866	22.153211507153415
O	23.103193168423232	9.796573596607079	23.108891341975955
O	24.362961013002217	10.557098828464646	21.030645547675647
O	23.82658581256702	13.824573373020812	21.753169839162254
O	23.800905331223532	14.1466827510637	24.054286936278196
O	22.82092551155152	15.11919271566249	23.79146855924095
O	22.208040307849476	15.529997174795897	24.994352679492025
O	23.211966403381755	16.092204518645353	25.81550169449434
O	24.57951008728539	15.878771382797536	25.519442052547493
O	24.78632546654164	14.63076087434991	24.933247481093645
O	25.319009361387057	11.68508559986767	20.679061385487994
O	26.46679312079189	12.100416947771386	21.294048524195183
O	27.386234356199864	13.031756228039875	20.899625648561155
O	27.202474882583257	13.557970618037697	19.65156731877706
O	25.85584109605609	13.60009153191892	19.273719400191098
O	25.24429738465913	12.354743995971523	19.480032444001452
O	23.19173131146634	8.53104381735728	22.742211325488718
O	20.435841031157878	9.889128106453015	25.086020941732652
O	22.278661232126172	10.508664839351127	24.058432723936587
O	21.779438638838652	9.505463029972889	24.9166068878237
O	25.62278399359026	17.30168019645601	25.27968950174064
O	20.55811395917496	11.15318063741222	26.049613792354265
O	20.032952907143283	10.661790579976538	23.846154826879747
O	20.53852936513214	9.919969250918653	22.7163156663345
O	20.49229963121395	10.631509802036366	21.49673496570483
O	20.057982880418912	11.932167659680543	23.741015653085043
O	21.001244395274636	9.968813865691086	20.29896594085352
O	21.56315422399813	10.81441635832454	19.226205328880184
O	21.868579676434695	12.232968252450412	19.547568670835325
O	20.988313713242277	12.909458257176338	20.534846936581598
O	20.499236374059596	12.094491412027889	21.67084444050628
O	27.29256848543609	16.884238236513234	25.145989443808563
O	27.567776047138757	16.48741352693874	23.695292501016986
O	26.272644527423726	16.174840805717167	23.055636339639996
O	26.104067959087477	16.111005777739134	21.535091127529174
O	24.7972494437566	16.764624338338017	21.269903388732573
O	25.122338290684286	18.248172296027494	26.2641526724367
O	25.31446796761592	18.055632679454686	24.033240741315513
