100

O	5.296582096938462	0.07705247077077004	-6.187501151107693
O	2.7563433969384614	0.17387086077077019	0.46551959889230776
O	0.5983756319384615	5.46806370077077	0.5397338788923074
O	3.1010398069384615	3.55624430077077	1.0379545488923076
O	3.1421276369384614	0.17401422077077022	1.7370865288923074
O	3.9722158669384613	-0.07214926922923004	-0.2742268311076925
O	2.7657554569384613	2.75760229077077	-3.8726382411076923
O	3.0022499969384615	1.51069293277077	2.109823228892308
O	1.3165470769384617	2.05753172277077	-2.4601701311076924
O	3.0563051369384615	6.042839190770771	-1.7819450571076925
O	3.2282492069384614	2.23817174547077	0.9178117588923076
O	0.8904772229384617	1.85113977277077	-4.829432971107693
O	5.196945406938462	2.00999728277077	-0.18636267110769245
O	2.6360249069384616	2.04034313277077	-0.3921969811076924
O	3.8655867469384613	-0.08337269922922985	-3.0034914011076923
O	1.7119487569384617	1.14355801077077	-0.1610927511076925
O	1.8623599469384615	3.56664053077077	0.5548943988923076
O	1.3647033969384617	3.2208358217707698	-0.7291829631076924
O	2.363632976938461	2.74046685777077	-1.6446215861076925
O	0.9009190569384615	4.29726624077077	1.2796654988923075
O	0.33765002253846155	5.20391263077077	-0.8127142051076924
O	0.20997879713846157	3.8281454307707703	-1.0468266801076924
O	3.3132076869384615	3.08469643277077	-2.5847327111076925
O	1.6508801169384617	1.92844424377077	-3.5846175611076925
O	1.2951308269384616	5.19311216077077	-1.9348910601076925
O	1.6942385869384615	6.68178790077077	-1.7266267871076924
O	3.5520655469384614	6.0032875907707695	-3.0400319111076923
O	2.4235981869384613	5.41021487077077	-3.7990412111076926
O	1.0092427509384616	5.24421503077077	-3.2061591811076924
O	4.643528316938462	0.9885622507707701	-0.8054401301076924
O	4.476053056938462	0.8064445307707699	-2.2346598891076925
O	3.9736889169384613	0.18879616077077	-4.300968091107693
O	4.983753276938462	1.03347417077077	-4.770466041107692
O	5.976020256938462	1.1187541507707701	-3.874832221107692
O	5.4060819269384615	1.62171352977077	-2.6894359211076924
O	-0.4630195000615384	-12.47313906922923	4.986279158892308
O	2.8024868569384616	-10.84119886922923	3.888920418892307
O	6.182294406938462	-9.06173876922923	-2.0412166101076923
O	8.927516436938461	-7.03719451922923	-0.3885279711076923
O	6.888032926938462	-5.64480111922923	2.537692178892308
O	3.4021115969384614	-6.04158611922923	1.1201494888923076
O	0.2874535279384616	-8.20285566922923	1.5826120488923077
O	-2.2470378430615385	-7.29245157922923	4.216949518892307
O	-3.6834101330615385	-5.2811578492292295	9.701041508892308
O	-3.9858980230615386	-3.29629194922923	6.473247548892308
O	-1.9556905330615384	-3.31551339922923	3.3829418388923074
O	-3.879425683061539	-4.214222359229231	0.24414558889230764
O	-2.9292583030615384	-1.5585111292292302	-2.3040052011076924
O	-4.401115953061538	-1.3587285492292298	-5.752527571107692
O	-2.1208289530615385	1.4798036527707699	-6.594599231107693
O	-3.5207481030615386	4.15921001077077	-4.245869651107693
O	-7.008622563061538	5.37872243077077	-3.1810226211076924
O	-6.885304283061538	6.28182498077077	0.4897077288923075
O	-7.7321521830615385	4.18607905077077	3.459865428892307
O	-5.246838453061538	5.38155800077077	6.016077808892308
O	-4.333987293061538	3.86883522077077	9.371631308892308
O	-1.0016057830615384	15.33638693077077	3.3147469188923075
O	0.4128446349384616	12.578172630770771	1.2282495888923077
O	4.067491906938462	12.87463093077077	0.1948304288923075
O	5.167567826938462	10.51898105077077	3.438798368892307
O	2.2859152469384614	10.38681693077077	5.850960838892307
O	0.13842487893846156	13.15504323077077	7.328062758892308
O	-10.444128173061538	6.98688200077077	7.328433638892308
O	-7.342280243061539	9.09600169077077	7.363585918892307
O	8.212768806938461	9.47732579077077	7.577689628892308
O	9.455884346938461	6.24760882077077	6.042038458892308
O	5.852845446938462	5.02713197077077	5.6703471988923075
O	5.618164636938462	2.19491684567077	8.138783278892308
O	7.915280376938462	-0.76162943922923	7.570118968892308
O	9.494361146938461	-2.41083791922923	10.702457908892308
O	8.281951956938462	-6.031332749229229	10.832944608892307
O	5.691462266938462	-5.70187287922923	7.963540268892308
O	3.0510055469384616	-6.408970759229229	10.677944908892307
O	0.6347435049384615	-3.9453539892292304	9.017637108892307
O	-2.4488638930615387	0.90535306077077	7.661344558892308
O	-3.0169750230615384	0.8879160207707699	3.914036558892308
O	-6.044483143061538	0.1990951707707702	1.8497142788923076
O	-6.017525723061538	2.14331468277077	-1.3391743001076923
O	-8.271279873061538	0.21737323077076987	-3.7101598711076926
O	-7.978391163061538	2.39961790177077	-6.759040351107693
O	-10.366926473061538	5.11040468077077	-7.896535631107692
O	-11.419439473061539	8.40708073077077	-6.381255781107693
O	-6.389992573061538	9.75038910077077	-7.360440361107693
O	-7.7087266630615385	10.04241068077077	-3.7932395511076926
O	-1.1359627730615385	-13.01567076922923	-3.7743616211076922
O	-7.901427923061538	6.35224440077077	-11.757290791107692
O	-5.280047153061538	3.71503938077077	-11.301708351107692
O	-1.7666814830615383	-3.2352295092292302	-11.822608691107693
O	-0.39873538406153847	-2.36887053922923	-8.395413231107693
O	-0.21523643106153845	-4.64575478922923	-5.366708361107692
O	1.5177119869384617	-1.80939392922923	-3.3717018011076925
O	4.301924826938462	-2.69413271922923	-5.5307500711076925
O	7.010854696938462	-5.21838893922923	-5.213883391107693
O	8.578719676938462	-5.54550155922923	-8.695169111107692
O	12.618676526938462	-8.27975726922923	-9.160547981107692
O	13.454068226938462	-2.6019556092292304	-12.286118191107692
O	3.5771652669384615	-5.322706589229229	-9.009910351107692
O	3.3048492769384614	-8.01764806922923	-6.4256922611076925
O	5.8561171669384615	-10.41379636922923	-7.940780721107693
O	0.5513512129384616	-10.69797586922923	-9.337268141107693
