35

O	25.072455210943684	15.049206806227264	21.975862359160967
O	25.86833146268962	14.384678940908053	20.98719001669702
O	26.675081020444342	13.88145402044369	22.289170943894305
O	27.910015662017088	13.975272239554926	21.937354440283883
O	28.238506317261525	12.592604114235739	21.663978050365102
O	27.161637380933293	11.959533516775636	21.898298153251833
O	25.9861643516581	12.562969733890977	22.45985226775543
O	24.69514544432556	12.384902350503253	21.68120422477893
O	24.390141440223015	11.313956639483123	20.935411249890194
O	25.582390134313666	11.096708977292217	20.20676860782369
O	26.861436703994976	11.274179585475846	20.60114034305497
O	23.453933389925297	10.129511220126183	21.216278247870953
O	22.56792062364731	10.55425963929208	22.300157795011373
O	22.216343733167278	9.618279434309901	23.398638285123116
O	21.68902270721786	10.435814175567806	24.475012804928106
O	22.391421685632473	11.569823963265737	25.11034970168844
O	22.748358197156268	12.656691584225126	23.809748346909767
O	23.62977977815299	11.283765491641478	23.182806085370085
O	21.782605761883094	13.09937754093317	22.83696821844898
O	23.493758255832212	13.73983864581315	24.375444455528072
O	21.583343320932663	9.589276653779635	25.631932646452384
O	21.090204816022187	10.535363902179608	26.67446005493783
O	20.216920880004018	11.445556170483947	25.9644741719281
O	19.564108481103258	10.668288925890105	25.05124504460781
O	19.316129182929984	11.221616571093994	23.84583719786412
O	18.861345383034838	12.54150366235853	23.859598811323067
O	19.462509010564574	13.331899207732615	24.808866403745245
O	20.10387773662163	12.784863067011242	25.936733530316456
O	18.30637650258798	10.281937951697262	23.32827190604213
O	18.772984585848587	10.073368789108173	22.00520025068845
O	17.110191603244502	10.380860761808995	24.091351101736038
O	18.364136545028586	8.825909395147997	23.69753152453676
O	21.39149805078541	8.581581954628616	23.143546144016767
O	23.799120840699597	14.88048760179493	21.716362819252282
O	25.446995498866986	15.593332022696904	23.14581292151742
