105

O	3.7398672046799994	-1.40231626928	5.322543914323077
O	2.6302916446799998	-0.5267836882799999	5.684582844323077
O	2.52765717468	-0.1824343192799998	4.450432554323077
O	3.32633536468	0.6161365337200002	3.755181544323077
O	4.55626748468	0.041646797720000156	3.749506884323077
O	5.27511065468	-0.15431248427999983	2.5761894143230775
O	4.69615978468	0.13624934402000016	1.3240632743230774
O	3.43459360468	0.7710869517200002	1.3399230243230773
O	2.6810096346799996	0.7006601957200002	2.558916484323077
O	2.6133188746799996	0.2830368205200002	0.17582903572307737
O	2.4370487646799996	-1.18423815928	0.42456278032307737
O	1.23535346668	-1.74746273928	-0.26235525567692264
O	1.1246935846799997	-3.12524544928	0.19439014802307736
O	1.1544819306799998	-3.54648370928	1.6050322643230772
O	2.2569892846799995	-2.70116756928	2.580427964323077
O	1.89607913468	-1.1542574592799997	1.8257962943230772
O	1.51440887468	-2.67761157928	3.8311987543230774
O	3.5833258446799996	-2.84003989928	2.739223494323077
O	-0.25025222532000024	-3.51689653928	-0.15958492267692262
O	-0.20203560932000025	-4.93032851928	0.30194849632307735
O	1.1203853546799998	-5.43711568928	-0.053609390676922636
O	1.3347745246799998	-4.9153211492799995	-1.3237376256769227
O	2.5455602846799996	-4.59145892928	-1.6980642256769227
O	3.5970030546799996	-5.11885171928	-0.9334415956769225
O	3.41484051468	-5.50601606928	0.38994333832307737
O	2.1035025346799996	-5.97538238928	0.7199994433230774
O	2.49490746468	-4.82803773928	-3.1807529156769228
O	3.3833756646799995	-5.92891345928	-3.4139611156769227
O	2.9645918146799994	-3.62768124928	-3.7640263756769228
O	1.3391128546799997	-5.41426135928	-3.8946422256769226
O	1.2268320456799997	-1.6851071792799996	-1.6199852956769227
O	5.38748941468	0.7399021337200001	4.696793894323077
O	2.8139102946799994	0.7513513757200002	6.450225854323078
O	2.8204269346799995	1.85272092072	5.634252584323077
O	3.31691302468	2.9220348507200002	6.400403124323077
O	4.45408838468	2.28553054072	7.1968307043230775
O	4.77397657468	-2.13962229928	5.003802714323077
O	4.38208288468	-1.03773573928	6.598274234323077
O	3.1854616346799998	-2.58890721928	5.894160164323077
O	6.23367090468	-1.1464059392799997	2.6595154543230772
O	-3.2296345553200005	5.40807515072	8.288531844323078
O	0.06156981767999975	4.54233161072	9.961564294323079
O	2.3049675546799997	6.37031438072	7.481770194323078
O	0.16169683407999974	6.31590960072	4.4145198543230775
O	-1.8425689653200004	8.860785940720001	2.3928893443230774
O	-0.12865047332000024	10.81630795072	-0.3442472216769227
O	4.68570704468	13.701720850720001	-2.5923375956769226
O	3.5045492546799997	10.266734750720001	-3.6212058056769227
O	1.9076176246799998	7.46041749072	-1.6303494156769227
O	-1.5110943053200003	6.43715355072	-2.972577435676923
O	-1.37824750532	2.65233185072	-3.0639663056769226
O	-4.27259619532	0.5503438837200001	-4.369349285676923
O	-2.4126104853200006	-2.51879255928	-3.3522857956769228
O	0.29743906107999973	-2.13803424928	-6.0619767356769225
O	0.9715040036799998	-1.4127195692799996	-9.608023615676922
O	4.26625123468	0.4845503587200002	-9.933304865676922
O	4.89942533468	4.21100847072	-10.008412965676921
O	8.247747434679999	4.42275423072	-8.198488675676922
O	10.67824730468	-5.31906802928	-5.477403025676923
O	11.27960140468	-7.28716940928	-2.289532795676923
O	12.651109604679998	-3.80461761928	-0.6472796966769226
O	13.432091004679998	-1.27108107928	-3.3509851356769227
O	10.89438540468	3.34865564072	-11.633282265676922
O	15.83774570468	-1.13525386928	2.3903910243230775
O	13.215623704679999	-0.14745117127999985	4.901899604323077
O	11.225457904679999	1.51990582072	2.049313874323077
O	11.046302704679999	5.19088279072	2.9682614543230774
O	9.335790034679999	6.02744293072	6.287089924323078
O	5.88181191468	10.206718460720001	6.199218774323077
O	6.27003316468	11.044924150720002	0.8442673193230774
O	7.46503312468	7.86277446072	-4.0042981356769225
O	4.58616613468	5.45150006072	-4.4723489856769225
O	1.7122750546799996	5.40838007072	-6.912154965676923
O	0.5425340456799997	1.8628376107200002	-7.592517615676923
O	-3.7876139853200006	-1.7115995792799996	-9.160915825676922
O	-3.56715469532	-3.7416380292799998	-12.382012765676922
O	0.9292128696799997	-7.53703669928	-10.428334065676921
O	3.3172148346799997	-4.92944697928	-11.828992865676922
O	-9.146640405320001	8.66684122072	3.1890096743230774
O	-8.24965845532	-7.59431060928	-12.188784265676922
O	-4.87279071532	-7.87954386928	-10.475448865676922
O	-5.27715529532	-6.56144106928	-6.923618605676923
O	-8.615345085320001	-4.9216859592799995	-6.283378865676923
O	-8.839020145320001	-3.31516736928	-0.8197913316769226
O	-5.45672235532	-1.8265881092799998	-0.07959923267692265
O	-4.67409284532	1.7371528507200003	0.8295006583230774
O	-1.2127092053200004	0.9532517147200001	1.1715851543230773
O	-1.8580478453200002	-1.30452527928	4.269374994323077
O	-2.5741950953200003	0.29049287892000014	7.6061008943230775
O	-4.60683098532	-2.45245657928	9.215195074323079
O	-7.77811600532	-4.45125347928	8.644881514323078
O	-6.04907144532	-7.795430949279999	8.199699334323078
O	-6.79660794532	-5.36333243928	13.263964034323077
O	-4.18874878532	-8.037652329279998	12.733222834323078
O	-3.6957074353200006	-11.52040554928	11.363940134323078
O	-2.90296994532	-12.36056104928	7.806094384323077
O	-1.4300164853200004	-15.397224649279998	6.050760764323077
O	-2.1118874353200003	-13.69441744928	2.6685537143230773
O	-6.86217765532	-6.88183871928	3.5431151443230773
O	-9.09240213532	-3.8965147792800003	3.868248834323077
O	-6.3888449953199995	-1.4207595092799998	4.739804894323077
O	-6.44608497532	2.28281342072	5.439094994323077
O	-8.193350585320001	2.08706599072	8.779833474323079
O	-11.171542695320001	0.46212408272000016	7.086958914323077
O	-10.98820299532	2.72451436072	4.058548104323077
