112

O	3.620312929970769	-9.155352997523076	-0.8721851404923071
O	5.326049179970769	-5.567467417523076	2.6771022895076926
O	5.013536379970769	-5.829454187523076	1.380669659507693
O	3.655601609970769	-6.283619807523077	1.2678689895076927
O	2.687937349970769	-6.710113307523076	2.128910699507693
O	3.602325679970769	-7.267684977523077	2.894294789507693
O	4.80330389997077	-6.6028996875230765	3.382223319507693
O	2.191083899970769	-4.443607747523076	1.2235371295076929
O	4.195207329970769	-5.130030847523076	-1.7734580204923072
O	4.93765190997077	-4.069378747523076	-1.4161699914923072
O	4.590527009970769	-3.0555715175230764	-0.6254315775923072
O	3.321408979970769	-3.061931847523076	-0.3097427454923071
O	2.679523009970769	-4.206754237523076	-0.10109881249230712
O	2.9950181199707693	-4.948636487523077	-1.1956478024923072
O	5.024191379970769	-2.3221191275230764	0.5298935795076928
O	4.094886729970769	-0.11022306652307627	1.6444862495076928
O	3.528527779970769	0.5544262194769237	0.3904713725076928
O	3.321912189970769	-0.02096397852307627	2.8959597495076927
O	3.117806179970769	-1.1455238075230763	3.7778412395076924
O	4.4005072699707695	-6.561054227523076	-1.760604500492307
O	4.314871299970769	-1.3415332875230763	1.2356681695076928
O	2.4984143399707692	-7.580541907523076	-2.932012250492307
O	1.8475745989707693	-7.317069787523076	-0.8894449004923071
O	2.8229874099707692	-3.8200784675230763	2.094273929507693
O	5.809918059970769	-2.7059879975230765	1.410506529507693
O	3.1184624399707688	-7.732514847523077	-1.6365918704923073
O	4.153223969970769	-1.9839215575230762	4.0835384095076925
O	3.994686689970769	-3.280023827523076	4.580373779507693
O	2.783481459970769	-3.612941077523076	5.045243429507693
O	1.697197367970769	-2.838234107523076	4.788662259507693
O	1.9850928819707692	-1.4954500175230763	4.504337469507693
O	5.005562089970769	1.0707651624769237	-1.2832826504923072
O	5.277029249970769	2.2053944624769235	-0.38159441649230713
O	5.527040829970769	3.5445484124769235	-0.9225759584923072
O	7.486203159970769	-0.008164152523076285	0.7768621995076929
O	8.529242889970769	-0.5149530155230763	-0.16334949449230712
O	8.55194508997077	-1.9712505075230764	-0.16119057649230717
O	8.649537969970769	0.35971083447692365	-1.3217464414923072
O	6.268295789970769	0.22630102047692371	-1.3029819954923072
O	1.657752894970769	-6.027393827523077	3.027556309507693
O	1.972164454970769	-5.874300177523076	4.462225349507693
O	5.798081089970769	-6.875091147523077	-1.6037571904923071
O	4.041700069970769	0.049300156476923734	-0.8539274494923071
O	7.392975579970769	0.9946119224769236	-1.752086210492307
O	1.613335499970769	-4.885832657523077	2.2560082595076927
O	4.14930960997077	2.5133406124769238	0.40750912450769283
O	6.142862359970769	-0.8360496715230763	-2.014883890492307
O	-5.907689200029231	-1.1527210375230763	11.018145069507693
O	-5.942854760029231	-4.280856757523076	8.840134029507693
O	-4.626604410029231	-5.553139007523076	5.500699319507692
O	-1.515190070029231	-7.083032767523076	6.937450189507692
O	-0.35869359002923085	-3.9971553475230763	8.962719359507693
O	-2.026469830029231	-1.2406661575230764	6.987051529507693
O	-4.847582760029231	1.1713756524769237	7.475871539507693
O	-4.259393450029231	4.528692302476924	9.122229959507692
O	-0.860028730029231	8.034470632476925	9.543600569507692
O	-0.6882727500292308	5.075052372476923	7.047983449507693
O	-3.0517613400292314	5.706546252476923	4.119361789507693
O	-0.8510995800292308	4.6978587524769235	1.1495709295076928
O	-2.154800060029231	5.171776712476924	-2.442913080492307
O	1.1409635699707692	3.599996392476924	-3.658062970492307
O	3.263309019970769	6.664906532476924	-2.8619887204923073
O	3.315543569970769	10.405737512476925	-2.866566520492307
O	5.123062849970769	11.631316512476925	0.2382819095076929
O	3.642597129970769	12.800757112476925	3.5142416095076925
O	6.331904949970769	11.565795712476925	5.9224548895076925
O	13.65504672997077	6.903974692476924	-0.028985881492307186
O	15.13045612997077	3.413615852476924	-0.37255280649230715
O	14.37536442997077	2.8289953324769237	3.6861215895076924
O	13.65378932997077	6.118870762476924	5.291147409507693
O	12.68018522997077	-1.3275234575230763	8.566803679507693
O	10.21638880997077	1.6541530824769237	8.109425299507693
O	6.011747469970769	-1.7616620575230764	11.906729969507692
O	0.8248595879707691	-1.1808717425230761	13.560503569507693
O	3.799540499970769	8.306745552476924	9.490716169507692
O	2.576201919970769	7.763494342476924	5.973153919507693
O	0.19158278997076905	9.757504212476924	3.739253319507693
O	1.235190655970769	9.163918772476924	0.13060943250769286
O	-0.538135180029231	9.276446932476924	-5.368685780492307
O	0.7723033449707691	11.919751612476924	-7.805959690492307
O	-11.01157337002923	-0.4029010745230763	3.9000443295076925
O	-1.1152458400292309	10.228072612476925	-13.277587730492307
O	1.8503481409707692	8.879674262476925	-11.283621730492307
O	0.6969072689707692	5.778928402476923	-9.425065650492307
O	-3.081623510029231	5.269706262476924	-9.602029880492307
O	-2.056632240029231	0.07361934547692375	-9.913725200492307
O	-4.265830060029231	0.42430437347692374	-6.836850110492307
O	-2.001788630029231	0.24930258247692375	-3.684186270492307
O	-3.6267533200292306	0.6139816084769237	-0.22566178049230712
O	0.06020518397076913	0.20102007347692372	0.9952842795076929
O	0.0619688469707691	-3.1712345375230764	-0.43557507649230714
O	-1.519616340029231	-6.138202777523076	1.270378429507693
O	-1.8776096000292308	-8.606725357523075	-1.476103743492307
O	-3.5484189100292314	-8.764175297523076	-4.881551620492307
O	-0.425999580029231	-9.039042677523076	-7.031997590492307
O	1.2275689549707691	-17.322348187523076	0.1708616445076928
O	-3.3936692300292313	-13.253475587523075	-0.3503319764923072
O	-2.553172210029231	-13.366794587523076	-4.017679730492307
O	0.9202386868707692	-13.403332287523076	-5.299305150492307
O	3.372275309970769	-12.799006887523076	-8.101679840492308
O	4.820619809970769	-9.474569567523075	-9.124013170492308
O	7.630099059970769	-8.466120207523076	-11.510949330492307
O	6.466335029970769	-4.858699997523076	-11.229033330492307
O	-1.0924974100292308	-4.407498857523076	-7.667933750492307
O	-4.650529920029231	-4.166863487523076	-6.298283610492307
O	-3.681217750029231	-4.160829497523076	-2.648384510492307
O	-5.679723520029231	-3.8820657275230763	0.5529360295076929
O	-7.30847854002923	-7.324457607523076	0.3729399155076929
O	-8.90385601002923	-6.3499443975230765	-2.9389486904923072
O	-9.70407687002923	-2.9157763975230764	-1.672635040492307
O	-11.55156357002923	-4.468055347523077	1.2739013195076927
O	-14.36815217002923	-5.560614437523077	-1.0317564804923072
