46

O	28.564704791269822	14.354284330039428	21.318822838289886
O	28.286860751607776	14.980096580712743	22.634268019477293
O	27.10662998347514	15.786852857499433	22.93923623793589
O	26.170642181294077	15.135324667982909	23.806493362031986
O	26.43009214943425	15.022589592109737	25.19935732373241
O	25.335775709874184	14.752295301044636	26.011413527959004
O	24.35235216731388	13.978815414406021	25.47304777893783
O	24.547118579498523	13.709642898833748	24.129995673256538
O	25.83339990725682	13.776314376722958	23.579987167894036
O	23.419106933025923	13.124290475541018	23.509770924433024
O	22.45168276116602	13.808600711441015	23.45771886846627
O	23.726643972730145	11.81553648088628	23.181896171874182
O	23.213626656286152	10.859718580285607	22.348932700552208
O	24.015083218465833	10.768350131323873	21.13940108633571
O	24.699541014976127	12.101931359225176	20.914615619351284
O	26.006670280349496	12.336103095068582	20.453580643236233
O	26.248902856005422	13.426796665344465	19.609227217861175
O	25.774892580286156	14.603032101879801	20.188401224721787
O	24.575819147110252	14.55401481136886	20.794380815176382
O	24.007040038034855	13.310493803507836	20.813388980041097
O	22.87257410806646	9.56311476471823	23.105895869037486
O	22.524942264728104	8.48739013459099	22.376900033454497
O	22.085467457141597	9.743429080879368	24.23700628975324
O	21.018200398560495	8.94972666872664	24.70087819299373
O	20.46229686011295	9.949483155685783	25.54473955675966
O	18.937017362745877	10.127729499159708	25.55640124827415
O	20.677472554717937	11.350390563110002	24.93440130187817
O	20.271542922551728	12.47243398885369	25.19634184953685
O	20.844969716351976	11.168835947723723	23.59865030219886
O	20.580549980892652	11.621126876170022	22.41447775340245
O	20.101472883714862	10.470250789454512	21.588502146086075
O	20.62111493965533	10.692722888230229	20.20703623076914
O	21.096198815230167	12.068472902558268	20.001592845953642
O	20.67843261168774	13.230485562654412	20.815852285526283
O	20.05840853606622	12.91855990480062	22.18417389949287
O	25.08950470272341	15.631606350001867	27.122364734168528
O	23.740553991717547	15.955881736196524	27.28973953719909
O	23.196335008378064	16.425679409511204	26.07372488608985
O	21.836725906653662	16.550691454378217	25.85870489783978
O	21.0099974924673	15.772426905394964	26.610199398851854
O	21.55220902382046	14.85911844935098	27.466862195677145
O	22.816755473443244	15.17658418414252	27.981280566860974
O	26.405950860746024	16.765382810363732	27.244950924230356
O	25.81886357322156	18.295105402406634	27.144911955859943
O	27.260657843992615	15.973196480775187	28.072544800248295
O	27.357416612969796	16.81665479606042	26.004257233731156
