83

O	-0.5574783121960786	2.8988771870784307	-5.053935862094118
O	-0.004581748196078594	1.6826094770784308	-4.446149662094118
O	1.3362846518039215	2.016031655078431	-4.551283612094118
O	1.5049807918039213	3.308178847078431	-4.352323362094118
O	0.5072053218039214	3.849569267078431	-5.243234792094118
O	-1.0852607011960786	2.493756467078431	-6.143339162094119
O	-1.0431041861960786	0.7006954710784308	-4.979285942094118
O	-1.2566531201960787	1.4840531687784309	-2.775347106094118
O	-0.08097242819607864	0.5454850420784307	-6.214525902094119
O	1.0193885318039215	-0.07974803292156918	-5.441594912094118
O	-1.2474118681960786	2.908421717078431	-2.838544807094118
O	-2.599370888196079	3.323568477078431	-2.513089204094118
O	-3.1000374081960786	2.3648897770784307	-1.478711042094118
O	-3.5741382281960785	1.1158220420784308	-2.221513725094118
O	-2.4285386981960784	0.8086530130784307	-3.189517759094118
O	0.6104682618039212	-1.1280718729215693	-4.501365542094118
O	1.8528475318039215	-1.7121651929215693	-3.958594932094118
O	2.4323349318039216	-2.3469626629215696	-5.1718069520941174
O	2.614026691803921	-1.4921590529215691	-6.3726271220941175
O	2.2229811118039216	-0.06861186292156929	-6.198956192094118
O	2.7094545418039213	4.0873407270784305	-4.205631012094118
O	-3.6578051381960788	3.521713737078431	-3.276744932094118
O	-3.8184845081960788	2.8922264070784305	-4.5229780620941185
O	-0.10296485819607848	0.8769084200784307	-3.213227298094118
O	0.6011731918039214	4.919293587078431	-6.197900112094118
O	-4.9148429081960785	2.266780649078431	-4.326741992094118
O	-3.7541173081960784	3.535042847078431	-5.851002022094118
O	-4.192394878196079	2.8800627570784307	-6.9994885520941175
O	-3.359292238196079	2.7432147070784305	-8.140361192094119
O	-3.1937314481960786	4.672525417078431	-6.361242912094118
O	-2.4688878581960783	4.661210017078431	-7.5940405720941175
O	-2.1299757011960785	3.433038987078431	-8.145367782094118
O	-7.798454868196078	5.583704107078431	2.7651401279058816
O	-4.333951318196078	5.572852657078431	4.414189637905881
O	-2.4435182181960786	5.2339149170784305	7.632199977905881
O	-1.8373933481960787	1.7947106430784308	9.054505877905882
O	-1.0376264381960785	-2.8274820329215693	7.627669977905882
O	-0.9154834591960785	0.21714273707843068	5.2813762379058815
O	2.3399137518039215	2.200568517078431	5.830812677905881
O	3.5099369218039214	2.815560297078431	2.210069077905882
O	6.766709361803921	4.629458537078431	1.4455045579058816
O	6.005167001803921	4.395042257078431	-2.240768550094118
O	6.474320091803921	0.6329773950784308	-2.616824222994118
O	8.716941971803921	-2.1688567429215695	-1.446820282094118
O	6.686177151803921	-5.31109043292157	-0.738436702094118
O	5.142976061803921	-6.493271542921569	2.460716937905882
O	1.9068633318039212	-8.051133042921569	1.2525803079058817
O	-1.0888498691960786	-9.16577448292157	3.271189187905882
O	1.5766037918039215	-6.939082462921569	-8.952469972094118
O	-0.6639823381960785	-5.11921158292157	-11.463950832094119
O	-3.9239812381960784	-5.668335192921569	-8.918639722094118
O	-3.1011288081960786	-8.38219849292157	-6.3844508120941175
O	-1.5582688161960785	-11.74818998292157	-6.796616752094119
O	3.5261118518039214	-11.95947688292157	-0.08039044209411816
O	-6.980073718196078	-9.04310288292157	-5.642399532094118
O	-8.917303368196078	-6.62998511292157	-7.815727992094118
O	-9.657866348196078	-3.1291171529215696	-6.489695822094118
O	-6.801405218196079	-3.43258651292157	-4.001465182094118
O	-8.637287028196079	-3.55428529292157	-0.657456232094118
O	-10.569672908196079	-0.38270230292156926	0.23323910790588176
O	-13.94740302819608	-0.927856402921569	1.9273386879058818
O	-10.016385038196079	1.3525918600784308	5.386262827905881
O	-9.651415068196078	-1.178833142921569	8.224296377905882
O	-6.300936298196078	-2.339489042921569	6.718606247905882
O	-5.567307548196078	-5.88469538292157	5.549581277905881
O	-2.1871550211960784	-5.45225940292157	3.8904624079058823
O	0.5145235418039213	-3.1069899629215696	2.7532435379058815
O	3.944414321803922	-2.3929817029215696	4.078915657905881
O	6.3366734818039205	-1.2452378329215692	1.421017557905882
O	10.978465071803921	1.8184753590784308	-0.11163557209411801
O	11.531594871803922	-1.5084103329215692	-6.887233032094118
O	10.42232147180392	-4.699945622921569	-5.127622602094118
O	14.55702707180392	3.115466547078431	-5.243257202094118
O	11.53206447180392	5.265121057078431	-4.436951202094118
O	4.764195361803921	8.58685475707843	-0.9528116920941181
O	2.5869123918039216	7.913580587078431	2.150819017905882
O	0.5622117118039214	5.5968175170784304	0.004095617905881976
O	-0.7506655271960786	8.464150727078431	-2.133624144094118
O	-3.3916214281960784	10.761656917078431	-0.757700992094118
O	-2.6827341181960787	13.97107581707843	-2.707413124394118
O	1.4746660418039212	12.268283317078431	-0.635358272094118
O	-0.23692500819607853	11.97579401707843	2.7179702379058823
O	3.142004291803921	14.57678041707843	4.937917737905883
