18

O	21.463819833057716	13.756570797202679	22.52889005326856
O	20.10857571340251	10.052805016657064	20.731663128845526
O	21.294646952575345	9.751076088094713	23.0093156410393
O	21.22260538828533	10.406232871995083	21.761250409693158
O	22.39586437657534	9.811288398917487	25.074899509364485
O	22.167541915984373	10.388054789423279	23.76638912573022
O	22.40907027282433	11.804337829298618	23.633256701619935
O	22.80034802798567	12.561035765383558	24.787716630016817
O	21.4762226543063	12.586589169077172	22.931080391027926
O	20.62077804740606	11.730678992020632	22.053264889267503
O	22.24334329785361	9.931135551934428	20.911289053141783
O	23.63113583279788	10.196212259516194	20.865191466187632
O	23.822529630228406	11.193430719191642	19.738380928191205
O	23.6553329399764	12.49174744944072	20.133596285404874
O	22.674790842842533	13.3199604108349	19.588168022322467
O	21.631189510155256	12.548782875524978	19.057182962767524
O	22.14221167527197	11.660372082748825	18.081199958474244
O	23.188175170511727	10.867602321825816	18.576003395069506
