86

O	-2.5026175128793104	-2.348706248412069	4.68277213087931
O	-3.0756000028793107	-1.099409538412069	4.92056849087931
O	-2.3639644008793104	-0.214377103912069	4.160675950879311
O	-1.6622983428793103	-0.6814894924120689	3.1438144108793105
O	-0.7302951888793104	-1.6296765284120691	3.3996357708793106
O	-1.3110204868793103	-2.6366896984120687	4.100395280879311
O	-2.5955218928793107	-0.366897755112069	2.0325517608793104
O	-3.78524321287931	-0.816223543412069	1.9953428808793103
O	-1.5947879988793103	-0.495494954412069	1.1095091308793104
O	-3.3627861728793107	-3.367051118412069	4.67601811087931
O	-4.122934622879311	-4.289384248412069	4.83012110087931
O	-1.8903215988793103	-1.594696258412069	0.2077500988793104
O	-3.1866380728793104	-1.5120651284120692	-0.0947752041206896
O	-3.7666647528793105	-2.696526638412069	-0.2841894038206896
O	-3.66933254287931	-3.462162288412069	0.8779468008793103
O	-2.3285502098793103	-3.546711298412069	1.2847801308793103
O	-1.3577223748793104	-2.715738628412069	0.7773712108793103
O	-2.0355765948793105	-4.970502308412069	1.2392372408793104
O	-2.6600540228793106	-5.777687908412069	2.29017089087931
O	-1.4424190924793103	-6.59749805841207	2.4746598408793106
O	-0.43998534287931035	-5.607131868412069	2.9251699808793106
O	0.004903037120689513	-4.625375018412069	1.9400748608793106
O	-0.5932724988793104	-4.881725078412069	0.9079386808793104
O	-2.4614475788793104	-5.826615788412069	0.07553917887931044
O	1.4641266471206895	-4.92568576841207	1.9063777308793104
O	-4.584909592879311	-3.735469588412069	1.8127640408793102
O	-3.86893361287931	-5.687191498412069	0.1720467948793104
O	-2.20372905687931	-4.891786718412069	-0.9538419731206895
O	2.0813620971206896	11.421463211587932	1.0738807608793104
O	-0.029979512879310333	9.252950411587932	3.3882343408793103
O	0.17818012712068954	7.53417437158793	6.7916386108793105
O	0.7441001671206895	4.020539311587931	8.271760490879311
O	-2.8872161628793105	2.982849661587931	8.44381263087931
O	-3.81294778287931	3.607668521587931	4.8065077708793105
O	-0.37363165287931044	3.7877575115879307	3.2024344208793103
O	2.179667297120689	5.902843951587931	1.6325217208793104
O	1.8340527471206898	6.788486931587931	-2.0305447591206893
O	-1.5536861628793104	8.201787281587931	-6.789406069120689
O	0.08304415712068969	4.862851721587931	-6.24744532912069
O	0.7179837471206898	2.958315541587931	-3.0700232891206896
O	4.40987116712069	2.1932510615879313	-2.4795298791206895
O	4.44343671712069	-1.515826578412069	-1.6111821691206896
O	7.62097406712069	-3.4448000784120687	-0.9095249991206895
O	5.48666786712069	-6.513418748412069	-0.05075617912068958
O	4.24040254712069	-7.2521665284120695	-3.6015020591206897
O	5.4241819271206895	-7.265607948412069	-7.16824076912069
O	2.5583842471206895	-6.034876568412069	-9.356181499120689
O	1.9655539371206896	-2.560673068412069	-10.72651153912069
O	-1.8526467358793104	-2.469053988412069	-10.635922439120689
O	-4.175707662879311	0.48271079958793106	-11.059427239120689
O	-6.99021016287931	-12.809489288412069	-3.9439969391206895
O	-9.077518442879311	-9.215249978412068	-3.7153678691206897
O	-8.625633102879311	-7.457296098412069	-7.01789348912069
O	0.11311066712068962	-2.646308778412069	-15.86363703912069
O	-13.34449428287931	-6.360944198412069	-3.05350224912069
O	-12.196699982879311	-4.4557786384120694	-0.018855626120689584
O	-9.11693967287931	-3.342837698412069	-2.0072288991206895
O	-9.467802042879311	0.401000335587931	-2.30977008912069
O	-9.49063234287931	2.305447461587931	0.9938603908793104
O	-12.01974918287931	5.23710572158793	1.1942781208793103
O	-10.02839120287931	8.475312281587932	1.6684283108793103
O	-6.52716508287931	6.922456511587931	1.1610630908793103
O	-6.23956131287931	9.131841921587931	-1.9182348891206897
O	-4.44955853287931	6.3371483315879304	-3.86373308912069
O	-5.75958220287931	4.610160771587931	-6.99015071912069
O	-3.2294067528793104	1.872806331587931	-7.55424175912069
O	-0.4336839528793104	-0.19193324021206898	-5.916305019120689
O	3.29979243712069	-0.26051129271206896	-6.96091080912069
O	4.7557529771206895	-3.6353779884120687	-6.09018477912069
O	8.48102897712069	-3.1511372984120687	-5.55176975912069
O	9.45213731712069	-6.70878504841207	-4.6387683391206895
O	8.22007947712069	6.901019271587931	5.606854070879311
O	9.86333191712069	-10.678511788412068	-0.7990584131206895
O	6.813220457120689	-4.514293998412069	3.89492697087931
O	5.5264567171206895	-0.966474867412069	3.4220701108793103
O	2.1853162771206893	-2.144911638412069	2.3979795708793104
O	1.7183628871206895	-3.6077021284120687	5.886479110879311
O	0.7673934871206896	-1.180542257412069	8.78236898087931
O	1.9939437171206895	-3.086010288412069	11.87362706087931
O	0.5027198171206897	-1.396615888412069	16.272126660879312
O	0.1363484871206897	-7.861050568412069	16.07174896087931
O	5.55291358712069	-2.8381089184120687	8.40384518087931
O	4.92056253712069	0.8288805715879309	8.02663339087931
O	5.08295313712069	1.7028799015879312	11.75321616087931
O	9.68345931712069	1.7161243915879312	8.78563904087931
O	8.64609691712069	5.126461301587931	10.14387206087931
