83

O	3.127583573062295	-0.5572127179786888	-1.0087136950000002
O	3.2758088330622948	-1.1555831449786886	-2.179097679
O	3.2754462630622947	-2.516322594978689	-2.219768479
O	3.1427896230622947	-3.2276688449786883	-1.0591215600000001
O	2.922354653062295	-2.659226574978689	0.2282343819999999
O	2.657750663062295	-1.3035777749786888	0.06129068799999993
O	2.646489203062295	-3.5977701049786885	1.297082871
O	1.2120292630622949	-4.129240774978689	1.0224340609999998
O	3.395651183062295	-4.900230984978689	0.9633209709999999
O	4.021078063062295	-5.3349945949786886	2.2104258310000002
O	5.107161183062295	-3.832054564978689	2.6251851209999995
O	3.7182988030622948	-2.9819924349786886	3.405905581
O	2.633821333062295	-3.3250225249786887	2.751504701
O	3.981721133062295	-2.5146332849786885	4.681201111
O	4.024981623062295	0.5587657370213113	-0.7142765675000001
O	3.562562053062295	1.4630735650213114	0.15008056199999986
O	4.225888793062295	2.6601885650213113	0.22050450899999985
O	5.475385543062295	2.633932735021311	-0.2136673610000001
O	5.980372673062295	1.4043977650213113	-0.1676116700000001
O	5.304886053062295	0.25775631132131127	-0.3472971260000001
O	4.0275383930622946	-0.5173230969786887	-3.1249127990000005
O	4.0441096730622945	-4.2767374149786885	-0.9529821430000001
O	-3.377628736937705	11.757534565021311	-2.940876009
O	0.06160200026229484	10.351744565021312	-3.5460379890000002
O	5.983596603062295	8.624940815021311	0.12420395499999992
O	7.6772699930622945	6.671393055021311	-2.652373909
O	4.515483533062295	5.247083995021311	-4.229388139
O	2.050399413062295	5.634950275021311	-1.404685992
O	-0.9652227679377052	7.586401145021311	-0.3127661050000001
O	-4.383994576937705	6.505309165021311	-1.4954705000000001
O	-8.123332136937705	4.355046625021311	-5.737043649
O	-6.924221096937705	2.446698285021311	-2.714521749
O	-3.629962636937705	2.518308115021311	-0.9190089350000001
O	-3.840842186937705	3.4564311850213114	2.7633607709999994
O	-1.822022676937705	0.8420695250213113	4.628784301
O	-1.4700920169377052	0.6820938310213113	8.385296401
O	1.067322073062295	-2.1863546949786885	7.942894671
O	-1.3627190669377052	-4.855683584978689	6.693986161
O	-4.901619456937705	-6.081019904978689	7.356532401
O	-6.449983806937705	-7.046427824978689	4.0128954509999994
O	-8.708850926937705	-5.032157134978689	1.7582081809999999
O	-7.522553886937705	-6.244205414978689	-1.6638522080000002
O	-8.235451506937705	-4.839073204978689	-5.0984729390000005
O	0.03530942406229484	-13.156062134978688	0.06206303599999985
O	3.803557963062295	-13.328394034978688	-0.5775215860000001
O	3.253715203062295	-11.072133634978687	-4.010476049
O	-0.4368969279377052	-11.083220134978689	-4.903961919
O	-2.957101316937705	-13.937279334978689	-5.282380219
O	-12.657374446937705	-8.095272704978688	-0.4757534550000001
O	-9.754994726937706	-10.077854634978689	-1.878846629
O	0.39057687106229483	-10.297914634978689	-8.818994379
O	4.165222973062295	-9.971690834978688	-8.993171379
O	5.791544193062295	-6.616172994978689	-8.340185019
O	2.684386033062295	-5.505477694978689	-6.411910129000001
O	1.166516473062295	-2.775640254978689	-8.561719319
O	3.354063893062295	0.29371260772131125	-9.110823799
O	3.258050203062295	1.8749081550213114	-12.616486469
O	1.902342013062295	5.418883055021311	-12.237840569
O	0.9740445530622948	5.151745565021311	-8.480886109
O	-2.637716276937705	5.658187645021311	-9.647932009
O	-3.8949755669377053	3.1156125450213112	-7.055746479000001
O	-5.6991195369377055	-0.14969197297868875	-7.859580039
O	-5.915743506937705	-1.7703240849786888	-4.449333729
O	-4.7742560569377055	-1.703612444978689	-0.8385453210000001
O	-6.636016486937705	-0.9507520449786888	2.3929440709999996
O	-5.072312746937705	-2.8428434549786887	5.287715350999999
O	-5.909755656937705	-0.9189559449786888	8.438277721
O	-4.103770006937705	-3.0842722249786885	10.986936731
O	-5.587677676937705	-5.886379294978689	13.096611531
O	0.24956646806229485	12.361232665021312	5.0947871209999995
O	0.5867259070622948	-4.435948054978689	13.593332731
O	3.399816053062295	1.7247134650213112	8.773100711
O	2.0667760930622947	4.0286610550213116	6.024927151
O	2.775923823062295	1.3392321580213111	3.4448582809999992
O	6.551385943062295	1.6069794050213113	4.108502741
O	8.388717113062294	4.727792595021311	2.584916451
O	11.374568353062294	4.983104235021311	4.861856531
O	19.512658253062295	4.865312525021311	0.13372089099999984
O	15.078894253062295	7.882596985021311	3.3762696009999997
O	7.113484763062295	4.748410455021311	7.404916790999999
O	5.574084933062295	7.466389235021311	5.304565951
O	8.496771523062295	9.892330805021311	5.455744831
O	4.451831533062295	10.125004015021313	9.174382211000001
