83

O	-2.3596645337288136	6.0945472580169495	0.2413427041016949
O	3.821898756271187	3.459804888016949	-4.274449435898305
O	4.0571821162711865	2.656233076016949	-2.574257328898305
O	4.296591696271187	1.476770921016949	-3.180443365898305
O	3.2459135062711866	0.9676217880169491	-4.020289935898305
O	2.259354216271187	1.8430970443169492	-4.736303855898305
O	1.3259122362711864	2.8086271680169492	-4.183258235898305
O	1.1438428762711865	2.111447966016949	-2.9209396068983047
O	1.0770577162711863	0.603663908016949	-3.246311765898305
O	2.5481145162711867	0.4933014280169492	-2.857744462898305
O	-0.12388182672881354	2.156530619016949	-2.231586607898305
O	-1.2228227137288135	2.359906256016949	-3.006578935898305
O	-1.2137145047288134	2.041942798016949	-4.197957945898305
O	-1.9190340337288134	3.4899197480169493	-2.307594878898305
O	-2.7758816637288133	4.086641258016949	-3.249631295898305
O	-2.5986032537288133	5.513642268016949	-3.4107154958983052
O	-1.9864868337288133	6.12165028801695	-2.299831851898305
O	-2.0108149437288136	5.355476308016949	-1.192383290898305
O	-1.4147616837288135	4.132069018016949	-1.216108874898305
O	3.3058797662711865	2.5208776950169494	-5.633028525898305
O	4.143774086271186	1.3462725770169492	-6.1425357458983045
O	3.1657305462711864	0.3149696380169491	-6.137794485898305
O	3.4618049862711864	-0.23642374198305105	-4.860020575898305
O	5.2233224762711865	3.2146007780169494	-1.9435435786983049
O	-2.7657212837288134	8.757623528016948	5.6336815241016955
O	-4.759701613728813	9.488141488016948	2.4682198841016953
O	-6.277662283728813	5.969899248016949	2.038729284101695
O	-3.7271385437288136	3.875138088016949	3.9546250741016955
O	-3.4459434337288135	1.916178207016949	7.0123688841016945
O	-4.569761003728813	-1.674028381983051	6.989020414101696
O	-8.355590853728813	-6.059694231983051	5.278274844101695
O	-4.835663453728813	-5.558703661983051	3.9933398641016957
O	-2.8511860337288133	-2.4023280219830507	3.3195093941016953
O	0.40106674627118644	-2.2681548119830506	5.365616764101695
O	3.0027284362711866	-1.2035890319830507	2.6959877741016953
O	6.669218266271186	-0.8682002919830507	3.5868608941016955
O	7.367649526271186	0.3334702580169491	0.10631575410169503
O	6.696861686271187	-2.9652356819830503	-1.763624347898305
O	7.324310366271186	-6.653499201983051	-1.395403173898305
O	4.267467516271187	-8.570644211983051	-2.629709713898305
O	1.3513072662711867	-9.919872211983051	-0.6989334958983049
O	-1.4994867117288135	-9.36389991198305	-3.1758722558983052
O	-5.244476513728813	-9.66206011198305	-2.594168390898305
O	2.5781402462711864	-5.068070721983051	-11.621986715898306
O	2.2962829462711865	-1.6609623919830507	-13.380397645898306
O	-1.6517641737288136	-1.4240231819830507	-12.159978145898306
O	-2.7895896337288133	-4.851092441983051	-11.010095245898306
O	-2.5659356937288136	-8.27872651198305	-12.673088045898306
O	-0.27124885572881346	-14.787226911983051	-2.552341958898305
O	-0.8433320637288135	-12.91102291198305	-5.774486505898305
O	-6.632095023728813	-0.24917021198305078	-12.881077345898305
O	-6.661566723728813	2.582096973016949	-10.322415375898306
O	-5.471438903728814	0.13349768801694917	-7.675084795898305
O	-8.377845733728813	-0.25565251198305083	-5.273073775898305
O	-9.473149603728814	2.946917188016949	-3.526895065898305
O	-13.215735053728814	3.434199528016949	-3.092241185898305
O	-13.966126653728814	3.488930588016949	0.6428571741016949
O	-10.423962023728814	2.524713991016949	1.8053188341016952
O	-12.030574653728815	-0.6401930919830507	3.2700520241016955
O	-8.919286713728814	-2.6549173719830508	2.229707044101695
O	-5.285252393728813	-6.297134871983051	-0.5835030758983049
O	-1.7228256637288135	-5.129684041983051	0.06262326410169528
O	1.0134080962711867	-6.444693561983051	2.3038303241016953
O	4.450342576271186	-5.69291396198305	0.9708019441016951
O	6.834029816271187	-5.5996187419830505	3.8716934541016954
O	10.032564946271187	-4.70124428198305	2.0460113541016955
O	12.702537746271187	-7.071517351983051	0.705891084101695
O	0.5131923762711864	4.998374678016949	12.363002354101694
O	15.512576746271185	-3.7099019119830503	-1.108469016898305
O	13.330762146271185	-0.7965256419830509	-0.031354645898304945
O	10.473057146271186	4.832965468016949	4.535101864101695
O	7.153049846271187	4.042882368016949	2.815205104101695
O	3.755573796271187	3.598436898016949	4.435428134101695
O	2.1055579062711867	3.121258278016949	1.129165624101695
O	2.8528030262711868	6.762829528016949	0.2315648041016949
O	0.7590850562711865	9.525310888016948	1.836104274101695
O	3.1664131062711864	12.47612808801695	1.595604514101695
O	1.2908212762711866	16.96723838801695	2.408807954101695
O	5.301409006271187	17.052284188016948	-2.699313950898305
O	5.374227396271187	8.571979108016949	3.715507954101695
O	2.4650692262711864	8.100370388016948	6.056696054101695
O	2.2435307962711866	11.72814718801695	7.212696134101695
O	5.349016256271186	8.165190168016949	9.937292254101694
