116

O	-0.13636445613283676	2.438549474910448	-8.632788448761195
O	-0.6041704084328368	1.419760489910448	-7.597734288761195
O	-0.44982975243283674	-0.18248711208955215	-8.008888558761196
O	0.004088841567163243	-1.4005304220895523	-7.362090958761195
O	0.30058333356716327	-0.3734635120895522	-9.565800278761195
O	-1.8192945844328368	-0.6277725820895521	-7.730796188761195
O	-0.5385799454328367	2.134939756910448	-6.389339728761195
O	-0.9069552844328367	2.257568587910448	-5.1283209487611945
O	-0.11124986013283676	1.9308426899104478	-4.101503248761195
O	0.6972861685671633	2.4865679459104477	-3.119783376761195
O	1.6253309555671631	2.180895330910448	-2.108566760761195
O	2.0223819655671633	3.0373498379104475	-1.055306538761195
O	3.149720705567163	2.363757415910448	-0.3897940787611951
O	4.045450755567163	1.6836418778104478	-1.3837057227611949
O	3.805318915567163	2.000895321910448	-2.683231566761195
O	4.692308785567164	1.8305708019104479	-3.681762078761195
O	5.083927005567164	0.5460924679104477	-3.771476438761195
O	5.229574285567163	-0.07786363208955227	-2.566349768761195
O	4.883692185567163	0.6044612579104478	-1.366467820761195
O	0.7409025285671633	3.470724617910448	-0.568945058761195
O	0.02980804556716324	3.2078929379104477	0.5100006012388052
O	0.02484729756716325	3.966215777910448	-1.6254374887611949
O	-1.195051064432837	4.3771164279104475	-1.987143366761195
O	-0.5460504264328367	5.666348677910448	-2.339368351061195
O	0.0006154905671632294	6.289712427910448	-1.174832548761195
O	-0.8652403974328368	5.841439737910448	-0.10459589876119502
O	1.2614668855671631	6.035315537910448	-0.30438662876119493
O	-0.034264545432836774	5.500149817910448	-3.691241188761195
O	1.170355205567163	6.175699657910448	-4.074746068761195
O	2.4108832855671634	6.072078747910448	-4.371520308761195
O	3.2297302055671633	4.780500937910448	-4.514254388761195
O	3.852419375567163	4.964152137910448	-3.082179659761195
O	4.510286295567163	4.867861227910447	-5.233866938761195
O	-0.6242815874328368	5.2685047379104475	-4.818631498761195
O	1.3601540555671632	3.380804507910448	-3.727896258761195
O	1.0538197155671631	1.243141490910448	-4.463646348761195
O	1.6679347355671632	2.0648225639104476	-5.310778128761195
O	2.8500506355671633	1.4228495949104478	-5.799369408761195
O	2.385586035567163	0.4752745479104479	-6.525934138761195
O	3.411833315567163	-0.2658175120895523	-7.141632608761195
O	4.726702025567164	0.32184970791044787	-6.530868058761195
O	2.6285088055671633	-1.345765272089552	-6.443525048761195
O	3.114018655567163	-2.539782332089552	-6.724781028761195
O	4.194068225567164	-2.781558902089552	-5.735277378761195
O	4.203515425567163	-2.454256972089552	-4.429966798761194
O	3.0759146455671633	-1.678864552089552	-4.076210418761195
O	2.139015545567163	-1.3978281820895522	-5.1876288787611955
O	3.491961145567163	2.273278942910448	-6.554725578761195
O	0.8056570935671633	2.549459933910448	-6.275630328761195
O	9.314189995567164	-9.089502572089552	5.592170961238805
O	9.039006215567163	-7.959522862089552	1.9967571312388053
O	6.953923215567164	-8.642401172089553	-1.170477298761195
O	4.002479505567163	-7.264457882089553	-3.1176784407611953
O	6.231806495567164	-5.354510062089552	-5.452835538761195
O	8.534672465567164	-3.533775442089552	-2.800848084761195
O	6.049865475567164	-3.609196822089552	0.10708588123880514
O	5.8151444855671635	-5.386523652089552	3.3615753512388054
O	7.4959452955671635	-3.973525042089552	6.489336921238805
O	8.691279445567163	0.34884846791044777	8.517216291238807
O	6.363283915567163	-0.09682784208955231	5.430120551238805
O	2.952712115567163	-1.352043932089552	6.484949011238805
O	0.5928586935671633	0.7482400739104478	4.528378681238805
O	-3.2062290844328367	0.5379901679104477	5.196807301238805
O	-3.7230188544328366	3.1951641179104477	2.5244595212388052
O	-2.430238594432837	6.098630187910448	4.668381851238805
O	-2.465597774432837	7.491724447910448	8.174474291238806
O	0.9538408055671633	8.983281337910448	8.870824591238804
O	3.8504053155671634	7.415310327910448	10.700200391238806
O	6.770242165567163	8.932034177910447	8.751579591238805
O	2.690916835567163	15.061272827910447	1.412480521238805
O	2.595722885567163	15.085597027910447	-2.423732987761195
O	6.363231835567164	13.340317827910447	-2.4175333117611952
O	7.870633405567164	13.659387427910447	1.053493221238805
O	10.755735105567164	9.319773157910447	-5.3347537487611945
O	9.835975705567163	8.322147697910447	-1.707107324761195
O	12.675483205567163	2.5026311779104478	-2.821798618761195
O	13.176374105567163	-2.368545512089552	-0.133813638761195
O	12.491756005567163	-0.1252818220895522	4.876211611238805
O	9.728124135567164	4.690409467910448	7.010344221238806
O	6.0181261055671635	4.101225797910447	6.6379751412388055
O	3.2989439255671633	3.1160807479104475	9.120305191238806
O	0.02700483156716324	4.558999267910448	7.894459491238805
O	-5.728794914432837	4.064525877910448	8.256981391238806
O	-7.851788634432836	6.646486977910448	10.151145091238806
O	0.9098302255671632	-10.777822872089553	3.682370941238805
O	-13.597766294432837	5.4396712379104475	8.732706691238803
O	-11.013948194432837	7.277127137910448	6.636924521238805
O	-9.460478504432837	4.740940847910448	4.282973221238805
O	-10.433665894432837	1.1523272819104478	5.070331891238805
O	-10.480249794432837	0.37488886791044784	-0.22249632876119518
O	-8.052833754432838	-2.2253578620895524	1.187546931238805
O	-4.499379954432836	-0.941206602089552	0.5687715212388049
O	-1.3667940544328367	-2.825915572089552	1.554767871238805
O	0.5977357295671633	-0.10286813208955214	-0.11522865876119504
O	-0.8073431044328367	-0.757990182089552	-3.289709448761195
O	0.37463984156716323	-3.9355051520895517	-5.0904405687611955
O	-2.1728976644328366	-4.337360312089552	-7.679878098761195
O	-5.828068504432836	-5.187115362089552	-7.564493328761195
O	-7.093092234432836	-1.9271214720895522	-9.114001198761194
O	0.4761621225671633	-4.818211742089552	-16.675777608761194
O	-1.2828239944328368	-7.603231252089553	-11.370599668761194
O	-4.5863143744328365	-6.037969112089552	-12.135149288761195
O	-4.8909409444328364	-2.5538430920895516	-13.459005308761196
O	-7.213941554432837	0.37566869791044777	-14.026620908761195
O	-8.121727324432836	3.0168714079104477	-11.511084668761196
O	-9.578171664432837	6.535793607910448	-11.741562768761195
O	-9.807854324432837	6.630171307910448	-7.924807838761195
O	-8.036097194432838	-0.8194636920895524	-4.570287008761195
O	-7.533229434432837	-4.267722792089552	-3.002768649761195
O	-3.745471674432837	-4.122482952089552	-3.018466473761195
O	-1.1338391484328367	-6.562695552089552	-1.7105173517611951
O	-1.628923734432837	-9.252068772089553	-4.395244028761195
O	-5.209363334432837	-9.612893372089554	-3.262953686761195
O	-4.218771104432836	-9.405150572089553	0.38389469123880504
O	-1.7210897744328368	-12.244638172089553	-0.1541821587611949
O	-4.577306224432836	-14.688789772089553	-0.49214843876119496
