85

O	-3.4110472058172414	-1.524759870793103	-2.0311287355500003
O	-3.2195847358172416	-0.2978063507931027	-2.5503220355500003
O	-2.8619880558172417	0.6716494652068974	-1.58249590555
O	-3.1156554158172414	0.5822502472068973	-0.29772906455000014
O	-2.871577195817242	-0.6971319107931025	0.029882742449999777
O	-2.5611117068172415	-1.718271740793103	-0.9221118457500002
O	-3.8682339758172417	0.39560907520689736	-3.7416858855500004
O	-3.0504685658172415	-1.1367703207931026	1.2321207644499999
O	-4.114388655817242	-0.3028856907931027	1.7720568444499998
O	-4.8296529858172415	0.6444986812068974	0.9234855544499998
O	-3.8324041058172416	1.6195415342068973	0.5397490344499998
O	-5.073013475817241	2.1170626492068974	0.012664789449999825
O	-4.987029845817242	3.510383139206897	-0.3025582505500002
O	-3.8630279158172414	3.8227595592068973	0.4691204944499998
O	-3.1712983358172417	2.7945722692068973	0.6940831444499997
O	-3.525759415817242	5.238627639206897	0.4843496844499997
O	-6.105043305817242	0.8789405657068974	1.1798009644499996
O	-6.132105845817241	1.9608636992068975	2.02657724445
O	-4.9948489558172415	1.7590557272068974	2.8969372444499997
O	-4.417311955817242	0.2861857382068974	2.96532184445
O	-5.224815955817242	-1.4144741407931027	1.81020847445
O	-3.304523825817242	1.6869016812068973	-3.9235976155500003
O	-4.138306675817242	2.7886603492068973	-3.85453293555
O	-5.323571735817241	2.5338406692068975	-4.475464805550001
O	-6.0079741958172415	1.7204791112068973	-3.4087862755500002
O	-5.265483545817242	0.47144558520689733	-3.49468901555
O	-2.0713923648172416	1.9523459792068976	-3.3280184855500003
O	1.3661767841827586	2.7464424892068973	-11.009294065550002
O	-1.3990920618172416	0.2790730552068974	-11.465415165549999
O	-0.38587206581724165	-2.236957350793103	-8.74172631555
O	1.9904835841827584	-0.12593722079310254	-6.72665103555
O	5.627166294182758	0.3672590152068974	-6.03954690555
O	7.330716334182758	-1.7785729107931028	-3.49029003555
O	8.246983634182758	-7.072153810793102	-0.7512078914500002
O	6.429376584182758	-4.108652380793102	0.7347617344499999
O	4.206921464182758	-1.507432020793103	-0.8743659667500002
O	5.571001764182759	2.0560767592068974	-0.3592534045500002
O	2.435572374182758	3.9938699392068973	0.7403931744499999
O	2.4896696841827586	7.6765445592068975	1.66693325445
O	-1.3189418248172415	7.570590519206898	2.09198169445
O	-1.4102269678172417	5.375136629206898	5.20655689445
O	0.3906475441827584	4.917857299206897	8.45317338445
O	0.6202765841827587	1.2213991762068974	9.280684334450001
O	3.3345638941827582	-1.2672807707931026	8.563095264449998
O	1.2603335541827585	-4.383945480793102	7.80972845445
O	2.3651048841827587	-7.671698590793103	6.3051412744499995
O	-8.687247835817242	-1.7433933707931026	8.736804094450001
O	-11.67115791581724	-1.4836982007931026	6.40799021445
O	-10.239563915817243	-4.727778030793102	4.2734027144499995
O	-7.511709065817241	-6.433167540793102	6.27550284445
O	-7.5250812158172415	-7.7011978107931025	9.832321734450002
O	4.016922094182759	-4.801160400793102	12.64607953445
O	0.41926002418275843	-5.675334020793103	11.987776434450002
O	-7.978730915817241	-9.864444310793102	4.14158973445
O	-10.63346797581724	-9.107541010793103	1.5541883944499997
O	-9.588049775817241	-7.693271330793102	-1.7787167895500002
O	-6.336438985817241	-6.446001730793102	-0.23749379355000022
O	-3.6130282458172416	-8.424423980793103	-1.8813549455500003
O	-3.3665563358172417	-7.809290500793102	-5.65209109555
O	-2.6939768128172417	-10.891393310793102	-7.76222991555
O	0.6748987641827586	-10.412684910793102	-9.430399825550001
O	1.6388415341827582	-7.182142040793103	-7.58530289555
O	4.536357794182758	-9.193477510793102	-6.11638723555
O	4.118477284182759	-7.366738730793102	-2.77270385555
O	3.2646055741827587	-9.054625940793102	0.5400647844499997
O	2.7271227441827586	-6.062521060793102	2.7758880644499997
O	2.321318584182759	-2.3064281007931027	2.9941060244499997
O	4.519901984182758	0.39312740620689735	4.452745634449999
O	2.5511404341827584	3.353987139206897	5.6618411244499995
O	4.715592274182758	6.401238669206898	5.61721982445
O	2.166370264182758	8.996639029206898	6.7660811144499995
O	1.6894092841827586	10.276681299206897	10.332558634449999
O	8.587006834182759	6.445724709206898	-8.86949350555
O	-1.7768879110172415	13.326682289206898	9.26637563445
O	-1.9324242652172416	12.499616189206897	5.550946264449999
O	-0.4553253658172416	9.388975619206898	-1.9832100655500002
O	1.8923381641827586	6.806891669206897	-3.59670821555
O	-0.5672671058172416	4.240175839206898	-2.73666211555
O	-3.0392161458172415	5.924687899206898	-5.16343271555
O	-2.6423030848172413	5.187909179206898	-9.01761900555
O	-4.456014175817241	8.232518129206897	-10.411634255550002
O	-1.2004190408172417	9.553888639206898	-6.88694318555
O	1.4561194341827584	7.4360270292068975	-8.511250145550001
O	0.9726424341827586	8.676097419206897	-12.08651566555
O	4.495678544182758	11.188226789206897	-8.728032255550001
