29

O	22.7533869715116	12.26216579725648	22.870808263842868
O	22.857948200478116	11.92667738474282	21.36103334243699
O	23.320922876176986	11.327702542891648	23.82183335377529
O	23.35889535317544	10.032529337235506	23.289126778402206
O	23.0720438826849	9.80503715382575	22.108357558116822
O	23.045349673363127	10.578368510600821	20.883587497816468
O	24.2227926216526	10.276908451119109	19.980267322947107
O	25.036142321240703	10.837247669745986	20.749534197430176
O	25.88913660810384	11.839118106278846	20.053158394778155
O	26.310152607487858	11.756107530868144	18.880787324280586
O	25.409038303634794	10.908166514092354	18.215715663329032
O	24.18626242268332	10.986843251403362	18.763065696117078
O	22.987691251339722	9.265618121656296	24.480518987584883
O	22.121686187546764	10.0373231454201	19.821185301007027
O	26.613163828537157	12.383160904003933	21.108854354385432
O	25.889000913110948	12.073294847384503	22.3133435705168
O	26.52757923286783	10.828585830838136	22.617066022063934
O	25.57886346066147	13.281813637832574	22.282263755710485
O	26.55990441823666	9.606657383414717	22.01369433580105
O	27.190277460553684	9.358107571393488	20.704242981640405
O	28.43107275110665	9.921200010563465	20.69460160378598
O	28.606187261557704	11.0754658359992	21.332995647207248
O	27.916171461193326	10.976810707332717	22.570063189013414
O	28.94565975039708	10.102337467862068	19.433814259195536
O	29.41723787361815	11.236562411592509	18.803472153212113
O	29.542555640620606	12.46722225745798	19.637009810057414
O	23.000535960521276	11.158203231691587	18.109580281202003
O	23.45394299811384	12.940151345189776	20.625538589689143
O	21.593680045185657	12.35397997216141	21.123826456907764
