28

O	23.7195453733152	11.171855192249446	18.9469713698173
O	21.154304218550553	10.723480553066462	22.188274174803876
O	20.485285263125927	11.094551842924009	21.034582701409192
O	21.03825339266938	10.763230391736569	19.771806849525426
O	22.37754299314679	10.328903926583868	19.721008876536764
O	22.764539332734618	9.716009559582268	20.844521301287994
O	21.97403756650973	9.626983293118082	21.962245801810223
O	22.358063413434397	9.123248493629294	23.17262215638146
O	21.99576825542787	9.9285514710431	24.154972402845658
O	21.573357596591386	11.037012133206414	23.47364832358442
O	22.57971884080901	9.643608056165649	25.407656149967163
O	20.813281144865577	11.959233491848677	24.327175610685785
O	19.398969164694368	12.080302656858843	24.001195519442053
O	19.30129660335608	10.673151198752015	23.38184659816858
O	21.754850438698565	12.931730715822475	24.840273823792224
O	23.095867188784844	12.572248645393927	24.13180685587424
O	23.640734282584926	11.811407047299896	23.176321136198563
O	23.93485077333709	13.284241269204589	24.67962786474229
O	23.707836849586588	12.473834146707832	21.9359153465821
O	24.61832764333128	13.570220924562115	22.410912817436813
O	23.63939733095611	14.398912346966352	23.120413295910062
O	22.34820447156183	14.979393497480544	22.74072304060886
O	23.200362983738163	15.418636787755554	21.742208090850813
O	23.825166633526152	14.6516055127268	20.700994060737084
O	24.86023684683289	13.661927228826576	21.04281806666596
O	22.479364971736757	13.110330890368756	21.436823166870955
O	22.630652363181564	13.780031069786604	20.278144355357057
O	21.493283161513475	13.938209586875061	22.176718649116946
