49

O	26.294118840472585	17.2883198079928	25.752448248322587
O	26.688288129578996	15.923972704919777	26.31038917078619
O	28.268478554336554	15.745552358138962	26.79125365409478
O	29.30967309141688	14.743677539347921	26.649199038516976
O	29.19548780907592	17.184970095851646	26.48745058160206
O	28.043512727634617	15.219828459279316	28.141828791254596
O	25.725007474417602	15.060525330633226	25.760343793885067
O	25.094578943098302	13.902029116673715	25.79712657828957
O	25.376145317908033	12.8922450793996	24.963275213620463
O	24.907300813652817	12.241096258212874	23.83078900159016
O	25.226350320071088	11.263765143631996	22.871469855716555
O	24.31488209999095	10.621268836521384	22.001443935709982
O	25.136052627946025	9.849681452209333	21.05389019449826
O	26.37520926977447	10.601673072976041	20.6643401424819
O	26.39893081251408	11.905508888284329	21.04713241347027
O	27.19185656406199	12.843468930127361	20.495476390727084
O	28.48957987701828	12.498268161502196	20.585191046675483
O	28.725182031655564	11.165132945151736	20.41167806358665
O	27.634185619212968	10.26550328633567	20.25258162501536
O	23.295225786975717	10.22297077118226	22.93322201610089
O	22.92338932167775	9.069067863111034	23.451975632779344
O	22.90632616784831	11.326999078868695	23.643363847144165
O	22.186465902915863	11.71464440401897	24.701359499697134
O	21.420138707063316	12.554593889838515	23.745006242632645
O	20.735933631884105	11.736937858321593	22.792708151862204
O	20.468558570140555	10.512636863404225	23.517731572579976
O	21.181401464493	10.935104248425063	21.539407952504206
O	22.17139557628952	13.793321185941437	23.609821847463365
O	22.163906238641662	14.486540658609837	22.35525299867822
O	22.82306094042692	14.823161363041526	21.311258870223664
O	24.308008063137887	14.558346621433317	21.021669970832257
O	23.955452828434325	13.34042841054616	20.091784153535485
O	24.944046175481695	15.359888605965205	19.96418053414682
O	22.486266924722045	14.7131262613179	24.462818401541114
O	24.567916085642636	13.178949868502716	23.047141916642136
O	26.534911939467932	13.074828139308238	24.19816670942091
O	26.312196720059106	14.205305912100588	23.53307481165931
O	27.475931356619107	14.523248833541555	22.763086027826937
O	28.341987104134624	14.823854464562523	23.65813118759487
O	29.570330862338476	15.212362014938432	23.09092838255479
O	29.38137280751629	14.95762855366171	21.559043419915593
O	29.997817061118237	14.11486535671494	24.029009004178548
O	31.31088778681895	13.987638256642771	24.041658692667113
O	31.639528838521024	13.065318731962705	22.925682792232177
O	30.96327166364432	11.968527394270438	22.537383283836284
O	29.745094668005947	11.828062294973723	23.24035900434006
O	29.47439208895641	12.889124117097673	24.236792786083377
O	27.211149160268246	15.580796773341245	22.04383303626814
O	25.84857208489669	15.208682536368086	24.36230543560088
