36

O	26.190134137537953	15.104412826424326	20.41573118979082
O	27.03344322360631	16.400043456700832	22.40257745630858
O	26.064673080628843	15.208480602572266	23.868402887552218
O	27.105606268753114	15.285332158214734	21.447345664962416
O	23.92510164905177	12.408978337278496	22.276621697183998
O	19.74955764002892	12.869915956360266	26.41406691883956
O	27.489504405017435	14.093597044607076	21.986132187371474
O	21.632574725646105	13.580888001691257	25.30282083638914
O	27.00756577038056	12.849173921247134	21.583408673827442
O	20.890255453480005	11.286468975515804	25.150286966119435
O	25.841229563444156	12.82140384602089	20.85282659899973
O	22.181140638820516	10.525901616695474	23.506621578524502
O	25.446286538506772	13.977945726448272	20.23559244288016
O	24.675658266768327	11.937715627459465	21.17233775652273
O	26.06347175039959	16.379274599636247	23.4622835524911
O	24.639142210003058	16.85046288683153	23.510143975289385
O	21.220916135132228	14.178375194002516	22.9280630549088
O	21.028157650424852	14.532217005698167	24.281382727339537
O	21.308174574194567	15.905698913416526	24.40108447235202
O	21.322846631630267	16.7340745521093	23.257784456262492
O	21.812940758168647	16.186343388997372	22.039393414501337
O	21.277173273966653	14.927204529125781	21.81083111239849
O	23.292494574463536	13.85656556595869	24.043599228891395
O	22.706573886836416	12.774162021073902	24.881881815140037
O	23.93115470026813	12.13080646062658	24.87862431019721
O	24.056191861365292	11.638529905101224	23.406422295534338
O	23.975610650577046	13.689814133664864	22.753685918089865
O	21.833055342708164	11.672128294365724	24.321739642452236
O	20.924929009397623	12.506998477952411	25.986344528694264
O	21.602887316764843	10.11324661862876	19.967529123892895
O	22.122839596415027	9.931989670509955	21.35689754409607
O	21.356125997017326	10.543050775671905	22.344451292284695
O	20.124584064909282	11.260814720714235	22.363496482774757
O	19.94851241193599	11.768602785456524	20.96557011087835
O	20.905099271243216	11.428963703442458	19.898024405837212
O	21.707266313344398	14.394645422103086	20.623404709089797
