16

O	23.95423385499604	13.9550653465791	21.73619365522614
O	24.881436823634175	12.923094198176361	21.637774217887603
O	22.626742298739774	13.520528727465807	21.766790820788408
O	24.468476572058407	11.637191057480349	21.823293437863484
O	22.399152934206622	12.353428330768889	22.511684632814575
O	23.37299745747981	11.369035284463003	22.640972899987364
O	21.34790255007795	12.227740880339152	23.368186816074502
O	23.36676101513924	10.5862407109343	23.75609823383604
O	21.41366052345064	11.672517203456156	24.57680043042672
O	22.478034209880896	10.804719831107494	24.778273972595198
O	20.783490541356194	12.456372912993489	25.618933903262253
O	22.98502132274919	10.830327625308607	26.09537793960522
O	19.274724183398504	13.37466212649236	24.168401484314455
O	20.477450675689454	14.258535443280312	24.285299902286443
O	19.311557081323762	12.573394565641463	25.42272702285194
O	20.998720578454083	13.946306056146476	25.71931450770739
