28

O	27.690160829815905	12.584949748419387	22.028138254513227
O	28.86021587958341	12.488511695604814	21.274965502234192
O	29.021489364796597	11.157916153827113	21.009163546509534
O	27.96883247343296	10.365905958094848	21.104923407053477
O	27.309863577016802	10.328204930534266	22.287070491224313
O	27.00588999392019	11.597529413942569	22.659624787596975
O	27.603390155337248	10.263608419837395	19.66938658810791
O	27.32812133739283	11.28528152627757	18.962897999743472
O	26.848342138974047	9.148143332254065	19.90529630480952
O	26.962238538119806	13.676942786205599	21.79438120677775
O	26.400623214480287	14.737958462807317	21.68899732509454
O	25.456135167873327	9.416320829057952	19.59130021078223
O	25.44063766183724	10.107810930134399	18.450955030240802
O	24.446681516954897	10.992015339683757	18.376850364966646
O	24.56076305560911	11.919871433043497	19.41236981842101
O	24.635690754796617	11.254047447592049	20.64582975626569
O	24.88968444395389	9.90560800043005	20.733490116742956
O	23.4716949950535	11.73156024037151	21.37533913804535
O	23.54425234298843	13.118085524044954	21.84252781152332
O	22.91765720747448	12.78238130208921	23.14000262436428
O	23.8868255897964	11.841677402047615	23.743696932792894
O	24.006210423077185	10.527524521101343	23.118449745104783
O	23.216306779767624	10.518536361373393	22.18850035590832
O	22.117805789518574	11.830422389423015	20.722882350377137
O	23.63001167024307	9.652989051656023	24.264886746498817
O	25.00229410495466	13.181504032127549	19.398405423931905
O	22.403025230061687	12.782140270898022	19.711619410628007
O	22.188628556939456	10.64487021545659	19.955158466933284
