98

O	2.777867089889091	-0.7061533961454545	3.200451249109091
O	0.920817197889091	1.2102048568545456	7.063157969109091
O	1.365865634889091	3.238906633854546	6.818147819109091
O	2.702959589889091	-0.8354705561454543	1.815855231109091
O	3.510055859889091	-1.5517678661454541	0.8768061144090908
O	3.346998939889091	-0.8589912461454541	-0.4398162208909092
O	2.827981119889091	-2.9162432961454536	0.9930145832090909
O	3.527276079889091	0.5777614048545457	-0.5620041408909092
O	3.663258679889091	-1.3974237661454543	3.7973692891090907
O	2.358138819889091	0.5015087988545457	3.796931629109091
O	2.4996493598890908	1.8811400668545457	3.5034949591090907
O	2.572731439889091	2.8099205038545456	4.375388949109091
O	2.534101039889091	2.109884709854546	5.623464829109091
O	1.451292264889091	1.1327938598545457	5.726755489109091
O	1.670109063889091	0.04148311385454573	4.980430829109091
O	2.259714009889091	-3.2265163761454545	2.368990909109091
O	2.656682889889091	-4.2695019361454545	3.215537039109091
O	2.357852239889091	-4.220693336145454	4.585064399109091
O	1.186482614889091	-3.6445240261454543	4.980528089109091
O	0.33937780388909095	-3.2380701661454543	3.9548288491090906
O	0.9705001108890909	-2.899851006145454	2.803796299109091
O	4.79996654988909	0.7348266188545457	-1.219283720890909
O	3.160411619889091	-1.6124953661454542	-1.5450405608909095
O	5.50801699988909	0.14766538385454564	-0.0488588598909091
O	5.02208539988909	0.8372804978545457	1.2070532101090907
O	4.548833399889091	2.0791096248545458	0.9522853927090908
O	4.693527039889091	3.1961391538545456	1.8104154461090909
O	5.52384074988909	2.969034103854546	2.8409011991090907
O	5.6130401198890905	1.7148132548545458	3.4390955691090905
O	5.3813314898890905	0.7291427628545457	2.518973979109091
O	3.667812419889091	4.107648663854546	1.6196571031090907
O	3.873866529889091	5.458764323854546	1.6233259751090907
O	2.749432709889091	2.717957213854546	6.880038339109091
O	0.23272024788909096	2.5104339538545455	6.846186159109092
O	2.736100029889091	4.195298173854546	4.317105929109091
O	1.848025849889091	5.404360823854546	5.334210809109091
O	2.642913159889091	5.242557203854545	6.877420769109091
O	3.3977717698890912	3.9489715538545456	7.179221809109091
O	0.6777888858890909	0.2595416838545457	8.014918409109091
O	0.9470806258890909	-1.0487233461454541	7.150915269109091
O	4.1064762498890905	4.392234663854546	4.570372299109091
O	0.439610557889091	5.2028798638545455	5.225082359109091
O	2.277586909889091	6.489814113854546	4.419771569109091
O	-8.277476940110908	-9.671930716145456	-0.8535293408909091
O	-7.746666520110909	-3.2297747961454544	2.295441839109091
O	-6.27479527011091	-4.452315046145454	5.474029639109091
O	-4.19570398011091	-7.292275576145454	3.871215709109091
O	-4.038436610110909	-6.151016286145454	0.2756271421090909
O	-5.510114860110909	-7.144410496145453	-3.059325910890909
O	-0.0034102481109090643	-8.299377096145456	-4.192419100890909
O	-1.060727950110909	-5.517806936145454	-6.555255650890909
O	1.014309640889091	-2.5317840261454547	-5.345952600890909
O	0.7814115219890909	0.7694956378545457	-7.348352690890909
O	3.119274249889091	2.1661929678545455	-4.680726330890908
O	6.302638839889091	0.27075630385454574	-5.657673140890909
O	8.084037749889092	-0.8883400461454543	-8.93711805089091
O	9.591332679889092	-4.343722666145454	-8.28197392089091
O	9.40290092988909	-9.727069516145455	-5.9917705908909085
O	14.515974449889091	-3.1074709361454538	0.42914085410909086
O	14.141085849889091	-1.7661239061454543	3.9719710291090906
O	12.154246149889092	-5.201831726145454	5.060449929109091
O	12.91740884988909	-7.812241406145454	2.435270709109091
O	7.542281519889091	-8.267967596145455	8.72365769910909
O	7.022213189889091	-8.503042066145454	4.940169109109092
O	1.253291350889091	-11.326537416145454	6.062844449109091
O	-3.199065910110909	-12.715825016145455	3.1602710091090906
O	-0.30046980011090907	-13.730867616145455	-1.3848491908909093
O	4.838051149889091	-11.847212716145455	-3.7042655508909097
O	4.357413839889091	-8.259450136145455	-4.787580250890909
O	5.1026819598890905	-3.1743389161454543	-8.193307200890908
O	4.754198749889091	2.1038232478545456	-10.585678990890909
O	5.092925959889091	6.983835903854546	-7.798183800890909
O	1.6831387878890909	7.644935103854546	-9.388732690890908
O	0.223262247889091	9.418141483854546	-4.495008110890909
O	-2.224411720110909	6.648328493854546	-5.366102620890909
O	-1.040311900110909	3.5222158038545457	-3.431492970890909
O	-2.948667900110909	0.2178100438545456	-3.541934920890909
O	-0.30224540011090906	-1.058320916145454	-1.1128036308909093
O	-1.290168520110909	1.2821452568545457	1.722139492109091
O	-4.64907581011091	0.5372930788545457	3.5353757991090906
O	-5.59323173011091	4.081542133854546	4.653173979109091
O	-6.26773365011091	7.449990833854546	3.1821450891090906
O	-3.2491270301109085	9.223700503854545	4.597882289109091
O	-7.176664990110909	4.6629087938545455	13.866369809109091
O	-9.176469140110909	4.419112433854545	8.01308510910909
O	-7.785468790110909	7.920417363854546	7.725276569109091
O	-4.4188593401109095	8.573790893854545	9.336520389109092
O	-1.700843050110909	11.249485363854545	9.34579261910909
O	1.357604033889091	11.137647773854544	7.136383259109091
O	4.828088959889091	12.739595083854544	7.205521879109091
O	5.488006729889091	11.443985183854545	3.7214903791090905
O	-1.4959911401109087	8.518628083854546	0.26504170110909087
O	-4.683645390110909	7.470797113854546	-1.4668292908909093
O	-4.679585210110909	3.927849333854546	-0.2064233408909092
O	-6.830757840110909	0.9846120448545457	-0.653976890890909
O	-9.848355850110908	2.283837230854546	1.259343055109091
O	-10.105349350110908	5.240221323854546	-1.0937977908909091
O	-9.493947550110908	3.1279587538545455	-4.1505659608909085
