84

O	4.209360313528301	-4.444469430266038	1.9386059418490567
O	4.437469493528301	-3.280536250266038	1.3056822618490564
O	5.582063313528302	-2.634700370266038	1.7602284318490564
O	6.581733323528302	-3.285209650266038	2.1172931918490567
O	5.617903513528302	-1.6797423402660376	2.8690422318490567
O	6.832471353528302	-0.7559051592660377	2.5955859618490567
O	6.177524763528302	-0.2921710522660378	1.3660568918490565
O	6.283406743528301	-1.2180846262660379	0.4140614068490565
O	5.040074333528302	-1.5252505602660378	-0.4642412965209435
O	5.493977083528302	-2.398219300266038	-1.4582448541509434
O	4.553981553528302	-3.335542150266038	-1.8942183981509435
O	4.546139403528302	-4.751700550266038	-1.4194104141509434
O	3.4560023335283017	-5.179907830266038	-1.0452121401509435
O	5.876890593528302	-5.149971140266038	-0.8910968991509435
O	6.960984113528301	-4.347745380266038	-0.7140350121509434
O	8.1267174335283	-4.726479530266038	-0.014080893150943463
O	8.1728719535283	-5.780107050266038	0.8436111318490565
O	6.931699893528302	-6.162058970266038	1.2022558218490564
O	5.974166043528301	-5.931692840266038	0.25571531184905655
O	3.487044013528301	-2.603468330266038	-2.2661656881509433
O	3.1879348435283017	-1.314535363266038	-1.6546533381509436
O	3.7956368235283016	-0.9572259392660378	-0.46750594951194346
O	3.8247546235283014	0.048707372733962195	0.5779943918490564
O	4.889774763528301	0.2157378477339622	1.5446106618490563
O	5.045611273528301	1.589292509733962	1.9106448018490563
O	3.0964903035283013	-2.897248670266038	1.1019009118490564
O	3.0761845735283018	-2.0621407402660377	2.4558267218490566
O	2.7146249335283015	-2.9785206102660378	3.492035891849057
O	1.2267203525283015	-2.9615554102660377	3.4765334718490566
O	0.8705720045283014	-2.8543395202660378	1.9788248118490566
O	1.8694778655283013	-3.573327910266038	1.1620213718490564
O	3.138211463528301	0.5270093507339623	-9.864918308150944
O	1.8705657885283014	3.344988379733962	-7.662037958150944
O	-0.5686425564716986	6.272677129733962	-7.632223158150944
O	-4.153775496471698	5.652917769733962	-6.697698338150944
O	-6.897099696471699	2.713479319733962	-3.9185706681509433
O	-3.0921426164716985	3.020737579733962	-3.6724524281509434
O	-2.1363074164716984	6.291017799733962	-1.8549206981509436
O	0.6164009445283014	5.016908939733962	0.5786490618490565
O	2.313152253528301	7.354777219733962	3.0728260418490567
O	4.587842363528301	4.469151179733962	4.109887851849056
O	1.9235792065283013	2.4244989697339623	5.8864925818490565
O	-1.0404796864716988	2.7384337297339623	8.131578261849056
O	-3.472941056471698	0.06502535773396223	6.956491341849056
O	-6.5406373864716985	0.7400063397339621	4.796628341849056
O	-6.8692094264716985	-2.586473100266038	3.0505690218490567
O	-9.037503286471699	-3.485169440266038	0.0459252888490565
O	-2.3307476964716987	-10.531251290266036	9.084272801849057
O	0.20310809952830144	-8.362933050266037	7.209013031849056
O	3.147209183528301	-10.273225710266036	6.091077801849056
O	1.3085456295283016	-10.907596490266037	2.2634011118490567
O	-2.216216166471699	-10.091029000266037	2.550777681849057
O	-4.6389752464716985	-11.454471290266037	5.067470001849056
O	-9.2881602864717	-4.529149000266038	6.276695341849056
O	-3.0120340464716984	-12.227516090266038	-0.8032788531509435
O	0.2835026015283014	-13.397015790266037	-2.1523551681509434
O	1.9951928615283014	-11.194518090266037	-4.685129588150944
O	0.36057723552830145	-8.076031680266038	-3.2396202381509434
O	-1.6637294264716986	-6.9806519302660375	-6.171934368150944
O	0.3441018725283015	-5.820353840266038	-9.194776948150944
O	-0.9790844064716986	-6.935075510266038	-12.609076828150943
O	-1.6080562564716987	-1.4042283562660378	-11.542487628150944
O	-5.379292166471698	-0.8404252182660378	-11.810854728150943
O	-5.589456386471698	-0.5433937111660377	-7.982486958150944
O	-7.696958906471698	-2.7799162502660377	-5.763642588150944
O	-6.549682646471698	-1.655166050266038	-2.3323504481509434
O	-4.196685356471698	0.4732463137339622	-0.3358112681509435
O	-4.572000816471698	3.512988389733962	1.7711431518490566
O	-2.0010940664716985	3.673443449733962	4.525775651849056
O	0.9549077885283015	7.077438349733962	8.174805331849056
O	-1.2007486464716985	4.282403039733962	14.116320371849056
O	2.832746183528301	1.1888949997339622	12.637290671849057
O	-0.7095434864716985	-0.01683523426603778	11.994171771849055
O	5.060069273528302	6.498782559733962	13.066799571849057
O	6.311556543528302	6.682167699733962	9.496631821849057
O	6.965066373528302	7.098574499733962	1.2116015518490564
O	4.576358513528302	7.336802699733962	-1.7626316581509436
O	4.3316503535283015	3.563340919733962	-1.7570086381509435
O	7.970415233528302	3.358192139733962	-2.8759367881509434
O	8.988936063528302	4.039154839733962	-6.433583518150944
O	12.595426713528301	5.232662179733962	-6.136553588150944
O	9.720321303528301	7.662703649733962	-2.8966455181509434
O	7.368462633528302	8.544225719733962	-5.6932189381509435
O	7.673298153528302	13.235775609733963	-4.684089648150944
