103

O	-3.0616713811694916	7.56315355520339	0.491231963949154
O	-3.4660188111694916	7.021238735203389	-0.7533575320508459
O	-4.086226691169491	5.68195286520339	-1.0067121185508459
O	-5.201923271169491	4.95348978520339	-1.2353584360508458
O	-4.868269971169491	4.04416971520339	-2.216163026050846
O	-6.034703821169491	3.8018191282033893	-3.093984426050846
O	-5.936148981169492	4.64464216520339	-4.3710711860508455
O	-5.018759191169492	3.4897811742033893	-5.3989337460508455
O	-4.927633251169492	4.008531145203389	-6.723986486050846
O	-5.731369981169491	2.2098600112033897	-5.316608406050846
O	-3.3883773911694917	3.4169605972033894	-4.8184250160508455
O	-2.4773082781694917	4.213312575203389	-5.592962226050846
O	-2.8739198111694915	3.82278206920339	-3.529239386050846
O	-1.8958081901694916	3.1093312282033896	-3.0067544960508457
O	-1.7606645661694915	3.2437712192033894	-1.6603616530508458
O	-2.1704190191694916	4.384659395203389	-1.0546637847508458
O	-3.0895198111694917	5.06520379520339	-1.6531555340508457
O	-3.6995235711694914	4.315834915203389	-2.608941936050846
O	-1.6710631671694915	2.6016060652033897	-0.4139651770508459
O	-2.698022021169492	2.55377998820339	0.22832633394915414
O	-0.46441644116949155	2.8345226685033897	0.2297417139491542
O	0.5064667988305083	3.3377004412033897	0.9872676139491541
O	0.0918217888305084	3.6343151332033896	2.3402360339491537
O	-1.4302141171694915	3.7544114282033894	2.513929883949154
O	-2.0181928551694917	5.02185047520339	2.435784883949154
O	-3.3162163311694917	5.08645090520339	2.008072203949154
O	-4.289558191169491	4.159292505203389	2.162265213949154
O	-3.7855148111694916	3.1361280112033896	2.898622203949154
O	-2.3851741541694915	3.0202134492033896	3.2615207739491545
O	1.7527947388305083	2.9072173172033895	0.3163315239491542
O	2.6413482088305082	2.1250670272033894	0.9925725639491543
O	2.137944728830508	3.4358389502033897	-0.9844033976508458
O	2.6617104088305084	2.8556354203733894	-2.1034331860508457
O	2.7279655588305083	3.7813522552033896	-3.263537526050846
O	1.3763809388305084	4.41616284520339	-3.5774803060508455
O	0.6716802788305085	4.93913077520339	-4.614699386050846
O	0.024091308830508362	6.1422168352033895	-4.557419636050846
O	-0.5773150751694917	6.23106203520339	-3.2760948660508458
O	0.05005009883050837	5.6757220952033896	-2.2150234360508456
O	0.6434464988305082	4.42382382520339	-2.423503426050846
O	-0.04750000116949149	6.32608851520339	-0.9417348658508459
O	-0.5645035001694916	7.5657045152033895	-1.210838036050846
O	-0.5002382211694916	5.993796945203389	0.1866388239491541
O	1.2914472388305083	6.573902275203389	-0.7933062420508459
O	-7.296252121169491	-4.929662114796611	2.333063293949154
O	-9.194599761169492	-1.8565066547966103	3.1118049239491548
O	-7.089330161169491	-0.8910785547966102	6.1210937939491545
O	-3.9160776011694916	-2.9028407047966107	5.591882143949154
O	-2.0945941111694917	-5.96407024479661	6.951994823949154
O	0.3156969988305085	-5.611730084796611	9.861877393949154
O	3.3875673088305085	-2.2770531647966106	11.872475793949153
O	1.8407204188305084	-2.0618404147966105	8.394654753949153
O	3.553212628830509	-4.31093877479661	5.864326613949155
O	4.013548268830508	-1.92063529479661	2.8228379039491545
O	5.890093648830509	-3.32592397479661	-0.2240446520508459
O	5.093545828830509	-0.021986924796610463	-1.917789603050846
O	7.422914058830508	2.2384003172033897	0.1389562039491541
O	10.886452418830508	2.1049136042033894	1.7080838839491543
O	10.747558018830508	3.8120845702033894	5.117339773949154
O	10.321640018830507	2.3095719802033896	8.553944243949154
O	8.180904468830509	4.99508142520339	10.254163193949154
O	6.547126468830508	12.501981405203388	3.1176800239491547
O	3.5429015588305086	14.02104194520339	1.2935010739491541
O	1.1875264188305084	13.220746045203388	4.657852123949154
O	3.4348871488305086	12.386295105203388	7.489339963949154
O	-4.8868603011694915	11.485746945203388	7.0723870539491545
O	-1.9834442001694916	8.97597184520339	7.646662323949154
O	-6.485120731169491	4.91832257520339	9.939093893949153
O	-6.608418971169491	-0.3081724647966104	11.680253993949153
O	-1.3774522711694916	-0.5282425747966104	13.496133693949153
O	3.674579478830509	2.3725747342033894	12.102807093949153
O	4.6600838088305085	1.3198971552033896	8.567627073949154
O	7.3947031588305085	-1.0792241947966104	7.359368423949154
O	8.457319998830508	0.059273115203389626	3.8615105139491543
O	10.858257618830507	-1.72133121479661	-1.103063703050846
O	13.016922718830507	0.6569420552033898	-6.627570566050846
O	9.392711618830507	-0.45058358479661065	-6.271700596050846
O	8.908611118830509	-4.218308574796611	-6.706259836050846
O	4.296770948830509	-2.9982970747966107	-9.185932436050846
O	3.272469588830509	-5.218583474796611	-6.306656796050846
O	1.9928496488305083	-2.9114789747966103	-3.5133172260508463
O	0.6208233288305085	-4.38748219479661	-0.25089527205084583
O	-0.007968221169491585	-0.7897388147966105	0.7587828139491541
O	-2.6819294011694916	-0.3069867047966106	-1.877578889050846
O	-6.031745701169491	-1.6987649647966103	-1.480276924050846
O	-7.158802741169492	-2.1657790447966105	-5.071566306050846
O	-5.978395891169491	-3.8295907347966107	-8.261394056050847
O	-5.245279351169492	-0.6671824647966105	-10.151183326050846
O	-15.576889081169492	1.5260427152033895	-6.883893426050846
O	-11.917489181169492	-3.351542814796611	-5.880686336050846
O	-10.508837601169493	-2.5932800847966107	-9.301832426050847
O	-9.871879671169491	1.0222507952033895	-10.156519156050846
O	-8.115757241169492	3.0803669882033895	-12.794204306050846
O	-4.5451431511694915	4.219169645203389	-12.578647806050846
O	-2.5221003681694913	7.015221115203389	-14.221438906050846
O	0.6323486188305083	5.574508175203389	-12.596659206050846
O	-0.6822530321694916	-1.8785012747966103	-9.078307276050847
O	-1.2295272731694915	-5.277685574796611	-7.695605546050846
O	-2.676593251169492	-4.10062196479661	-4.379382216050846
O	-3.8289604411694915	-6.0913668147966105	-1.4466259320508459
O	-6.9569860411694915	-7.527087254796611	-3.007655226050846
O	-4.842452701169492	-9.257907754796612	-5.615592146050846
O	-2.2336067631694916	-10.384396754796612	-3.155218706050846
