84

O	-0.7947000512363637	-3.8532161838581818	-0.31420359418181776
O	-1.4557475932363637	-5.247472393858182	-0.4538060614818178
O	-0.7857573542363636	-5.329706613858181	1.887400106818182
O	-0.6584837542363636	-3.953085143858182	2.029938916818182
O	-0.9286175982363636	-5.962979573858181	0.7025058368181822
O	-0.7622474702363636	-3.244000373858182	0.9787023168181823
O	-2.6508555962363634	-2.9163153738581817	0.33099832481818225
O	-3.8381600062363637	-2.672991593858182	0.5614769768181822
O	-2.8873721362363636	-3.994929863858182	-0.6747913921818178
O	-4.6195742962363635	-2.1992141738581816	-0.39785707318181773
O	0.5592323937636363	-3.793138823858182	-0.8497273821818178
O	-2.1810313792363636	-1.7799747738581817	-0.5831101204818178
O	-1.6483740682363637	-3.598986103858182	-1.4745329631818178
O	-4.101930696236364	-2.406281713858182	-1.7327529131818178
O	-2.918473006236364	-5.266534083858182	-0.28546871618181774
O	1.9096412237636362	-3.511052363858182	0.3704846178181822
O	-3.1439627862363637	-1.283542813858182	-1.3220027621818178
O	1.1310939837636362	-4.966146353858181	-1.1264521571818178
O	3.0998196537636367	-4.736861983858182	0.09863155281818226
O	-5.596796876236363	-1.2123534768581816	-0.3632047761818178
O	4.557916173763637	-6.026153053858182	1.8491710368181822
O	-1.3494523652363637	-3.502086313858182	3.204069326818182
O	4.030320213763636	-5.484691173858182	0.9556110568181821
O	2.1282081037636362	-5.508033183858181	-0.4525786484818178
O	-1.5678993252363638	-7.089769113858181	0.6730759068181822
O	-0.8974420082363637	-6.154309133858181	3.0275864968181825
O	-2.8073497462363637	-0.7413048689581818	-2.575932353181818
O	-5.643020266236364	-0.15719718685818174	-1.3984148671818177
O	-5.068043406236363	-2.1140329638581816	-2.635019293181818
O	9.452578923763637	-3.766403623858182	3.0745191968181826
O	11.100171523763636	2.482081366141818	2.192937746818182
O	12.339540723763637	5.009015336141818	-3.1852172431818175
O	8.892945523763636	4.519161176141819	-1.7365158331818178
O	7.464760863763637	1.6949420861418183	0.39628428781818226
O	6.087150173763636	2.937850556141818	3.7446806968181816
O	2.6742567937636363	1.2111855161418181	3.980293046818182
O	0.30411397376363625	1.767665776141818	6.855920686818182
O	-2.0037969792363635	-0.8194832348581818	5.472519526818182
O	-3.0918469762363636	1.0092924961418182	2.3453921868181826
O	-4.098807016236364	4.633323696141819	1.3769967068181823
O	-2.7354348662363637	5.417573446141819	-2.1119634731818175
O	0.4312451837636364	6.9978238061418185	-3.186080403181818
O	1.3508320637636362	5.033913096141818	-6.303048123181818
O	4.604865563763637	4.9788555061418185	-8.264956173181817
O	-7.345132906236364	3.115840386141818	-10.995461173181818
O	-7.407668686236363	-0.6567609672581818	-10.519787703181818
O	-5.9965949962363645	-2.352778693858182	-7.455170883181818
O	-6.136074496236363	-6.164237473858181	-7.211913723181818
O	-2.3029237362363637	-6.255933183858182	-8.670307923181818
O	-1.3774048692363636	-2.888115103858182	-10.211581083181818
O	-3.2072377862363637	-0.6479576172581818	-12.659565573181817
O	-0.25955508823636364	10.199662356141818	-7.615561313181818
O	-1.3627755002363637	6.943436606141819	-9.229392723181817
O	1.4154403937636362	-8.256529023858182	-11.672670673181818
O	3.4483762137636362	-9.555599403858182	-8.704202293181819
O	3.548097353763636	-6.035676743858182	-7.232271113181818
O	7.1712957037636365	-4.967818593858182	-7.563909103181818
O	9.683148723763637	-7.104352273858181	-5.673495663181818
O	11.620323623763637	0.5318650561418182	-4.003014583181818
O	6.4186300437636366	3.005362466141818	-5.413120863181818
O	4.1896627737636365	2.7458378461418183	-2.3401514831818178
O	3.141807883763636	5.415784686141818	0.20875826081818227
O	-0.2522039062363637	4.495620816141819	1.6647710668181823
O	-0.47204484223636367	6.073113506141818	5.046799016818182
O	-3.8927681562363636	4.882246086141818	6.131430076818182
O	-7.190292146236363	6.828754236141819	5.803015516818182
O	-9.224247636236363	7.889065076141818	2.738571006818182
O	-11.950412176236362	5.420641696141819	3.612226066818182
O	-9.866771866236363	2.644741736141818	2.038064856818182
O	-8.331834356236364	4.611596926141819	-0.8275437331818178
O	-8.902098526236363	3.310798916141818	-4.395876823181818
O	-9.841582826236364	3.402834366141818	7.7762294168181825
O	-6.988245986236363	0.9733463061418183	8.449597216818182
O	-5.080514966236364	1.7558396561418181	11.655557226818182
O	-1.0956496652363636	-2.251958303858182	12.333623126818182
O	0.2679898837636363	-2.859414413858182	8.771831786818183
O	3.8845575037636366	-2.063263283858182	7.814248246818183
O	3.0304072937636364	-3.393439773858182	4.383396096818182
O	2.763400553763636	-6.939674533858182	5.695274926818182
O	5.815590933763636	-8.905005183858183	6.842500876818182
O	4.323663783763637	-11.301392243858182	9.382936056818181
O	0.8945048937636364	-16.98302774385818	9.753564726818182
O	-8.968776706236364	-11.146707643858182	7.269592596818182
O	3.0633387937636365	-6.6235435238581815	10.371247426818183
