89

O	-5.009222708962264	0.6829274280188677	-2.0904567034188677
O	-5.486857888962264	-0.4793512359811322	-3.0909352810188677
O	-5.074998598962264	-0.22175482498113225	-4.420089629018868
O	-3.990957758962264	0.6182866380188677	-4.398783779018868
O	-2.891804488962264	-0.07614234298113226	-4.476638839018868
O	-2.549724168962264	-1.3487757389811321	-5.0969055090188675
O	-3.716790548962264	-1.9292490289811322	-5.435060539018868
O	-4.913314658962264	-1.4934287489811322	-4.977212819018868
O	-5.186090998962264	-1.0912239889811322	-6.162247929018868
O	-3.141746608962264	-3.3588276389811322	-5.389957539018868
O	-2.132851811962264	0.024777645018867755	-3.413850679018868
O	-1.5901489169622642	1.1032939070188676	-2.860682352018868
O	-1.2446934752622643	2.372636191018868	-3.310802469018868
O	0.12343263103773583	2.7204947110188678	-3.4899825290188677
O	1.143263861037736	1.9136821410188678	-3.208679499018868
O	0.7286646110377357	0.6912618390188677	-2.597155366018868
O	-0.5473787009622642	0.06230967401886772	-2.7879784540188677
O	-1.0245172529622641	-1.3329822189811322	-2.716531855018868
O	-2.226333338962264	-0.9761493189811321	-2.499320928018868
O	-1.046455772662264	-2.6429440089811322	-3.020308755018868
O	-1.443869244962264	0.24768850891886773	-4.815222579018868
O	-1.4465705159622642	1.3830905310188677	-5.497620039018868
O	-0.49143703296226415	1.4211178210188677	-6.541811709018868
O	0.7834502510377359	1.1853325670188677	-5.922205599018868
O	0.6908432710377359	0.02272773401886774	-5.251632429018867
O	-0.44459477196226416	-0.6686722449811322	-4.8198141490188675
O	1.6188982310377358	-0.9574204689811323	-5.3366619190188676
O	1.7973991210377358	-1.8143790589811322	-4.319463299018867
O	2.8981230210377356	-2.6244794389811323	-4.771489319018867
O	3.1184925510377357	-2.791162328981132	-6.145626069018868
O	2.935720061037736	-1.6114824689811322	-6.819247159018868
O	1.6068413310377356	-1.3775012089811323	-6.624679889018868
O	3.7309472210377357	-3.0051236889811324	-3.6977140390188676
O	4.161419821037736	-3.046391368981132	-2.558472599018868
O	4.1397103710377365	-4.4456545989811325	-1.9104248740188678
O	1.674589921037736	-0.14589092598113224	-2.6447586310188678
O	9.273905051037737	-2.4601153189811322	-3.127488491018868
O	7.1081720410377365	-3.581095178981132	-0.1807969090188677
O	7.417111711037736	-4.104330078981132	3.5479785909811326
O	6.909055351037736	-1.080715308981132	5.676622120981133
O	7.502111591037735	4.7509617910188675	6.990352310981132
O	4.292637381037736	3.0319739210188676	5.979819960981132
O	3.666337031037736	0.21918176901886774	3.458285600981132
O	1.9296236310377357	-2.795817488981132	5.195132720981132
O	-0.9958976589622641	-3.637440228981132	2.834859240981132
O	-3.403496638962264	-6.323979258981132	3.1949019009811326
O	-4.920842768962264	-5.6997509689811325	-0.0896564490188676
O	-6.445404338962264	-2.278574148981132	0.7273758309811322
O	-8.323604728962264	-0.5428933979811323	3.454667080981132
O	-7.131696118962264	3.069762381018868	3.691574930981132
O	-4.492206248962264	4.5589407210188675	5.914655120981132
O	-3.045209008962264	7.182869971018868	3.561471340981132
O	0.13826002103773583	9.238550911018867	3.960863980981132
O	-8.526825058962265	6.707423141018868	-5.211655519018867
O	-7.855475108962263	5.934840861018868	-8.889488909018867
O	-3.9040945489622643	7.411287911018868	-8.486151679018867
O	-3.758881268962264	9.321173381018868	-5.269233899018868
O	-5.963648838962264	12.188767141018868	-4.063068759018868
O	-5.891906688962264	9.468238321018868	7.865665520981132
O	-6.095731028962264	10.398920041018867	4.234652610981133
O	0.3695482010377358	10.026860891018869	-9.934397859018867
O	2.758261491037736	7.150286271018868	-10.095540859018868
O	1.887013701037736	6.132471391018868	-6.525891719018867
O	5.157580701037736	6.682888951018867	-4.673671399018868
O	8.042449781037737	4.3884681110188675	-5.595362759018868
O	11.508307751037735	6.1146361610188675	-5.817265789018868
O	11.059093351037736	2.356812851018868	-1.485571356018868
O	11.731488251037737	4.5032382510188675	1.606443890981132
O	7.992350371037736	4.502903071018868	2.4337711309811323
O	5.759846121037736	7.602148321018868	2.586837200981132
O	2.327488501037736	6.088916981018868	3.008423660981132
O	0.2335088310377358	2.949621281018868	2.991238290981132
O	-1.5132224039622642	1.0318289280188677	5.662918970981131
O	-4.592076088962264	-0.7195503589811323	4.4339931809811315
O	-5.3020948389622635	-3.6659119489811323	6.641092060981132
O	-8.301035548962265	-5.083939808981132	4.760713350981133
O	-11.982345048962264	-4.482083208981132	5.617249790981132
O	-13.718420548962264	-7.210991138981132	2.1751248809811323
O	-10.331396598962264	-8.293241988981132	0.8280948409811324
O	-2.239787138962264	-9.273655958981132	-0.5577381090188678
O	1.079326331037736	-8.006033408981132	0.9032728809811323
O	0.7528537310377359	-5.026348798981132	-1.4084456870188677
O	1.046052891037736	-7.314023868981132	-4.468157399018867
O	4.631874391037735	-8.829661258981131	-5.196359219018868
O	3.498379481037736	-11.866826858981133	-7.310514399018867
O	1.059396461037736	-13.566588758981132	-13.414529979018868
O	1.2988404110377356	-11.623268758981132	-2.9508332240188677
O	4.515047501037737	-10.952922758981131	-1.0575211790188679
O	3.789376211037736	-14.594213458981132	1.8712885509811321
