124

O	-2.707134712671875	-1.291050073078124	0.8520024092656253
O	-1.5624953436718754	-0.578053173078124	2.784696857265625
O	-2.7696555126718754	-1.1184927530781241	-0.4686209427343748
O	-4.743098002671875	-0.2664685150781241	0.5777363072656252
O	-4.2870716926718755	-2.348871793078124	1.9333785102656253
O	-1.7382279476718754	-2.848714613078124	3.697104547265625
O	-3.4975927226718753	-0.09665143807812404	1.3019124552656254
O	-5.265107962671876	-0.22210076507812404	4.052727657265625
O	-6.077693442671876	-1.202976543078124	2.011880662265625
O	-5.122213472671875	-1.5205760630781242	1.1959739852656253
O	2.985150417328124	1.3867322599218759	4.945995057265625
O	-4.073552202671875	-1.6489299730781242	5.134602227265625
O	-1.8181689346718755	-1.5214491330781241	1.9069805292656252
O	-0.6921251366718755	4.180381266921875	6.572368027265625
O	-2.8241216326718757	1.0743054799218759	3.282152057265625
O	-1.4290979216718753	-2.881013853078124	2.315012928265625
O	2.2700122973281243	-0.230021926078124	4.1801899272656255
O	-5.7785496726718755	0.771493295921876	0.44024618726562537
O	1.8498627073281246	4.520911256921876	5.741805677265625
O	-4.6063078426718755	-2.659587873078124	3.3464674072656253
O	0.3359468173281246	6.088650546921876	5.325736797265625
O	-4.5637548826718755	-1.397711903078124	4.012364037265625
O	-5.355168442671876	-3.8053734730781237	3.085121507265625
O	-4.502983632671875	-4.812623083078124	2.3020388752656253
O	-6.640757992671876	-3.771323503078124	2.3240248802656254
O	-5.135261452671876	1.002688669921876	4.772852287265625
O	-4.104591182671875	1.117591073921876	5.802209517265625
O	-3.137232292671875	0.27137207392187596	6.086748627265625
O	-2.3536088826718755	-0.133160703078124	7.126759367265626
O	-2.1526130726718753	0.898276870921876	7.9507786772656255
O	-3.2566589326718756	1.771221806921876	7.833528057265625
O	-3.7819198426718756	2.179679956921876	6.563966137265625
O	-1.3021823866718754	-1.800143763078124	4.531198337265625
O	0.25238348732812455	-1.8147751730781239	4.502254577265625
O	0.5144950273281246	-2.299265793078124	5.833605877265626
O	1.7961246173281247	-2.783989653078124	5.946014787265625
O	2.5978483273281245	-3.2552847030781242	4.948272517265625
O	2.0394848973281245	-3.331002393078124	3.703466197265625
O	0.7216400973281245	-2.869930303078124	3.689878417265625
O	-1.1801428729718755	1.5413227939218759	4.217006707265625
O	-1.7402897516718754	0.656653353821876	3.3167622572656255
O	-0.2625680196718754	0.747959329921876	4.745458657265625
O	0.7007542073281245	1.136354428921876	5.433652447265625
O	0.38937641732812467	2.341995866921876	5.883884947265625
O	-0.7339939896718755	3.041392076921876	5.812876107265626
O	-1.4116247176718755	2.777849106921876	4.673737197265625
O	1.9759180173281246	0.562864071221876	5.075435207265626
O	4.213420677328124	0.9247656929218759	5.653342557265625
O	3.4782537273281244	1.226411361921876	6.895338017265625
O	4.343674517328124	-0.5201118530781241	5.270537537265625
O	2.7098963173281243	0.13875025492187598	7.175488577265625
O	1.7989692273281246	-0.2542321100781241	8.110762287265626
O	1.1309542773281247	0.7943159419218759	8.611125617265625
O	1.7927218373281246	1.979572386921876	8.484648887265624
O	2.8468978573281243	2.233255446921876	7.535902557265626
O	-1.3432532016718755	4.099841886921876	7.8216681172656255
O	1.3237212073281246	5.582307216921876	7.9307102072656255
O	2.237195847328125	-4.516439683078124	3.084840907265625
O	2.1418031473281243	-3.168261703078124	7.185433507265626
O	0.6848799373281247	5.179284806921876	6.394631737265626
O	11.868328777328125	-4.235907843078124	-1.956398132734375
O	11.725684477328125	-0.9942085230781241	-0.01784347273437481
O	9.193464977328125	1.512855123921876	1.2287585292656253
O	8.918138177328125	0.034624958921876	4.682643467265625
O	7.892339147328124	-3.439713143078124	3.6438341672656254
O	6.771119977328125	-2.951863473078124	0.06719587726562537
O	7.912141917328124	-3.3823831530781243	-3.5511622027343748
O	7.300046307328125	-6.588202533078124	-5.5051342927343745
O	3.9997438273281247	-10.321046653078124	-5.672849132734375
O	3.503559867328124	-6.970989763078124	-3.927161342734374
O	2.6380365273281248	-4.135265363078124	-6.315661672734374
O	-0.3001321816718754	-2.471022613078124	-4.1477710927343745
O	-2.059947311671875	0.412469561921876	-6.135947162734374
O	-4.258779382671875	0.825571954921876	-3.129656472734374
O	-6.2529605126718755	-2.392047113078124	-3.625685902734374
O	-7.974343912671876	-4.398010703078124	-6.264072332734375
O	-7.5123797026718755	-8.079106613078125	-5.446902172734375
O	-4.914015702671875	-10.488940353078124	-6.789230292734374
O	-4.356237832671876	-12.665410053078125	-3.6941065027343747
O	-12.859031622671875	-11.783169053078124	3.7764353672656252
O	-10.557296652671875	-8.790686773078123	3.855100537265625
O	-10.145076172671875	-7.2238638230781245	7.296031947265625
O	-6.666418062671876	-9.438303153078124	7.805626127265626
O	-6.6198129026718755	-12.177579453078124	5.219708037265625
O	-0.6462667806718754	-9.706070653078124	10.377292517265625
O	-0.7605468366718754	-9.979783353078124	6.498507837265626
O	5.644513957328124	-9.514750353078124	6.538640347265625
O	9.538193977328126	-8.873951573078124	2.833908387265625
O	6.822019697328124	-11.505992153078124	-1.293795672734375
O	1.0611477073281248	-12.376195553078125	-2.626938792734374
O	-0.39455554067187537	-9.042172193078123	-3.616573332734374
O	-4.150777502671875	-5.039403723078124	-6.410765732734375
O	-6.791709812671876	-0.36403300607812406	-8.460343952734375
O	-13.099315222671875	-1.5483778330781242	-4.337783852734375
O	-12.529761422671875	-5.2366866830781245	-5.042083232734375
O	-12.034202822671874	3.178306346921876	-7.515283392734374
O	-8.760497902671876	4.035898836921875	-5.828320082734375
O	-6.341070202671876	6.011283356921876	-7.969873902734375
O	-4.9891675626718754	8.669685796921875	-3.5209877027343746
O	-1.7453537106718753	7.1689658869218755	-4.728599242734375
O	-0.9757543266718753	4.0102009269218755	-2.553004012734375
O	2.1348313973281243	1.923038596921876	-3.2750605827343744
O	0.9959254573281247	-0.32313501507812403	-0.40581873273437474
O	1.2482590473281248	2.410872886921876	1.9654891822656253
O	4.786988327328125	3.492028476921876	3.1078294072656254
O	4.178567677328124	7.043906946921876	4.277364967265625
O	3.0095164073281246	10.304400636921876	2.7721771672656255
O	-0.18132897267187542	10.575764656921876	4.811964307265625
O	7.264937797328124	9.335930096921876	12.839698147265624
O	7.925796717328125	9.451140296921876	6.695662467265626
O	4.970197807328124	11.827357246921876	6.836899587265625
O	2.051766387328125	11.041921546921875	9.114564697265624
O	-1.5443584216718755	12.039524546921877	9.807895937265625
O	-4.593003722671876	10.684674546921876	8.026492877265625
O	-8.355500842671875	10.763640146921876	8.716496557265625
O	-8.898261412671875	9.016720746921877	5.412086397265625
O	-2.1892850926718754	8.979283736921875	0.8298987552656253
O	0.7809737573281246	9.294905976921877	-1.4553596927343746
O	2.5618565573281247	6.196756366921876	-0.21854839273437476
O	5.761749387328124	4.613796306921876	-1.3312867027343749
O	8.108519377328125	7.272797466921876	-0.015407992734374654
O	6.459230867328125	9.836599026921876	-2.244468992734375
O	6.322702997328125	7.486187176921876	-5.151536042734374
O	10.106850777328125	6.987162056921876	-4.856781382734375
