29

O	22.5347636576103	10.014417041950539	23.769547968805398
O	22.49862416720449	11.43721576073228	23.93523391049974
O	21.69225271748924	11.967584283498399	22.870555085954653
O	21.046679689773224	10.965604580550707	22.013400735702504
O	22.5149839012979	9.30425712099236	24.911457228153743
O	21.610020595006908	9.848496804503199	22.704678854474423
O	19.85975592058695	11.055619357991734	21.335073399018746
O	21.556624510986783	13.169037345959854	22.44436946124488
O	21.86019909201475	10.905525020685122	20.773006176401307
O	19.73119756501328	10.154045625542118	24.657899064744427
O	22.969720214306736	12.2173167016926	25.08718699241634
O	19.33967530734952	10.382745906685555	23.38751620359214
O	19.30219108574881	9.782267282612858	21.287237096970422
O	19.515781376415735	9.107546001562412	22.569569590048314
O	21.280042072399635	9.578032359043014	20.46317492670908
O	19.827336152291323	11.508851466900168	24.68884241652068
O	21.077661187073975	9.909802467738396	19.03948096313526
O	17.43230483096941	11.228405995893716	21.845254720217465
O	18.353232038844638	11.369776040988114	22.97110787996415
O	17.90223113052174	10.126097475270624	20.960426646275923
O	19.828654953090606	11.927030695512798	26.189589827567175
O	19.185298449635937	12.796591187248875	24.439925700977632
O	19.726362423132365	10.075050188859425	18.501142516218195
O	21.599792285788435	11.28453491806329	18.77563547744842
O	21.03900171968439	12.492283848531052	19.445071531632617
O	18.26988313904887	11.716535451479956	26.145580511202596
O	17.93513262862581	12.660096451430976	25.287560248854387
O	19.136055094733333	11.43153382610571	18.491579372121198
O	19.5545688477545	12.508295410665216	19.44356398747383
