30

O	21.04359708128377	10.801671061604896	21.53191228672212
O	20.805483456757845	12.311515399552423	21.82815393833541
O	22.28626465595375	11.582609886859636	23.660449854128853
O	21.833610056706565	10.254410771716628	23.60134946382809
O	21.58294837638308	12.570712670965182	23.024521377603133
O	21.03192913368422	9.88239180365651	22.63414948201062
O	18.569960713524477	9.904421107860532	21.928458660045013
O	18.35888834112288	9.13268102857214	20.818548697494844
O	19.255728251578553	11.104220317818399	21.738809369530586
O	22.161169254954075	10.70848060570548	20.70939598692983
O	17.25591086647303	9.025161431955185	20.21254478282557
O	17.464057394150956	10.134153319745502	22.61507777972752
O	19.996677709472916	10.741536461061816	20.519087629899598
O	19.35988159072912	12.443933656477306	22.136178046456145
O	16.233401215610947	9.847996950963681	20.70288331054688
O	23.615716000282482	10.04348608789316	21.64332411137437
O	16.25704908328799	9.969828134078337	22.04825261434055
O	22.907994411561965	10.900803778868733	19.66874193310475
O	24.96058718298578	10.681045045193821	20.724212597042865
O	26.996899326813548	11.656707762746729	22.00112303514969
O	21.613841093364897	9.65168218731141	24.85076261826636
O	26.216172247030848	11.261064167277127	21.224508850903437
O	24.09096075126519	11.438283367542741	20.044839536782995
O	21.2310652098445	13.72396248134153	23.480782181661503
O	22.83274573444905	12.07043195033532	24.87660201717504
O	16.63422589931424	7.800073905200981	19.943499912752046
O	15.175610528457902	10.775963091311993	22.697687640935406
O	15.473205470486413	7.602085782453606	19.18872614776754
O	16.0126197988744	7.631500318191155	17.743889314010563
O	15.132515671435549	10.176360406686392	20.043435809766418
