19

O	17.097377373845525	12.618674689950272	22.542754990897745
O	18.432973316227812	12.287800361646145	23.094840059861124
O	18.899411155731563	13.243136637951832	23.999721493964508
O	20.199158267730134	13.78221351249131	23.953239246280955
O	21.015611395772968	13.384632542130472	22.860231089819607
O	21.7937326358907	14.307335029019363	22.018641445558224
O	20.741686235045833	12.054224145797658	22.494028358474235
O	21.856363709133408	11.373974516377483	22.034257484400303
O	22.99288549549638	11.393662683539013	22.817884023622113
O	23.29276252928191	12.51513439498942	23.709557043042608
O	23.37913182667689	12.13177682947185	25.0719469165037
O	24.40699999118803	13.437941050156411	23.501136761566972
O	25.428818817704794	13.372299813648462	22.54604410349342
O	25.705724979127485	12.10767532029167	21.934555778757336
O	26.713509479832023	12.480235637318644	20.850148907955443
O	27.68316003126486	13.385641751755687	21.290488313540635
O	27.787620567661925	13.085615238606014	22.672887034452508
O	26.597636808888403	13.762189794677099	23.285846382385532
O	19.413844832765555	11.648289759346142	22.280813655104872
