93

O	2.7977018784210523	3.125360449735088	-4.787266455988421
O	1.9179169084210526	2.228059559735088	-4.16200569598842
O	2.3245398184210524	0.915037866735088	-3.872959925988421
O	3.6695494784210525	0.7873477137350879	-3.685904495988421
O	4.661329578421052	1.646515724735088	-4.103969105988421
O	4.074939878421052	2.8976027397350883	-4.2965321459884205
O	1.2079342284210526	0.01226083973508807	-4.03854387598842
O	1.0001723384210526	-1.0615444402649121	-3.173106238988421
O	1.0694724684210526	-0.4028675902649119	-5.235700465988421
O	-0.009845240478947501	-2.066308600264912	-3.367960423988421
O	-1.2843141515789473	-1.3789980002649118	-3.616562605988421
O	0.3895829994210525	-2.8829134502649123	-2.176145654988421
O	-0.4220717005789475	-3.851754520264912	-1.6877647109884206
O	-1.3937890615789474	0.02238296973508791	-4.23990244598842
O	1.7395592384210525	-3.422006550264912	-2.2495763909884205
O	2.7272888984210524	-2.495332850264912	-2.2981565239884207
O	-1.6085971715789475	1.261425216135088	-3.6192641559884207
O	-1.3843414415789475	2.559065109735088	-4.1384794659884205
O	-1.9034971215789473	2.735681499735088	-5.358495275988421
O	-2.1369860615789475	1.597997657735088	-6.0480008859884204
O	-1.9557320515789474	0.325240176735088	-5.49052472598842
O	2.4946847184210528	3.697740849735088	-6.071332295988421
O	1.2149314884210525	3.206827669735088	-6.646741295988421
O	0.9829352484210525	1.688740783735088	-6.378347935988421
O	5.630090588421052	1.224741641535088	-5.15135119598842
O	6.822449568421052	2.056997376735088	-5.207206065988421
O	6.760443018421052	2.846618469735088	-6.458174965988421
O	6.3318789484210525	1.692270976735088	-7.408240685988421
O	5.536309888421052	0.696390579735088	-6.544032895988421
O	7.5762216184210525	1.650739067735088	-4.31267699598842
O	3.3986052084210527	-2.419890680264912	-3.480529561988421
O	3.3297975584210526	-2.302607530264912	-4.929804645988421
O	2.7240840384210525	-3.000529610264912	-6.0393864959884205
O	1.5053282784210527	-3.854926880264912	-5.702260535988421
O	1.9833515884210526	-4.469725340264912	-4.388212405988421
O	3.2863324284210527	-4.045645260264912	-3.837362335988421
O	-11.695495261578946	4.1201522997350875	1.2936181240115792
O	-5.1078468015789475	6.912046469735088	1.1071996740115795
O	-5.047139861578948	7.481842159735088	-2.6013594107484206
O	-7.112272831578948	4.422511839735089	-3.646773595988421
O	-6.756687761578948	2.263653329735088	-0.5514066359884207
O	-8.766847161578948	1.072918815835088	2.412735194011579
O	-10.938236061578946	-2.006983040264912	2.0429342840115794
O	-11.044269861578947	-6.266765660264912	-0.47636817598842063
O	-8.047121221578948	-4.034439250264912	-0.1331790259884209
O	-6.313934551578948	-4.297887710264911	3.2776500840115794
O	-2.5751571615789475	-4.594640610264912	2.202698624011579
O	0.0969233774210525	-5.092019730264912	4.924208524011579
O	2.6855097984210525	-4.902690070264912	2.1056713540115792
O	1.8457561084210525	-8.256201050264911	0.4653458040115792
O	0.9582235724210526	-11.829188080264911	1.4346365240115793
O	-1.5973267415789474	-13.138733380264911	-1.0578669059884207
O	-5.3656170815789475	-13.22594008026491	-0.7913423459884208
O	-6.345622191578948	-12.595172780264912	-4.433704695988421
O	4.510627108421052	-8.607952360264912	-11.58919047598842
O	0.8410327794210526	-7.047445620264911	-12.66610921598842
O	-1.8152101815789474	-9.695824480264912	-12.04699618598842
O	-2.8097736115789473	-1.6983195702649119	-14.074082215988422
O	-4.0144671415789475	-3.7249073502649117	-11.03748531598842
O	-8.149642961578946	0.9890904587350879	-9.76601958598842
O	-11.750749561578948	2.3009711097350882	-5.737030815988421
O	-9.488072321578947	-8.05285444026491	-4.460840135988421
O	-6.631323011578948	-7.788072770264911	-2.0242104969884207
O	-2.1432721415789473	-9.582562580264911	1.837725654011579
O	2.2479385484210526	-9.882756080264912	5.574981904011579
O	7.270521538421052	-7.564737990264911	5.05151997401158
O	6.392137868421052	-5.884592270264912	8.36844968401158
O	8.310845608421053	-1.3968359002649118	6.1938185040115785
O	4.751499458421052	-0.542991680264912	7.240848254011579
O	2.6020304684210527	-0.793107190264912	4.09698733401158
O	-1.1478117415789475	0.06213813973508797	4.10736186401158
O	-1.0193240925789475	-0.6962896402649119	0.3871566640115791
O	1.3576330484210526	2.257699499735088	-0.35543928598842056
O	-0.1593707245789475	5.785571219735088	-0.3806700959884206
O	2.9890024684210528	7.706362509735088	0.3238875440115794
O	5.551842548421052	8.012040819735088	3.0846880040115794
O	8.468871258421053	6.861604619735088	0.9626102840115793
O	4.560496378421052	14.869568819735088	-5.536788035988421
O	2.6279845184210524	12.675377119735089	-0.12799220598842087
O	6.274286108421052	12.026615619735088	0.5625589240115794
O	8.306725928421052	10.533080449735088	-2.2660849199884208
O	11.632006038421054	8.899881889735088	-2.9366582829884207
O	12.330334038421054	5.229134809735088	-2.689547949888421
O	15.257185838421053	3.011125029735088	-3.7359767059884206
O	13.676234038421052	0.09406492973508795	-1.8500808939884208
O	7.763855568421052	2.779036559735088	3.3476679140115797
O	5.311690568421052	3.941486829735088	5.90256186401158
O	2.2631060384210526	4.139556139735088	3.731763214011579
O	-1.3198729415789474	5.035504979735088	4.264662534011579
O	-0.7541851415789476	8.748724749735088	4.805220654011579
O	1.4904910884210525	7.968629309735087	7.754756384011579
O	-0.7954638615789476	5.2363186797350885	9.041984084011581
O	-3.6626777215789477	7.763202159735089	9.06529418401158
