28

O	23.45978244837039	10.170999485973377	20.65250922897647
O	22.99323610637477	10.560344043867943	19.393492245636768
O	23.89286847597591	10.750251345744113	18.362378863379448
O	25.092056009343906	11.362868416609953	18.766197416881674
O	25.673050824345424	10.945891151084714	19.93128272556243
O	24.796033452280028	10.062933552633984	20.605855473934778
O	22.587159535756932	10.483766317349737	21.778862876275788
O	21.117709830882184	10.535413212313296	21.660204798710932
O	20.872578225692905	10.766687278598434	20.34880743231729
O	21.65428539106296	10.273670111968027	19.355786328913528
O	20.554516680789387	10.962212812990398	22.802645357174956
O	20.295457592387756	12.313722161556989	22.72717313058365
O	19.50869014788865	12.347070504288581	21.504431023908417
O	20.488140018346385	12.20542512846471	20.341232379410446
O	26.55166587697903	11.822020068600253	20.857280009859064
O	26.607736647895834	11.259773198159982	22.166938483536597
O	26.065033489672217	11.91732626090943	23.261279748104105
O	26.558270278252785	13.207950751957132	23.251920732893204
O	25.60603951660513	13.725355489494468	22.218184896227136
O	26.080389441733953	13.1599629693679	20.967417916196634
O	22.6563142072137	9.55596774976594	22.847307345802943
O	22.395283300889396	10.268589831408317	23.894177065358157
O	22.688202467427264	11.625983751618135	23.65861830025026
O	22.730288635595876	11.913591314806265	22.25430823609852
O	22.652417748654685	12.966905505206167	21.596690248633063
O	23.03409255428324	12.559509002742912	24.66207026694838
O	22.564741462991847	9.58216445846579	25.16463583578878
O	26.33953272736957	9.901230618027757	22.215387787671652
