101

O	3.5023974034516128	5.758966914612904	-2.580941519950322
O	4.841129653451612	5.472870394612904	-1.975828329950322
O	4.779386273451613	5.775547834612904	-0.5363287599503219
O	4.8663936234516125	4.555566914612903	0.21034159904967803
O	4.049850173451612	4.928819784612903	1.391140463049678
O	5.050415183451612	5.910551394612903	1.859613530049678
O	4.359136433451613	6.485427844612904	3.022028060049678
O	5.839165203451612	3.6355227246129034	0.7182702129496781
O	6.294757793451613	2.5884830996129033	0.259327970049678
O	5.614352433451613	3.0082944146129034	2.101137610049678
O	5.869570383451613	3.612722524612903	3.296275640049678
O	5.087435973451613	3.4242261946129036	4.441560190049678
O	4.158234313451612	2.4719333276129034	4.189950560049677
O	3.4884399534516124	2.187043833612903	3.022578580049678
O	4.264293203451612	2.5665977546129035	1.980083290049678
O	2.1833542434516127	2.7765234366129032	2.6517610500496778
O	1.7238347734516126	3.3140853946129036	3.732428920049678
O	1.1664024834516127	2.3808374316129033	1.809323600049678
O	-0.24198121854838722	2.5389015356129034	1.804414550049678
O	-0.8103599785483873	3.2931639346129034	0.5701673575496781
O	0.11746243845161275	4.459102084612903	0.476239916049678
O	0.8577419734516128	5.157483034612904	-0.4017588999503219
O	1.5872817134516128	6.236796184612904	0.11288364404967799
O	1.7509647334516125	6.466071884612903	1.442542529049678
O	0.9899843434516128	5.871274614612903	2.352015240049678
O	0.027154731451612735	5.082035224612904	1.719742310049678
O	-0.9237301465483873	1.2674855356129036	2.014643160049678
O	-2.223591276548387	1.5146427026129035	2.260047680049678
O	-0.3352530445483872	0.5714831146129034	3.154629440049678
O	-1.4899338395483872	-0.2187870053870966	3.628818270049678
O	-1.6220988165483874	0.8713732746129035	4.612623880049679
O	-0.6043534311483872	0.8467968646129034	5.6518274400496775
O	0.36255234545161275	1.4570009206129035	6.408299230049678
O	1.7166269834516128	1.4176515076129035	6.344526220049678
O	2.0278770034516125	0.5082000746129034	5.329967940049679
O	1.316721453451613	-0.6701564353870968	5.445018700049678
O	1.5950678234516125	-1.5854647353870968	4.399120260049678
O	0.5371272634516128	-2.5671487653870964	4.478451150049678
O	-0.10387646054838723	-0.4502253953870967	5.7264358100496775
O	7.171649213451612	-0.04688455538709646	-6.375693079950322
O	8.334877393451613	3.3407839146129037	-5.202786289950321
O	5.228542653451613	5.3320790946129035	-6.038622409950323
O	2.6642636234516126	2.4849623486129033	-6.354399189950321
O	0.8343432034516128	0.5151611846129034	-9.117640259950322
O	-2.489020816548387	1.7306778266129035	-10.495870099950322
O	-6.371001496548387	4.345950174612903	-9.032709739950322
O	-3.676669806548387	2.9554680166129033	-6.676130029950322
O	-4.106986136548387	-0.7730363553870967	-6.130479599950322
O	-3.737994966548387	-1.1975114253870964	-2.368211679950322
O	-4.164174296548387	-4.640368365387096	-0.733269209950322
O	-3.1065138865483872	-3.0296568153870966	2.5843280000496778
O	-6.303851826548387	-0.8929249153870964	3.052391890049678
O	-10.076612476548387	-1.1268196353870967	2.582306100049678
O	-11.344796666548387	2.2421120646129036	1.330066722049678
O	-12.066418166548388	3.3715401646129033	-2.218097329950322
O	-11.025744066548388	7.048953394612903	-2.043508709950322
O	-7.738806986548387	8.794655204612903	7.741703840049677
O	-4.334916356548387	9.694126754612903	9.381767580049678
O	-3.4235211165483874	11.861256434612903	6.011445100049679
O	-6.589709116548387	12.375120644612903	3.951084620049678
O	-14.729556866548387	8.688688344612903	-0.18166258895032195
O	1.3495342034516127	14.062976944612902	1.979855620049678
O	-1.3567820525483874	11.877958004612903	0.26957512204967804
O	-0.8797912045483872	12.357001444612903	-3.420707889950322
O	2.5940660434516127	11.646679304612903	-4.806824769950323
O	2.7486934334516127	8.912014014612904	-9.427365799950321
O	-2.7191828965483875	8.168170744612903	-9.815810299950321
O	-7.283086196548387	7.716138394612904	-5.999092679950323
O	-6.8146706865483875	4.486287524612903	-4.052605979950322
O	-8.600317446548388	1.1271628096129034	-4.295621559950321
O	-8.469123886548386	-0.6045406453870965	-0.891957159950322
O	-8.548596386548388	-5.581333415387096	2.061377130049678
O	-11.451894866548388	-6.421880415387096	4.384076180049679
O	2.9965775834516126	-6.462368875387097	-10.396741799950322
O	-9.815604476548387	-11.466557055387097	7.290448950049678
O	-8.795526026548387	-7.876186495387096	8.012241190049679
O	-5.450789626548388	-7.222018275387096	6.302965890049679
O	-4.395801056548387	-10.067163355387097	4.028106720049678
O	0.6848718134516129	-8.941539055387096	1.700646980049678
O	0.5186577134516127	-5.368768545387097	0.652071540769678
O	0.7953131734516127	-3.6881134453870965	-2.583932579950322
O	0.6831276534516127	-0.17812736538709673	-1.052028129950322
O	4.031278543451613	-0.7316605553870967	0.575280098549678
O	7.189579353451613	-0.5040004353870964	-1.4111410699503222
O	9.574584633451613	-2.6360507153870962	0.627953998749678
O	9.828457533451612	-6.085927185387097	2.076065200049678
O	9.636127933451613	-5.218932665387096	5.712530360049678
O	17.569424733451612	1.8472427056129035	2.723341030049678
O	14.268293733451612	-4.2884628153870965	2.711113090049678
O	13.587343833451612	-2.344831925387096	5.888215720049677
O	12.674363233451613	-2.8042124953870964	9.525413780049679
O	9.183914023451612	-2.9945272253870963	10.88388490004968
O	7.585142983451613	-2.4100292153870964	14.322019800049679
O	4.177060823451613	-3.4769725253870964	12.844024600049678
O	5.148340963451613	-6.884873895387096	5.067717820049678
O	5.395056853451613	-8.326615655387098	1.687740640049678
O	5.352047833451612	-5.038759435387096	-0.19169835595032192
O	5.527447833451613	-4.406377885387096	-3.9118449699503217
O	9.148590023451613	-5.384012005387096	-4.404325499950321
O	8.330851543451613	-8.863599755387098	-3.228097269950322
O	5.055037743451613	-8.997522055387098	-5.102884179950323
