38

O	23.773070733555347	9.206021843273565	22.774497537778203
O	23.911374381447448	10.534897458138936	22.048412510457524
O	23.057765154593945	12.79341675592162	22.285277977288292
O	23.669518982601975	11.720184292830275	22.94286512057388
O	22.993188118723204	11.343434908849034	23.978994755798404
O	22.62586387001877	9.958535709901811	21.496448291850403
O	24.87894559336453	10.697726579757116	20.962292156402846
O	26.304360803318456	11.00766834869031	20.89718958088301
O	27.35999918511644	10.161122226231022	20.569939658785287
O	29.15939619662042	11.593616959880539	20.838576404462607
O	28.120596645414086	12.467461239886823	20.89995860046215
O	28.73705392292871	10.320836772014538	20.783051969418633
O	26.85723544333981	12.161727881547264	21.32314953767452
O	25.94746645495378	14.587422011356573	25.360415744665314
O	25.969540652953082	14.025649453344545	24.115270420595884
O	24.921961927355813	13.20908042873398	24.15138841609232
O	23.65215941746476	13.904288484558148	24.24392250444697
O	23.660388197092228	14.879043626896854	25.275561297555694
O	24.790814938112625	14.820380449867349	26.102607458227002
O	25.133586544241332	15.899132325237495	26.98276196365341
O	27.042562251473544	14.475240898223456	23.27414594725286
O	28.22224847893996	14.327941170948378	23.916855617312006
O	26.97960021336768	15.186207641485298	22.26610077808678
O	27.557514763595545	17.191995659149924	27.95201004466287
O	26.577822779038524	14.651562528124	28.722866885477792
O	27.617095175002877	15.155318732457983	26.742300188687103
O	24.747682794170224	17.170448355532287	26.321173149582354
O	29.490797368104822	14.164512026477642	23.322473820774203
O	29.722101178831227	12.892554818608799	23.990307140610632
O	30.926752872427503	12.339459180975973	23.813197903050067
O	30.48153933871495	10.073356950119548	23.934769017643195
O	29.211512032183837	10.433278984979632	23.977310359079944
O	31.243297248739626	11.045464848611001	23.445301728298084
O	28.84310440186598	11.788363446802533	24.05233288385001
O	29.418653889053687	14.691524370312656	21.974270893060833
O	22.571854424501268	13.821818529413473	23.15707935923963
O	30.92991075501509	8.808787689849913	23.96213800621804
O	26.67234771626727	15.739872504854743	27.77450374766274
