22

O	25.9788660777043	10.680699164852367	19.907884855809165
O	25.892359386999203	11.422270996143144	18.815912156006995
O	24.6909658590125	11.97923231320382	18.50013727032789
O	23.615504001279902	11.77798456702307	19.320864800832904
O	23.614051492208723	10.9489002311422	20.479148257478442
O	24.806834439332203	10.232959322417315	20.498294894189225
O	22.326395074997613	10.744957194121703	21.111406895625883
O	21.53548240406878	9.813724847882341	20.15076553400792
O	21.49352536780249	12.016136253244603	20.86752808846208
O	20.852544723302366	12.32754413668867	22.143309282142045
O	22.362709825969766	12.526182410297103	23.279255911570583
O	22.453229842626506	10.743430281864228	23.552513568836627
O	22.062542753668705	10.159027698303811	22.444434710551995
O	22.504425470344472	10.374134214462186	24.884877637015173
O	27.130978972414134	10.910628867663693	20.77805300267899
O	27.506651918078415	9.874934836525625	21.52966824040335
O	28.74171072085877	9.943181380392799	22.119599068941774
O	29.226979184045533	11.16574177158486	22.26206772547196
O	28.25764953357863	12.076392175731314	22.264356992960487
O	27.102034993245017	12.012521176377323	21.58330546051139
O	27.00565269451279	12.115529893212585	18.43249387977216
O	22.900204539793666	12.937542689952469	19.58155602216746
