81

O	-0.9010904222942311	-4.312644913842307	-0.9157343436076928
O	-0.6217870869942311	-3.8335822038423073	0.30920805169230725
O	-0.8767452002942311	-2.470606283842307	0.4840188716923073
O	-0.617897550894231	-1.7497402628423073	-0.6911869303076927
O	-1.040804151294231	-2.2015090238423074	-1.9485495663076926
O	-1.627067555294231	-3.478143173842307	-1.7805344493076927
O	0.21503524170576893	-0.7006248908423073	-0.7782253733076927
O	1.2065349397057687	-0.7401095268423072	-1.6548889743076929
O	1.296537449705769	-1.7965127868423072	-2.5037376183076927
O	0.03734096270576892	-2.2537787238423075	-2.872342278307693
O	-0.5363218002942312	-5.660422683842308	-1.2661910343076928
O	0.4888062297057688	-6.253831613842308	-0.6010257323076927
O	1.138556649705769	-7.281241253842308	-1.2188995063076928
O	0.9448873597057689	-7.423564783842307	-2.5663882983076927
O	-0.3269664762942311	-7.159002873842308	-2.995062478307693
O	-0.8943530722942311	-6.014915443842307	-2.571876418307693
O	-1.6735256322942311	-5.094794463842308	-3.4579835383076927
O	2.1734911097057688	-2.0912475238423074	-3.6304760483076928
O	2.0315772997057686	-3.5838505238423073	-3.9427228083076926
O	2.715992039705769	-4.010191523842307	-2.6725000083076926
O	3.827182159705769	-3.244197513842307	-2.1382805483076925
O	2.9489123497057688	-5.200173593842307	-2.531218648307693
O	3.893435119705769	-3.1720946738423077	-0.7447342113076927
O	2.518587789705769	-0.30243874184230723	-1.4204046343076928
O	2.6531436497057688	-3.710129303842307	-0.10054364730769272
O	3.0614886897057687	-4.720712623842307	0.9173687316923071
O	2.0832260997057688	-4.859547113842307	2.0312711116923072
O	4.316112419705769	-4.093892733842307	1.5168894716923074
O	3.6638112797057687	-6.010401813842307	0.4486441716923073
O	-6.682321670294232	9.778584346157693	-3.7499725683076925
O	-8.79986122029423	7.035664416157693	-0.23320363330769278
O	-5.647341290294231	6.055550946157693	-2.1924584983076927
O	-2.552485920294231	8.015553886157692	-0.9648466653076928
O	0.08830383270576891	5.1791344461576925	-0.6578929963076927
O	3.6057022797057687	5.8490699761576925	0.5857445116923072
O	4.500855799705769	2.2055149961576923	-0.06741632230769279
O	2.3122617197057687	0.5560182161576928	2.550104021692307
O	1.365795879705769	1.1968880861576927	6.187813011692307
O	-2.279556470294231	0.12329719615769275	6.570942441692307
O	-5.364597890294231	2.344437306157693	6.558226411692307
O	-7.8606373502942315	-0.029644114842307334	4.941446961692307
O	-5.909730480294232	-9.009784213842307	9.000715621692308
O	-4.678859070294231	-10.779486663842308	5.887221901692307
O	-2.7232112302942313	-8.940388103842308	3.259372701692307
O	-1.6251693512942311	-10.886663003842308	0.17916415169230726
O	-4.891544400294231	-9.496895173842308	-1.8376682323076927
O	-7.4369506202942315	-8.160558043842308	0.6752563616923073
O	-8.78754369029423	-9.568152423842308	3.930095491692307
O	-8.96182731029423	-2.4137225138423073	8.515994431692306
O	-8.941979910294231	-10.178908613842308	-5.055863178307693
O	-7.575346990294231	-7.814894563842308	-7.712648068307693
O	-7.337761350294231	-5.023318403842308	-5.134092068307693
O	-10.03347168029423	-2.5482494038423074	-6.154175118307693
O	-9.58830443029423	-1.0000919170423073	-9.586136948307693
O	-11.24582172029423	5.144009996157693	-4.618329828307693
O	-9.72504388029423	2.455400436157693	0.3978682916923073
O	-6.018804480294231	2.963246566157693	0.8987106316923072
O	-4.022468920294231	5.229727206157692	3.223542561692307
O	-0.6544363609942311	3.6966291661576927	4.074448001692307
O	4.847990469705769	4.389898286157693	5.522565401692307
O	6.119230839705769	3.191951506157692	8.908691461692307
O	4.7226786397057685	0.6645931761576926	11.385393821692308
O	7.578760069705768	-1.7121695168423072	10.632832921692309
O	5.746826219705769	-2.8474146138423073	7.537210891692307
O	2.213082559705769	-2.6629761238423075	8.782179681692309
O	0.09591813370576896	-5.836375803842308	8.781972691692307
O	9.98458447970577	1.0537402561576925	7.162159651692307
O	9.35316387970577	1.943447196157693	3.5443280316923076
O	10.49600557970577	5.3985784661576925	2.5729322316923073
O	9.51670417970577	6.142463636157692	-2.981543238307693
O	6.074007849705769	4.574718196157693	-3.610876388307693
O	3.0178390497057688	6.6265490561576925	-4.691787408307693
O	1.0948068097057688	3.3368178361576923	-4.819736178307693
O	3.1272372897057688	2.0307049461576927	-7.754872638307693
O	2.603503309705769	3.5237783561576927	-11.219680378307693
O	9.61384397970577	3.772607886157693	-12.209299078307694
O	9.66725647970577	-1.6580040568423073	-15.801907878307691
O	11.90474207970577	-5.084092833842307	-10.527073438307692
O	12.62499157970577	-5.982772713842308	-5.254715198307693
O	10.60989657970577	1.8602817961576925	-6.935529508307693
O	6.459088119705769	5.295705036157693	-8.495208838307693
