30

O	23.00946247617056	11.180653811432729	20.223950076916886
O	22.211362777212486	12.296680930187506	19.97193126404207
O	22.758011994917247	13.556043942132863	19.660522453755064
O	24.060064004509545	13.651880700905286	19.276902122315185
O	24.659736498135995	12.485308123929158	18.917278263453223
O	24.054137048124183	11.291124710040048	19.35934146754916
O	22.70419385023921	9.88899775850805	20.856419113149034
O	22.76735922524077	10.273392128426403	22.19699894786629
O	21.967282865394957	9.326532064835863	23.022873693634335
O	20.985285471708675	8.854183628976843	22.1887942551452
O	21.220814369676482	10.409179388866145	23.69257626976272
O	22.054010847410137	10.584311400748692	24.757485777504925
O	22.043260185035326	11.987644484149254	25.23374413048083
O	20.83614341489376	12.540780997476267	24.836366225993842
O	19.71726623724177	11.683260428162757	24.626854294547176
O	19.030325779488766	11.837359104605525	23.50209217699086
O	18.831852664755708	11.046760092938506	22.265864294190834
O	19.085479110644503	11.722172296734161	20.99145305233596
O	19.261022460182126	10.809889957650785	19.826269852013006
O	18.04985078485221	9.97756597580658	19.880706371267223
O	17.08284139213636	10.255542914340063	20.996654525978776
O	17.888826350592865	9.908340828658236	22.266706635295268
O	21.061899941014172	12.894175583751174	23.490235592904217
O	21.33784355763799	11.700396067321702	22.99729505232058
O	23.330527265828785	11.363450648294403	22.870295985246216
O	24.038363873636072	12.516282197288932	22.593496711148234
O	24.121978019294836	13.797450711572044	23.354251062501707
O	25.063032654154863	12.23089881352874	21.995973000617983
O	21.799508582068146	14.484975540997832	19.35131670676916
O	26.008150715419735	12.493858504393089	18.68431281547144
