28

O	22.060341914174252	10.840639749904375	21.77422607528532
O	21.62052279773388	11.975742882693083	22.581337035838303
O	21.93590259554313	11.661665915240114	23.89474331578449
O	22.101567577790036	10.264722502470999	23.886132887078347
O	21.91907857479125	9.764326764501474	22.695854127284324
O	22.27346453719106	9.594439316883346	25.163205238695852
O	22.248786203598964	12.549081540689965	24.95745296716681
O	21.02241744103819	13.113256936754304	22.32618094320277
O	22.594570952064853	10.263079731577665	20.544734441041328
O	20.865140274409217	11.116886073380675	20.93176252739989
O	20.15808301266516	10.242948974499143	20.19908860508202
O	19.066908506134798	10.85996011831483	19.58445235814625
O	18.987399590251524	12.177658440289248	20.081240201592816
O	20.119751720532438	12.927238614962043	19.664597796252313
O	21.24045577135475	12.211214069703978	20.079777734600437
O	23.87708387686367	9.948977101933222	20.43376416709239
O	24.605443085276406	10.303308765731597	19.241243308565682
O	23.86713319668109	11.051765107565199	18.268667884541312
O	22.560523650833925	10.900713790687139	18.132364515142743
O	22.060927026879448	10.154350059589714	19.21371615023079
O	25.724960279476587	11.087510173955785	19.798053470465454
O	25.35156162454516	12.425510842777792	19.926531819838054
O	24.880660803088283	12.977045535423144	18.857891265026094
O	24.09805210159224	12.836754246170912	20.838736026476635
O	24.440686167417784	12.241837411561097	22.01926710409714
O	24.73047434525697	13.047370697050326	22.92077141386941
O	23.80010783585266	14.092837620420026	22.57960132493444
O	23.86526366140678	14.081660655488923	21.265524998364338
