87

O	-2.3018442206363634	-2.615443702672727	-0.3083655481999994
O	4.635321299363636	-3.988516012672727	-1.4110589051999993
O	5.475100349363636	-4.163869432672727	-0.5838077761999994
O	0.9407414293636368	-2.1382593026727275	0.12024404180000059
O	-5.576292760636363	-2.2175834426727272	-3.2158029581999994
O	1.0242372693636366	-1.7207512426727272	-4.9778043381999995
O	-5.018028780636364	-3.442280652672727	-2.7250711281999993
O	-1.2536207766363634	-2.6396965026727273	-2.6032247681999996
O	-0.08756148663636332	-3.8374816526727273	-6.008898738199999
O	1.394239199363637	-1.1519906656727272	-7.346564558199999
O	-4.558258470636363	-1.2441709926727273	-3.2977523281999996
O	1.3153348493636368	-5.069645362672727	-1.4639697276999992
O	-0.2690472966363633	-4.800809692672727	-0.2968805081999992
O	2.0236519493636367	-4.389767612672728	-0.4151815681999993
O	0.3616369393636366	-4.192642692672727	0.8017091218000005
O	-3.928871710636363	-3.653974732672727	-1.7161725681999993
O	-2.0538556806363633	-4.460861142672727	-3.3612727381999994
O	-2.6239394706363632	-3.512931552672727	-4.1493073582
O	0.25285654936363666	-3.775378632672727	-4.645979838199999
O	-0.3090745916363633	-2.582967202672727	-6.6883545182
O	0.12158742636363673	-4.6030884226727276	-1.6554140561999993
O	-3.382859410636363	-1.6011329326727273	-2.653076178199999
O	1.4512403093636368	-3.454167572672727	0.44864520180000067
O	-3.810918440636363	-2.1992330526727275	-1.4124128485999994
O	-1.0074833146363633	-3.9734530426727273	-2.5568250681999993
O	-2.285646320636363	-2.3109861926727273	-3.4550332681999993
O	0.13228261436363675	-2.393181012672727	-4.2532065781999995
O	0.5531626393636367	-1.5168972726727272	-6.208744468199999
O	3.7861149693636365	-2.943837402672727	-1.9790159901999993
O	-0.06757059163636325	-1.9741114026727271	-2.8555731481999995
O	2.2372998193636366	-2.7855406926727273	-2.0760117781999994
O	1.5744779793636368	-1.761730052672727	-1.0507988701999993
O	7.530376499363636	-4.994546842672727	4.9974755018
O	7.060877739363637	-1.3422228506727272	4.115760871800001
O	7.387117699363636	2.142160707327273	5.7767872118
O	4.315192569363637	3.5441214373272727	7.500208051800001
O	-0.5282293816363632	2.795715217327273	10.9586557718
O	-0.6532045646363633	3.295696517327273	7.217897841800001
O	1.7754501593636367	2.207414187327273	4.644667181800001
O	3.165235789363637	5.0308655973272725	2.558063701800001
O	2.8777272293636367	4.130045167327273	-1.0333354371999994
O	3.824545909363637	6.110713577327273	-3.9750085881999992
O	3.170957859363637	3.591275017327273	-6.3688205481999995
O	-0.7102098046363633	3.2370449373272727	-6.000069958199999
O	-3.7171702906363633	5.297085497327273	-5.695768288199999
O	-6.043786950636363	3.570895567327273	-3.2177987581999994
O	-6.448571520636364	4.786733707327273	0.43076038180000076
O	-7.531112030636364	1.5709704673272729	2.0394611218000005
O	-7.684234560636364	0.6226226573272728	5.771819301800001
O	-8.544361770636364	-5.077317102672727	-6.0156824682
O	-6.9372136106363635	-8.422832732672727	-7.0902985682
O	-6.290536600636363	-9.472787862672726	-2.983682248199999
O	-8.401327380636364	-7.174661762672727	-0.7293239151999993
O	-12.199759470636362	-6.375750032672727	-0.9583948191999994
O	-11.511134370636363	5.424080077327273	2.164332451800001
O	-11.920195770636363	1.9022612373272727	1.1372049218000009
O	-8.270106720636363	-9.884660902672728	2.3224344118000007
O	-5.893091410636363	-12.630664362672727	1.0760061418000006
O	-2.0818150506363633	-12.281372062672727	1.4641452418000007
O	-2.5744381906363634	-8.594212422672728	2.0259473018000005
O	-1.7068548736363631	-7.8114370126727275	5.5737570418
O	1.9141177993636367	-8.742662052672728	6.4877276418
O	2.3749043293636367	-10.366070832672728	9.903696271800001
O	4.538236079363636	-5.109127912672728	9.5602153718
O	2.626897229363637	-3.137558012672727	12.2053494718
O	0.5642027293636368	-1.4127588626727272	9.452744971800001
O	-3.2282026706363633	-1.623238442672727	9.065283971800001
O	-3.7807121306363634	0.19946934332727279	5.812314031800001
O	-2.179461320636363	1.6401623573272728	2.6947188418000003
O	-1.952719140636363	5.175854187327273	1.4652139518000005
O	-1.8138238656363632	5.409613677327273	-2.2958727691999994
O	-0.11326733463636329	8.628118117327272	-3.1766396881999994
O	-0.11093343463636329	8.287435787327272	-6.956320948199999
O	-2.6569344106363633	9.707861837327274	-9.425355458199999
O	-4.5519053006363634	4.316491417327272	-11.7027501282
O	-7.093866370636364	4.245611537327273	-8.860787858199998
O	-0.4970563006363633	8.094814857327274	-13.3399107282
O	2.4012514693636366	6.492132837327273	-11.520082628199999
O	7.544079699363636	3.098747667327273	-5.762743148199999
O	7.865956879363636	3.0491751273272727	-1.9631282681999993
O	5.484739939363636	0.2182784703272727	-1.8424477451999994
O	8.069306049363638	-2.1536120426727274	-3.5797134081999995
O	10.886093629363637	-3.602743812672727	-1.6764174011999993
O	13.499373629363637	-4.178544312672727	-4.414841488199999
O	11.601018529363637	0.41960418332727273	-4.717947618199999
O	12.355208029363638	1.0444821673272728	-1.0888583241999994
O	14.793369129363636	5.101227087327273	-2.0306477731999992
