79

O	-3.218194059823729	0.17973790437118622	5.727326857966102
O	-2.456274319823729	-1.0680841856288137	5.993429097966102
O	-1.500156192823729	-1.6304347356288138	5.200245047966102
O	-1.6381501058237289	-1.3195183256288137	3.7734002879661017
O	-1.8028146218237289	0.17990939637118622	4.003217277966102
O	-3.200162049823729	0.17176018137118623	4.2594960779661015
O	-1.283696334823729	-3.015154925628814	5.2121285879661015
O	0.0093457601762712	-3.122807015628814	4.444682257966102
O	1.0062549601762711	-2.928732585628814	5.359365697966102
O	2.320991530176271	-2.676674095628814	5.093951077966102
O	2.634550410176271	-2.105454105628814	3.894568967966102
O	1.6507536101762712	-2.441823575628814	2.9835443179661016
O	0.2753967701762712	-2.473526385628814	3.304568207966102
O	-0.9574804008237289	0.7300762523711862	5.049403747966101
O	-1.332385488823729	1.3420136943711862	6.305020857966102
O	-0.007445769823728909	-0.07478195262881376	5.329219357966102
O	-0.711797621823729	0.9913758983711862	7.590570557966102
O	0.742536480176271	0.6563155253711862	7.444574727966102
O	1.157455160176271	-0.6075749676288138	8.661993857966102
O	3.918929330176271	-2.2177284156288137	3.441334727966102
O	5.835300970176272	-4.989373575628814	-9.706385562033898
O	6.6044248701762704	-5.148914675628814	-6.0018831820338985
O	8.58218715017627	-3.287589535628814	-3.331563352033898
O	8.051117880176271	-0.7949776756288138	-0.4819202720338982
O	7.51728583017627	-3.344314855628814	2.3002234279661016
O	4.758491400176272	-5.343700915628814	0.6331732749661019
O	3.575238790176271	-2.875530045628814	-2.019354402033898
O	3.443395690176271	-2.1375503256288138	-5.671041332033898
O	0.7630489901762711	-3.8081168356288138	-7.758013212033898
O	-2.6400555998237287	-8.576313155628814	-9.171892362033898
O	-3.848420139823729	-5.473853435628813	-7.384004952033898
O	-2.1527085748237287	-3.2580928956288138	-4.782166312033898
O	-1.9063697248237288	0.3693853344711862	-5.940882072033898
O	-3.095919979823729	2.2871258443711864	-2.8469541720338984
O	-3.422589279823729	6.108089704371187	-2.8936601020338983
O	-4.396619419823729	5.927614284371186	0.8241881709661019
O	-7.888244019823729	4.449847364371187	0.19881220796610188
O	-10.84387311982373	4.5430959743711865	-2.068967902033898
O	-12.199237109823729	1.0079047053711863	-2.489997802033898
O	-11.51494920982373	-1.4791528756288137	-5.250064482033898
O	-11.572866609823729	-4.745449345628813	-3.277516152033898
O	-9.624614739823729	-5.986947995628814	8.5345532379661
O	-11.54383780982373	-7.268497775628814	5.5228301479661015
O	-7.767941159823728	-10.833202545628815	9.077021447966102
O	-4.1190983298237285	-9.867911945628814	8.579339097966102
O	-5.090465489823728	-8.317204325628815	5.185803657966102
O	-3.249508089823729	-10.361057245628814	2.677768177966102
O	0.531897660176271	-10.319522845628814	2.982748157966102
O	4.3537089001762705	-13.502137745628815	-0.689138102033898
O	3.2102960101762714	-10.018963745628815	-1.793427612033898
O	1.8319932201762712	-11.680928045628814	-4.947633242033898
O	-1.2275762902237288	-9.350058655628814	-4.878861722033898
O	-6.673689679823729	-7.160639115628814	-4.083654612033898
O	-6.363061239823729	-3.441285315628814	-3.509043112033898
O	-7.046371529823729	-0.48386862362881383	-5.816055982033898
O	-8.025354319823728	2.535988524371186	-3.7488654620338977
O	-8.21456178982373	8.318370384371185	-3.3473600320338983
O	7.54797338017627	3.520579514371186	-7.764229452033899
O	-7.028372659823729	11.446863354371185	1.073128002966102
O	-4.4541409698237295	13.071433854371186	-1.2235603120338983
O	0.6466836801762712	10.868959754371186	0.020631947966101905
O	0.035027730176271143	7.110305324371186	0.5890251779661019
O	1.5177480601762712	4.399314204371186	-1.6924707720338983
O	-0.13029281982372898	1.8970488943711863	0.5730119969661018
O	2.1393742701762712	2.795857694371186	3.531190027966102
O	5.788159450176272	1.6901313543711862	3.460861307966102
O	7.451510970176271	4.356299614371187	5.616030167966102
O	7.705440600176271	8.096922434371185	5.812141697966102
O	12.38051729017627	0.9328250333711863	12.823401837966102
O	12.03189859017627	3.547828114371186	7.194132967966102
O	8.47248762017627	6.130240564371187	11.950586337966103
O	2.458747690176271	8.786238694371185	13.481747337966102
O	-2.6122072398237286	10.278400034371186	12.401692337966102
O	2.297383590176271	9.928703914371185	5.679979617966102
O	4.732266800176271	6.417693834371186	2.0076849789661018
O	6.361245700176271	4.256150924371187	-0.609252882033898
O	9.95476849017627	4.8632911143711866	0.46151870296610187
O	7.583495180176271	8.025289854371186	-3.3676787120338982
O	10.48983049017627	5.8873558743711865	-4.645725822033898
