45

O	28.295990329006536	14.81751769834519	22.014455897586043
O	29.541656248723985	14.861819242235324	21.207400168726828
O	24.40868655153152	16.140517400671293	23.852516573216107
O	28.344168544778267	15.90658272869915	23.006618211337273
O	26.23589691854357	16.486877427365727	22.48003681898885
O	28.321103818444705	15.514713900928312	24.45091762709411
O	23.566101407710374	13.268739133822338	22.25166930114132
O	21.954690158431045	8.438093619028631	22.6959471629722
O	23.304639159276476	12.798058088353613	25.914017263659254
O	26.97905827385723	16.080953417255824	24.907464533078638
O	25.81844199794466	15.771343092427577	23.68078215220762
O	25.87661710612823	14.092979801378426	23.198670882973403
O	25.0126444966279	13.197486876714	23.909743370531135
O	24.249923243148586	12.475633196034405	22.88042718398736
O	23.38417780251464	11.476377358929682	23.26062997286698
O	22.775021649557186	10.674260339422009	22.232546294827582
O	23.91914757827861	10.26289462234824	21.39699136127703
O	24.859820362316288	11.334356573958932	20.929815580492075
O	24.463541598460186	12.21072199191795	19.924081790422456
O	25.105657995808514	13.456425353960354	19.768496024235844
O	26.43167241116347	13.470874033241305	19.915589089702774
O	27.05668524357382	12.31714567202654	20.359115504634488
O	26.249727748504185	11.385579116580026	20.980482257239586
O	22.274927847533558	9.627828216999827	23.234861535195414
O	21.140916476207924	10.297220433300126	23.887277323082085
O	20.81982657004744	9.913964296322625	25.20763577558804
O	19.7493810565117	10.816720644776591	25.621976676027966
O	20.246994149483818	12.189675097995496	25.264420158058243
O	20.686635932981304	12.536866977259766	24.016786380658182
O	21.05565752994307	13.767304844245439	23.598119023773073
O	20.93924793144785	14.265146341379488	22.166975978110713
O	21.294298118608342	14.726932788854544	24.501748616851916
O	20.58637298229613	14.527300332952578	25.700246756381375
O	20.32236859234834	13.23683388011375	26.170956971192723
O	21.79602204379883	15.568464314625409	22.179106966290313
O	24.187751790437378	14.078874723431483	24.541770950628248
O	23.873563585543728	13.87271232933659	25.82686780668672
O	23.707954400089303	14.889453362704355	26.842662587218015
O	24.39487756841387	15.022059397688665	29.092358816925014
O	23.61953772691206	14.405910134395235	28.152242630968487
O	25.623155406905482	15.528998888514254	28.685120390019428
O	25.336714118249773	16.503891119644166	27.7132031704315
O	24.25812049074661	16.1826660322013	26.859035377912114
O	24.44471238836451	14.648381395865368	19.705677223563633
O	28.33546361072293	12.230328620352703	19.958359230531514
