106

O	0.5582032193965506	-5.42844566386207	4.589248246034483
O	3.4191119493965503	-3.70551428386207	4.805651246034483
O	3.3491355193965506	-4.760400533862071	2.721710746034483
O	-2.3399043606034495	-0.96146849386207	5.347388126034483
O	1.4579195893965506	-4.7214538238620705	3.885773486034483
O	0.31653524539655054	-0.4281612908620701	2.7473326060344827
O	1.5461198993965506	-1.21385163386207	4.112680986034483
O	1.0779377993965507	-3.55347222386207	3.3210114360344827
O	-2.9659391906034496	0.5093898071379299	1.3697213940344826
O	-0.8489108866034495	2.68711277613793	1.8117008660344827
O	-0.10410936460344944	-2.86174414386207	3.4774224260344826
O	-2.1355779706034497	-0.4627310548620701	3.8465914960344825
O	-0.9832514136034495	-3.7570369238620698	3.9908548960344827
O	3.8729218493965507	-2.23703693386207	2.4102197760344826
O	-0.6969608803034495	-4.850916393862071	4.798237636034482
O	-3.48302551060345	-0.3212329828620701	5.9785456160344825
O	2.9359800893965504	-4.70670194386207	3.9204082460344827
O	-2.6879109506034498	-2.29410652386207	5.814133156034483
O	4.730857049396551	-3.23067638386207	4.537145156034483
O	2.8296976393965503	-2.61710623386207	5.606117106034482
O	3.8327169893965505	-2.24227031386207	6.632150306034482
O	5.073422579396551	-2.49190672386207	5.728017966034482
O	4.833767299396551	-2.83248532386207	3.154941716034483
O	-1.2632615366034494	-5.14125658386207	6.129382396034483
O	0.5029789193965505	-1.55663156386207	3.4630362660344827
O	0.23004764539655054	0.9594284601379299	2.8572389560344824
O	-0.7750253126034494	1.27903046613793	1.7219458150344826
O	1.4661614293965504	1.68948707613793	2.4827609760344824
O	2.4452860093965505	1.26823575613793	3.5398219560344826
O	3.7116127293965504	0.8538178101379299	3.2395405560344828
O	4.661703199396551	0.4000995091379299	4.110522506034483
O	4.392847009396551	0.7204333191379299	5.410316096034483
O	3.1175750393965505	0.9309193471379299	5.826810776034483
O	2.2953339393965506	1.58581318613793	4.894128476034483
O	-2.0033468606034495	1.00095996513793	3.773114876034483
O	-3.4891120406034495	-0.6847115698620702	3.294075986034483
O	-3.3194894406034496	-0.8086417528620701	1.8210401700344827
O	-2.0680114206034497	0.9464486271379299	2.3132483960344827
O	0.4788477693965506	-3.11171667386207	8.077796546034483
O	4.573835799396551	-1.72906931386207	1.3335614380344827
O	-0.8908857206034495	0.62149809213793	6.803432646034482
O	-0.5609140256034495	0.3274251091379299	8.143164276034483
O	-0.5922361827034495	-1.01908600386207	8.621092106034483
O	0.41510300939655054	-1.57446483386207	7.719613326034482
O	-0.13081649460344946	-1.43721266386207	6.481791926034482
O	-0.7546712346034494	-0.3855305778620701	5.927298426034483
O	5.949847099396551	0.4320648091379299	3.709044066034483
O	2.8254631293965504	0.7546385181379299	7.119688446034482
O	8.48366995939655	-6.95956430386207	0.3788815320344827
O	9.688660089396551	-3.36868720386207	0.6567010830344826
O	7.458847149396551	-1.64082202386207	-1.8083768339655175
O	8.068251679396552	-0.2412034008620701	-5.409980663965518
O	9.017916849396551	3.39285051613793	-5.878332093965517
O	8.477861219396551	7.7776614361379295	-3.6973260339655174
O	6.4513024093965505	4.58377656613793	-2.7920595739655174
O	3.8131679493965502	3.96871423613793	-5.480436313965518
O	0.7361168193965505	3.15873406613793	-3.3712139939655175
O	-2.6336672006034494	2.47631002613793	-4.974200273965517
O	-3.9961945206034497	1.69097447613793	-1.5793304239655175
O	-3.8300088306034494	5.15608800613793	0.08689816603448275
O	-4.595748880603449	8.748234986137929	-1.0169362839655172
O	-1.9732121006034493	11.02325304613793	0.5117622990344827
O	1.2471347793965504	12.32802314613793	-0.9688997939655173
O	3.522534749396551	12.349936846137929	2.0665580880344825
O	-2.1154330806034496	8.71184256613793	9.971106926034484
O	-1.9810416906034494	5.844051956137929	12.364012876034483
O	2.1724639293965504	5.85881501613793	11.984189276034483
O	3.2014648093965503	9.068788026137929	10.486057936034483
O	7.880277899396551	2.41760189613793	11.920112676034483
O	6.968126459396551	4.14424896613793	8.614474656034483
O	10.208384089396551	4.1965102561379295	6.793066126034482
O	11.64939158939655	0.7671715371379298	5.971623396034483
O	13.648185589396551	0.3370150491379299	1.0151542820344828
O	12.157998489396551	5.358015026137929	-0.6208409539655173
O	7.893774499396551	9.270025316137929	0.6894385170344827
O	4.610012199396551	7.74388765613793	-0.4350295839655174
O	2.3976480793965504	8.59847719613793	-3.4430337839655176
O	-1.2084852256034495	7.69411243613793	-2.5750945539655175
O	-6.386002210603449	6.20067749613793	-4.599482833965517
O	-9.99501602060345	7.95440540613793	1.8345138900344828
O	-14.17149701060345	5.3591567861379295	-6.1034628439655165
O	-12.403636410603449	5.2930289361379295	-2.7392688439655175
O	-9.915163680603449	2.41703013613793	-2.8366981639655173
O	-9.54691487060345	0.8231947921379299	-6.292209733965517
O	-9.042264660603449	-3.8886711838620696	-3.736008053965517
O	-5.881181060603449	-3.57345885386207	-5.732658093965517
O	-3.1271335906034494	-2.33107908386207	-3.4941145239655174
O	0.4785570893965506	-1.8822572338620698	-4.627254493965518
O	1.3442700593965506	-0.8540432428620701	-1.0769569239655175
O	0.5921275693965505	-4.335139263862071	0.16515618203448268
O	3.0390650593965503	-7.193573963862071	-0.32168993396551726
O	0.7552161193965506	-10.21292105386207	-0.10238894396551723
O	-2.3809764506034496	-11.48457325386207	-1.6991231839655172
O	-4.6321823706034495	-11.13666555386207	1.3053121860344827
O	-0.8159831606034494	-15.289409353862071	0.8059077910344827
O	-2.2313221106034495	-14.28817835386207	4.166609396034483
O	-5.478106760603449	-13.72182875386207	5.989396586034482
O	-7.576724100603449	-10.62246985386207	5.912646536034483
O	-10.18648698060345	-9.13972287386207	8.259430636034482
O	-10.70414551060345	-6.271660813862071	5.7673684560344824
O	-6.199075140603449	-7.30139101386207	-1.1328316739655175
O	-4.4254828606034495	-7.862968073862071	-4.375569803965517
O	-1.0303147626034495	-6.76786312386207	-3.146086963965517
O	2.2792059993965506	-6.5045289938620705	-4.961961993965517
O	-0.21506341860344946	-10.52442295386207	-7.406604703965517
O	0.4368314893965505	-7.31551002386207	-9.280916623965517
