114

O	-0.4479938779119407	7.2874216002089565	3.849264941761194
O	0.9603398360880593	0.4707212002089567	3.972720161761194
O	-1.1514959919119407	-1.994580189791043	2.5456631117611943
O	-1.9828271739119407	-1.3014115297910434	4.534585301761194
O	-3.6475039239119407	0.7825119302089567	2.0798651817611944
O	3.7649429960880596	6.5720296502089575	2.593560431761194
O	4.950632076088059	5.807728050208957	2.1265212617611944
O	5.008603396088059	4.479170700208957	1.8115263417611942
O	3.6822222760880594	4.032229370208957	1.6484628147611942
O	2.6275667560880596	4.937775400208957	2.156473201761194
O	3.0970015560880597	5.643138760208957	3.239280421761194
O	3.4661454160880596	5.144451440208957	4.573354791761194
O	4.341330436088059	4.331947560208957	5.3505136717611945
O	0.46077026908805935	8.419147590208956	4.686078831761194
O	1.6328632560880594	4.527611880208957	4.711616481761194
O	2.6513282560880596	3.8713808902089566	4.316800971761194
O	1.6266030360880592	4.4825219002089565	6.022499821761194
O	0.3457608110880593	1.4286236232089569	4.772731461761194
O	-1.2121326229119407	6.050207850208957	4.827117621761194
O	0.5520432270880593	1.3793996012089567	5.988642691761194
O	0.7398758160880592	4.008131920208957	3.595854181761194
O	0.5097675490880593	6.876298670208957	2.783924601761194
O	-0.40827599281194066	4.7003485602089565	3.5159908817611942
O	-1.3815368639119407	7.439721410208957	2.7400303717611942
O	-1.3953368639119408	4.655562590208957	4.425853871761194
O	-0.9878801309119407	3.529208870208957	5.170663841761194
O	-0.6353357199119407	2.418468174208957	4.395054761761195
O	0.3819822920880593	2.7545561422089566	3.5749508517611943
O	-1.1083973809119407	6.070639230208957	6.308460721761194
O	-1.3087608109119406	-0.2048206697910433	3.9514532717611943
O	0.8021748260880592	-0.9220376597910431	3.895975991761194
O	2.0883398860880593	-1.3979977997910433	3.202240801761194
O	3.1727920160880596	-0.3867027797910434	3.415385061761194
O	4.286776606088059	-0.004948099791043159	2.742918981761194
O	4.561801076088059	1.3783353132089569	2.778298831761194
O	4.44938797608806	1.9566241382089569	3.970194641761194
O	3.69727959608806	1.3824493662089568	4.9404088717611945
O	3.0888937560880594	0.23037299020895663	4.627941421761195
O	-0.44042908491194066	-1.179188739791043	3.274724771761194
O	-2.0559048139119405	-0.42077392979104333	5.6402726917611945
O	-3.1971663339119405	0.4840474502089569	5.440844601761194
O	-3.9082740239119405	0.10150127020895683	4.308025321761194
O	-3.9544574439119407	1.1923000902089569	3.3705745117611943
O	-3.3644306239119404	2.3845899849089567	3.601388401761194
O	-3.8946817939119405	2.679078612208957	4.924994381761194
O	-3.5776982239119404	1.7480087922089567	5.908279361761194
O	-2.3897392739119403	0.8380523302089569	1.5895470827611942
O	11.857201876088059	-2.450556109791043	-7.245075568238806
O	11.20565967608806	0.19378125020895665	-4.623751678238806
O	9.559997586088059	3.6504009002089566	-4.200267178238806
O	6.217030856088059	5.142164120208957	-2.9535410682388057
O	7.809234306088059	5.992920610208957	0.3357833697611941
O	9.316457706088059	2.422864021208957	1.140796225761194
O	6.92440969608806	0.39211107020895675	-1.0028534582388058
O	7.28934501608806	-1.5760921197910434	-4.1215309682388055
O	8.32995725608806	-5.268680199791044	-4.101479918238806
O	7.84252784608806	-9.247568909791044	-1.270938398238806
O	5.886243186088059	-5.904631229791043	-0.7374160282388058
O	3.1295698160880594	-5.611541909791043	-3.3254574282388063
O	0.20785414708805933	-4.393634649791043	-1.2946950482388058
O	-3.2561299939119404	-4.169934419791042	-3.042161348238806
O	-4.6617671139119405	-3.0051241397910435	0.11429221076119411
O	-4.556186843911941	-6.316381199791042	2.039287801761194
O	-5.160942833911941	-10.006971109791042	1.457024275761194
O	-2.5079443939119406	-12.012414209791043	3.286784821761194
O	0.7126909160880592	-13.445135409791042	1.9597145217611942
O	2.9744655160880593	-13.071036309791042	4.997651281761194
O	-2.8840889039119406	-8.682817109791042	12.463895161761194
O	-2.9027769539119403	-5.3489475997910425	14.365778061761194
O	1.2842924360880592	-5.309178649791043	14.112314161761194
O	2.5063184360880597	-8.727792809791042	13.046975961761195
O	6.939671956088059	-1.674084329791043	13.565839461761193
O	6.29758368608806	-4.201124129791044	10.677386691761194
O	11.082432176088059	-1.1333509397910433	7.3034044017611945
O	13.165351276088058	-1.3414190797910432	2.181845881761194
O	11.646107476088059	-6.598819139791043	1.302859036761194
O	7.31292063608806	-10.204961609791043	3.257293661761194
O	4.02717728608806	-8.809484209791043	1.9689956517611942
O	1.7873344060880594	-10.006941409791043	-0.8968209382388059
O	-1.7679310839119406	-8.937372909791042	-0.06081934223880592
O	-6.97285266391194	-7.910652909791043	-2.356171058238806
O	-9.919398443911941	-10.298617609791043	-1.761671408238806
O	4.582251156088059	1.4196651342089568	-10.138240438238807
O	-14.789091623911942	-7.539254699791043	-4.020273778238806
O	-13.044441123911941	-6.940874029791043	-0.669389978238806
O	-10.621116623911941	-4.030624259791043	-1.0870573282388059
O	-10.218779853911942	-2.9777028197910433	-4.713797368238806
O	-9.951146483911941	2.048859718208957	-3.142666478238806
O	-6.686462253911941	1.4670255132089567	-4.972866418238806
O	-3.8321265439119405	0.7591004702089568	-2.626333048238806
O	-0.30681313071194066	0.15328947020895667	-3.296782658238806
O	0.6792279660880594	-0.04495239979104326	0.2735289657611941
O	-0.28715496101194066	3.3986122702089565	0.5448721867611941
O	1.8093975860880593	6.1219726302089565	-0.44330558823880595
O	-0.3736719639119407	9.103092830208956	-0.500292568238806
O	-3.4321121039119404	10.080999460208957	-2.434331558238806
O	-5.787087693911941	10.305111430208957	0.5300442587611941
O	2.4404336760880594	16.620546190208955	4.395895931761194
O	1.7521848460880591	13.612899290208958	-1.076779648238806
O	-1.8910130939119407	14.255140590208958	-0.5370538082388059
O	-3.3937687739119404	13.880862690208957	2.901625141761194
O	-6.67315679391194	13.645746990208957	4.7407110617611945
O	-8.594455693911941	10.469687870208958	5.390948121761194
O	-11.25978372391194	9.403675600208956	7.956691231761194
O	-11.64770772391194	6.026615390208956	6.073185291761194
O	-7.24287830391194	6.063063780208957	-1.236410148238806
O	-5.392889793911941	5.957830810208957	-4.4052478582388055
O	-1.9805539839119408	5.165900100208956	-2.981734098238806
O	1.3303244060880592	4.634829710208956	-4.775570728238806
O	1.8963036560880593	8.256479080208956	-5.831391218238806
O	-1.2796308979119406	8.124081850208956	-7.865487468238806
O	-0.5081715949119406	4.643324950208957	-9.080261538238807
O	2.8576694260880595	5.949368040208957	-10.380336338238806
O	1.1244060760880592	7.836650750208957	-13.175163938238805
