30

O	17.564189507387248	9.42888794693829	21.384189410747293
O	16.181741691049286	8.831589456269633	19.67528493506893
O	16.995003188739656	7.257328887395533	18.21045806499484
O	16.501699837908518	8.73146174517007	20.984058239494004
O	18.307828864030842	9.084232253874745	19.25719362901975
O	21.873080468918968	13.783621380287284	22.47755205884969
O	18.47209533717791	9.693288928218154	20.458235795703626
O	19.565984736345044	10.4399833625627	20.940023126238877
O	17.216736246965162	8.477118795254174	18.791410974777627
O	21.697827499420942	9.76928055739078	22.26490244172299
O	16.90903415530342	6.638941091028848	17.02807653518407
O	20.840345968080737	9.80132571801826	24.529396298686322
O	20.717496220920456	10.029463067919458	20.229531402479857
O	21.672105502830533	11.769272148299148	23.517357678505316
O	21.80329178401638	10.61173196480033	21.046971038379066
O	21.440273618764923	10.374632516544173	23.35764323668591
O	22.180457282482053	12.401945722310408	24.675260132699318
O	22.0385814336566	12.500396693518901	22.38161072556259
O	21.21318760128616	11.98737773561709	21.230484743489978
O	19.774350628730478	11.71974116534076	21.53378669162488
O	23.20841616925526	10.65019682294886	20.49230911160721
O	23.742341773366924	9.81572171432107	19.536357588380962
O	25.04584698676301	9.724370790901277	19.058266770663213
O	25.854270938809236	10.788037220845968	19.31486922200647
O	25.015140709555798	11.893970972730997	19.245246583418286
O	23.819408659692627	11.82061004833927	20.0056348105149
O	15.306110389111076	8.792018454144344	21.90052279706689
O	14.921874122345757	8.38296139166081	19.3537503666045
O	26.873098511891413	10.809792783106365	18.37162207475649
O	23.26991411608248	12.997690994823218	20.02089893423886
