101

O	-1.8575557052190477	-2.674557602019048	1.7522919074174603
O	-0.9381457662190477	-2.991114672019048	2.9213576674174604
O	-0.8279009402190477	-2.483772872019048	5.2911917874174605
O	-0.9904922412190477	-1.9511839520190477	4.00728967741746
O	-2.0899010352190475	-1.2779583020190477	3.9024293674174606
O	-2.0452099652190476	-4.014405312019048	3.0505078274174604
O	0.33720267378095237	-3.6765706820190482	2.70687873741746
O	1.6805114847809524	-3.2475361120190476	2.32798357741746
O	2.3431269947809525	-3.444103162019048	1.1195104404174603
O	4.330645704780952	-2.3299741920190478	1.5324541214174605
O	3.7908244447809523	-2.368343202019048	2.77888780741746
O	3.483037484780952	-2.8071031420190478	0.6076116288174604
O	2.4534476347809524	-2.417338182019048	3.0575771374174607
O	1.1882050747809525	1.6345540549809523	5.2919720474174605
O	1.4371253747809525	0.3538004489809522	4.886791297417461
O	0.21634206978095236	-0.11231955201904786	4.646102837417461
O	-0.6006167292190477	-0.23165031201904784	5.83883654741746
O	-0.5788887962190477	0.9582787111809522	6.6121997974174604
O	0.04067027078095236	2.0402806579809525	5.971317837417461
O	0.4403276877809524	3.212133837980952	6.6944388574174605
O	2.8266708947809525	-0.005748512019047691	4.857025707417461
O	3.5194024847809526	0.8987576269809523	4.130097847417461
O	3.4314139047809524	-0.7891112520190477	5.5960938374174605
O	2.6373088147809525	5.124342417980952	6.638781607417461
O	0.5071132127809523	4.949045647980952	4.784231827417461
O	2.3088082747809526	3.5367988079809525	4.910547437417461
O	0.8736229237809523	2.7887818179809525	8.04939059741746
O	4.734477094780952	0.6791396359809523	3.44849919741746
O	4.169108174780952	1.0630398337809523	2.1638371574174604
O	5.019961264780952	1.1187871339809523	1.1335898924174606
O	3.6868620747809526	0.5629772139809522	-0.6725484825825396
O	2.7526307547809523	0.31756919098095227	0.22817885641746039
O	4.897549494780952	0.5626710829809523	-0.12566368258253957
O	2.9638505047809525	0.6017238819809523	1.5891523274174604
O	5.382162404780952	-0.46579058201904777	4.05696970741746
O	-1.1397699352190476	-1.573290732019048	6.353037867417461
O	3.5415897847809523	0.41852489798095227	-1.9988029425825398
O	1.3743110647809524	4.3565954279809525	5.779076957417461
O	7.834514044780952	-4.180285632019048	-7.464841482582539
O	8.407854234780952	-0.8047173520190478	-5.879957112582539
O	6.812447704780952	1.6996058929809523	-3.6011166125825396
O	8.600260704780952	0.35396098698095224	-0.4375462825825396
O	7.588018784780952	-3.359495742019048	-0.6961014525825395
O	4.608598624780952	-3.089282112019048	-3.00997358258254
O	3.5758013047809523	-3.767133782019048	-6.530431812582539
O	2.4565932147809524	-7.209168612019048	-7.52349198258254
O	0.16289914178095236	-11.159097782019048	-5.739239382582539
O	0.27255854178095235	-7.7253853920190485	-4.051436862582539
O	-2.082403055219048	-5.247703312019048	-5.76422417258254
O	-3.9506094352190475	-3.5942091520190482	-2.9610958925825397
O	-6.649896555219048	-1.0344818320190476	-3.20126804258254
O	-6.637605025219048	-0.6333880220190478	0.6296626028174603
O	-7.983747835219048	-4.071250262019048	1.5065694184174605
O	-10.780529285219048	-6.428207002019048	0.2557341654174604
O	-9.613163545219049	-10.021042682019047	0.5116107517174604
O	-7.847363785219048	-12.244121682019047	-1.9616998225825395
O	-5.430673365219048	-14.087979982019046	0.37379744741746035
O	-1.6042871452190475	-10.105213782019048	11.16877467741746
O	-2.6176726852190475	-13.161323382019047	9.111292097417461
O	4.940332054780952	-9.647034882019048	10.089044967417461
O	2.7206899247809524	-10.448622982019048	7.041544797417461
O	5.155845354780952	-11.555522182019047	4.34606979741746
O	7.998666834780952	-9.146829882019047	3.46027844741746
O	9.157526864780952	-8.531093882019047	-1.8613670125825397
O	5.003429544780952	-11.653273782019047	-3.54638625258254
O	-0.3738080622190476	-13.196851182019047	-1.5846408525825397
O	-2.570734575219048	-10.122463682019047	-1.7034129825825397
O	-5.337500065219048	-8.962527362019047	-4.01837832258254
O	-7.7257722852190485	-6.713809892019048	-2.0990318725825396
O	-11.621521885219048	-2.493867582019048	-2.22992472258254
O	-12.124618185219049	1.7935571109809523	1.2217750234174605
O	-11.756733185219048	3.8715212879809524	-1.9627897325825396
O	-8.395801145219048	6.939720457980952	0.7782399334174603
O	-6.393239755219048	5.785964287980952	-2.2810382025825398
O	-4.288219505219048	2.8548382379809523	-1.1411474825825396
O	-1.7615466352190476	1.0944198681809523	-3.439180852582539
O	-0.9855014772190477	-0.9152326620190478	-0.4172272585825396
O	0.30342013278095237	2.125125097980952	1.5988936274174603
O	3.7988111947809524	3.6491811379809524	0.5004255014174603
O	3.7032107947809525	6.937502877980952	1.7670992174174605
O	1.4562641647809524	9.894536877980952	1.2459339814174604
O	-0.027464353419047644	9.931588937980953	4.78485871741746
O	10.662648114780952	9.702260567980954	7.421009047417461
O	7.513358184780952	12.238588717980953	-2.4166985025825394
O	10.977095614780952	11.594949517980952	2.89189535741746
O	7.820673594780952	9.671187407980954	1.8583680074174604
O	5.205383074780952	11.766527117980953	3.6118661874174602
O	4.172711464780952	10.787542137980953	7.1123405274174605
O	1.5547587147809525	11.326355217980954	9.765688267417461
O	-1.6160100752190476	9.357011497980952	10.116161037417461
O	-3.9537217552190476	8.646562187980953	13.01559677741746
O	-6.2858933752190485	6.935805217980952	10.544479117417461
O	-3.759272555219048	7.942689217980952	2.56059010741746
O	-2.6763363952190478	8.379106547980953	-1.0286676925825395
O	-0.17376569521904764	5.650974457980952	-1.1357642425825396
O	2.0905712747809524	4.240051077980953	-3.8054978225825398
O	4.474504424780952	7.176987987980952	-3.9578272625825397
O	1.5688955647809524	9.418750057980953	-4.927292992582539
O	0.11256577878095235	6.817035817980952	-7.25698911258254
O	3.4747505147809523	6.654322097980952	-9.077858212582539
O	2.8397531947809522	10.072387537980953	-10.57605372258254
