27

O	25.264311799713862	11.20928420446808	18.6246631841984
O	25.63942786160921	11.027842141823388	19.904507400669743
O	24.723737630560834	10.249400549250764	20.652803779352407
O	23.455200562776547	10.087610708322885	20.356825840189238
O	23.413237104869793	9.929450919023786	19.02380411155077
O	24.547794564210395	10.083777620145588	18.166849206663713
O	26.43036020148996	11.922472440725219	20.8505419003957
O	22.296115504407073	9.77210547520091	18.392977624758988
O	21.3160027750017	10.481727222309946	19.202073736620296
O	21.729720573364602	11.294055901307555	20.341447751107285
O	22.287265211719422	10.348558047173096	21.283597099511383
O	22.28727547029463	11.611963359767678	21.96789505079606
O	22.413487535968166	11.441165628681459	23.383168659312403
O	22.032410849943343	10.097481476767586	23.458937460044297
O	22.20222483597051	9.518187794422374	22.35356460493882
O	21.933163912608563	9.582154270064633	24.816601742827267
O	21.026207722049598	12.375065780369436	20.630875400730364
O	20.076982955858767	11.980505051099012	21.542804285244888
O	19.68098614198466	10.663345119496803	21.095722123893697
O	20.020381649902056	10.3023033090946	19.591717155574106
O	21.06083025391813	11.66281369230757	18.19705883498811
O	26.6087587993029	11.275204330871558	22.102546508733756
O	26.106936942990234	11.883292511460859	23.23931364524205
O	26.318920054403172	13.228175487232487	23.198135241810878
O	25.209270288362827	13.639364165284618	22.266809248714182
O	25.71656362523246	13.142450990329536	20.99618453540476
O	26.43508058266122	9.892127045593957	22.154714272281492
