32

O	22.18519675200076	8.541629454121754	22.60678404928161
O	19.527406835787403	11.105775012593748	21.543739604601882
O	18.328633142584202	11.603981379324665	20.996126692393055
O	19.66051857597747	10.041101542553905	20.47035702302875
O	25.290439952983583	12.923386819902557	22.63562182960824
O	23.90466153169422	12.455321553266335	23.018866755541392
O	23.541194505012157	11.570428404268961	22.062843189541155
O	22.58905975660388	10.645868074655983	21.908554210100224
O	22.78578125962361	9.749758136829758	23.00050193858776
O	22.46460621258213	10.234904181495647	24.372259881573783
O	21.21862134414562	9.508427728941243	24.480019291246226
O	20.809525913878293	10.191010560511511	23.28340361502994
O	22.62301375099125	10.306733235213766	20.47488770201253
O	20.428856996284253	12.192665848462475	21.997998292459307
O	19.61140902075273	10.02553655659694	22.56395411062313
O	20.548610757789064	12.638676605920008	23.34401884643281
O	21.024135495202653	11.480868274560981	24.0437594963649
O	20.019826053610473	11.485596979429284	24.9610158408487
O	19.32936691828327	12.60348989448189	25.194552461600598
O	20.419794984644497	13.193270889293842	24.59412108948705
O	23.16897483063567	13.43649285375532	23.141333034826033
O	22.701066964954595	11.640025902898012	19.783525226956336
O	21.62966286613654	12.309015283392892	19.20285286724005
O	21.288627509855534	13.627859633673427	19.612279610942224
O	22.182292300275634	14.403736385758737	20.341077506459214
O	23.48027610875697	13.953535091335038	20.11089939666122
O	23.68493706860773	12.558876319726881	19.98289332184192
O	18.19665032751708	11.609617982710926	25.088397783136
O	17.102642051009255	11.749912669381928	24.09330868732163
O	17.232247047427165	13.030125098701262	23.382178430777376
O	15.812604874450754	11.814316867831376	24.80073084791276
O	16.69605211428352	10.443633395944511	23.43345568960759
