102

O	3.499086785982759	0.012824612572414074	-5.976154026915518
O	4.7724879759827585	2.361320244572414	-3.947113266915518
O	5.623280965982759	0.13444201257241395	-4.396999416915518
O	3.5790303259827585	0.328342072572414	-4.613932326915518
O	-0.0018345570172412229	1.685939441872414	-2.591894338915518
O	0.2750175149827587	2.475057434572414	-4.665926456915518
O	2.5069708859827586	0.782284934572414	-3.922312956915518
O	-3.550443754017241	-0.26308733742758594	-1.402196861915518
O	-2.7807238640172414	2.372474118572414	-0.2761802469155179
O	1.2455738159827585	0.40738595257241395	-4.384659426915518
O	-3.699443684017241	1.269879662572414	-3.3945405069155177
O	1.3081411359827588	-0.37191009742758596	-5.470048546915518
O	2.2766860459827587	-0.46763349742758575	-6.471145866915519
O	4.828673515982759	0.9772751675724141	-4.036229746915518
O	3.463780725982759	2.8898527225724138	-4.353194916915518
O	5.551615425982759	3.508581872572414	-3.622517826915518
O	6.179830515982759	3.3350799225724144	-2.299837341015518
O	5.315970305982759	2.407280401572414	-1.512120259915518
O	3.842298245982759	3.7009810725724144	-5.476212296915518
O	2.6022092659827587	3.7495265025724143	-6.291628606915518
O	2.445097655982759	-1.878240547427586	-6.986410266915518
O	0.4865070659827587	1.529428195072414	-3.9031715369155178
O	-0.9828556060172413	2.440725556572414	-1.924826378915518
O	-1.9247213340172413	1.5750750278724142	-1.069412856915518
O	-0.30491031501724125	3.196852912572414	-0.7707540369155179
O	0.8582041359827587	3.837846612572414	-1.449076654915518
O	2.161579955982759	3.9241674925724137	-1.053506806915518
O	3.117851495982759	4.7688389425724145	-1.6075743039155181
O	2.841476295982759	5.335362962572414	-2.801361549915518
O	1.637884925982759	5.059885902572414	-3.3257293869155182
O	0.5846815759827587	4.643598162572414	-2.505002221915518
O	-2.8046283640172414	0.841892379572414	-1.837231330915518
O	-3.8919211340172413	1.914279348572414	-2.206927367515518
O	-3.5261775140172413	-0.11515079742758605	-3.632311786915518
O	-3.987250444017241	-1.025360517427586	-2.535672043915518
O	-2.6902867940172412	2.140440582572414	-3.857318326915518
O	-2.6006607240172412	1.480991021572414	-5.118399226915518
O	-2.809610864017241	2.240860692572414	-6.2035070969155175
O	-2.3488489740172414	1.7980422515724142	-7.471786546915517
O	-1.0931527380172412	1.1954431745724141	-7.273717846915519
O	-1.588709634017241	-0.013694427427585865	-6.677968406915518
O	-2.0761182940172414	0.21969527257241395	-5.383111026915518
O	4.189427855982759	5.297112762572414	-1.001981476915518
O	1.1954916759827587	5.801401392572414	-4.398693806915518
O	9.430275515982759	-2.3919379774275855	1.0744050530844822
O	10.176451015982758	0.206920302572414	-1.609497338915518
O	9.015047055982757	3.279345252572414	0.3113172130844819
O	6.676412435982759	1.6735099923724142	2.8137699730844816
O	6.528666365982759	0.7768451795724141	6.5561248830844825
O	5.255712615982759	3.323897702572414	9.052240063084483
O	2.137229295982759	7.146294892572414	9.337085563084482
O	2.250620065982759	4.577332832572414	6.498013293084483
O	0.6565716859827587	1.260836282572414	7.539856943084482
O	-1.5600045440172412	0.444165802572414	4.522655153084482
O	-3.787837334017241	-2.703199647427586	4.600419953084481
O	-4.723723864017241	-1.8043515974275859	0.9442630730844819
O	-6.805258874017241	1.3340249065724141	1.676990793084482
O	-9.346785584017242	2.578554332572414	4.265643483084482
O	-8.663960014017242	6.274811092572414	4.935905003084482
O	-6.601372704017241	7.8894200125724145	7.652997353084482
O	-5.050077444017242	10.846147522572414	5.802843883084483
O	-8.259274104017242	10.193992492572413	-4.207656786915518
O	-6.487713234017241	9.620050212572414	-7.564108626915518
O	-3.183236964017241	11.536127322572414	-6.125013166915518
O	-4.114714704017241	13.416010902572413	-2.980344187915518
O	3.331511005982759	12.041205902572413	-6.4926040769155176
O	1.8910697259827587	11.008150512572414	-3.082790551915518
O	4.595237315982759	11.800761702572414	-0.6131249269155179
O	7.852201645982759	9.972509912572413	-1.197894256915518
O	10.208465415982758	7.808749972572414	3.167513273084482
O	6.243796165982759	9.283262212572414	6.661631473084482
O	0.4186274419827587	10.316715772572413	6.356713403084482
O	-1.3038958850172413	7.014149232572414	5.6774027730844825
O	-3.3041395240172413	4.665145762572414	7.975196663084482
O	-5.825340754017241	2.728966332572414	5.801169433084482
O	-9.000738924017242	-2.074974517427586	5.194111133084482
O	-14.769898884017241	-7.303838517427585	3.405061363084482
O	-13.542711784017243	-4.435287267427586	1.261904053084482
O	-9.857278814017242	-5.072996967427586	0.608356603084482
O	-8.380168464017242	-7.948598817427587	2.6012695130844823
O	-2.958428894017241	-8.584045497427587	0.9605280230844819
O	-1.5548941140172414	-5.113156887427586	0.754845513084482
O	1.2312037659827588	-3.579441437427586	2.8378554930844824
O	1.0065745659827585	-0.349984947427586	0.6187041130844819
O	2.2554755359827587	-2.267607057427586	-2.208876473815518
O	5.970819665982759	-3.130199737427586	-2.602914775915518
O	5.849747555982759	-6.0395353074275855	-4.978789176915518
O	4.174136335982759	-9.355455897427587	-5.313557526915519
O	1.950521575982759	-8.474949897427587	-8.216122106915519
O	7.4700789859827585	-9.523211197427587	-8.815592936915518
O	5.530795685982759	-7.568589447427585	-11.412873076915517
O	2.448628985982759	-7.770950347427585	-13.562944536915518
O	-0.9681993470172412	-6.655718987427586	-12.520419136915518
O	-4.148326474017241	-5.772859997427585	-14.402186236915517
O	-5.943285664017242	-5.3885955574275854	-11.068650746915518
O	-1.3835815530172413	-8.224928417427586	-4.764921666915518
O	0.5953953459827587	-9.682015297427586	-1.925672838915518
O	2.669390765982759	-6.6108468174275865	-1.2581935599155178
O	5.3245585059827585	-5.918234997427586	1.3256127030844822
O	8.033788615982758	-8.188780917427586	-0.09345965691551816
O	5.749229895982759	-11.127420597427587	0.40982672308448187
O	4.596607885982759	-9.956189797427587	3.815974443084482
