43

O	19.97437603880679	10.971571516972801	26.33512673193729
O	20.2180277986876	9.728663151803186	25.389570935984796
O	21.628872619585078	9.675728341709933	25.35576045105252
O	21.97601767428578	10.689033459334997	24.41127434479023
O	22.86379463299559	9.96829216762371	23.495648367010308
O	22.956846874242625	8.652969758928458	23.283542808637105
O	23.20273442501601	10.990601466887824	22.48352744145382
O	24.082043189998153	10.729154191616008	21.338374263458796
O	24.812169001216496	12.016360686247925	21.019540430634574
O	26.164542675649955	12.148975889816212	20.71222314547483
O	26.840957769345952	13.332511210093879	20.660081469645846
O	26.109395937662956	14.423838638230496	20.306536433145798
O	24.74776624725362	14.345040061591423	20.300708572911482
O	24.14928352647339	13.208331004910171	20.739512197100495
O	23.668377796903577	12.046332287594424	23.205893123286078
O	23.330959448561423	13.345253497730758	23.424287363152644
O	22.1213844317684	13.540535837879311	23.60047599733825
O	24.439364032811497	14.10258188878536	24.021755361961645
O	25.2334469889417	15.081206278155491	23.428562274850503
O	24.708675963727615	16.368000130962017	23.68537327796686
O	24.674034326116917	16.4711789125216	25.149412786874716
O	24.845430093533842	15.288469375801537	25.923917345601936
O	24.36674702234459	14.131348345944112	25.413253869782434
O	24.819128518423963	15.513224931081883	27.33914967323668
O	23.490050360939186	15.73656445221897	27.736618167829732
O	22.61292063536842	14.7205012658649	28.107266227195225
O	21.27714024281906	14.687124829049985	27.67777392782918
O	20.89887239580007	15.44093989463232	26.5635753125348
O	21.51291904847978	16.657327012003552	26.49572315921937
O	22.833708345960627	16.691499849707277	26.961569553261747
O	26.260603219976336	16.38787321331504	27.570317325863808
O	25.90781271998656	18.06827141702346	27.520741893622958
O	26.841214373496634	15.709779791469977	28.683432693350067
O	27.351292164664436	16.201358732762912	26.50469775600476
O	19.941493349602368	10.381342776063734	24.05436256157862
O	19.72801200061805	11.62769661698689	23.90605842641163
O	20.480148815217184	9.613416448472341	23.007168770200927
O	20.425054149238797	10.281711058827007	21.75682825410742
O	20.144370055500197	11.697772286046485	21.74895174460802
O	20.916306675872846	12.390785890172223	20.693193218066874
O	21.456048905135887	11.632283256390679	19.559728030328284
O	21.423819754319602	10.164879099128576	19.475054291897067
O	21.06965757915224	9.489595410030823	20.734635942020176
