85

O	5.192005522296428	-0.9378343419660706	-1.9640309443875
O	2.199842612296429	1.7556569340339294	-1.6838314953875
O	5.040010702296429	2.5236210380339292	-0.7067377883875
O	4.593080072296429	0.7961859710339295	-3.3865460323875
O	3.6701068622964286	1.0957839510339296	-0.16679800238749998
O	0.8886808372964288	3.8595457180339294	-0.5274051233875
O	6.842233612296429	0.5063119700339295	-2.7964078623875
O	0.6860667752964288	-0.4012293819660704	-0.9842199273875001
O	4.308413072296429	0.06486413803392943	-2.3045082633875
O	0.5368145822964288	4.489597518033929	-2.4466054823875
O	6.511019532296428	-0.7382945619660704	-2.2710235983875
O	5.877896202296428	1.2636402920339296	-3.4547371023875
O	4.985406642296429	1.4115077309339294	-0.18386723238750013
O	1.9260806222964288	3.0459541480339296	0.05194711761249993
O	1.4005274422964287	1.7178861100339295	-0.4148202983875
O	2.2812387122964286	3.00923596803393	-2.0899588123875
O	0.8763272312964289	3.2949966980339296	-1.8593307913875
O	6.189010342296429	1.0124448700339295	0.5245428876125
O	3.2329632722964288	3.8658995480339295	-2.7559271123875
O	-0.5199147597035711	1.5608063620339294	-3.0875745323875003
O	-1.6134267077035713	2.5353586680339295	-4.6329890623875
O	0.6923039072964288	3.0513938880339295	-4.4946102123875
O	2.8810345422964287	-0.3554372319660706	-2.0941538993875
O	-0.7652333777035712	4.18140692803393	-2.9138547423875
O	1.5818993922964286	0.3435095480339294	-0.3610171983875
O	2.998686392296429	0.07318703803392945	-0.7450979003875
O	-0.5517899157035712	2.918623748033929	-3.6899644023875
O	7.404137482296429	-1.2610684419660703	-1.3615562018875
O	6.199600412296428	2.5838409380339296	-3.6167037123875
O	6.0564579322964285	-5.83850067196607	5.2575567476125
O	3.748920652296429	-8.65225017196607	6.3975143076125
O	2.8170660222964288	-11.38798917196607	3.9379772776125
O	2.197143362296429	-12.10439727196607	-0.9183414693875
O	2.4713976822964288	-8.67359927196607	0.7807288876124998
O	-0.7520788277035712	-7.750541011966071	2.6112023376124998
O	-1.3534448877035712	-4.166441261966071	1.5363497976125
O	-4.3729299777035715	-2.1416541619660703	2.5964293876125
O	-2.8518803177035714	0.9383008730339295	0.7627373176124999
O	-3.2997208977035712	-0.33873779196607057	-2.7633379923875
O	-5.836564587703571	-2.2067825619660706	-4.8819393723874995
O	-3.9075650577035717	-4.45229883196607	-7.2722680623875
O	-3.1091239577035714	-8.15338961196607	-6.9585055523875
O	0.3474257886964288	-8.185773111966071	-8.6303358923875
O	2.0420271022964287	0.8848983090339295	-15.2208776723875
O	2.361587442296429	1.7048431050339294	-11.5618136723875
O	4.865091522296429	4.396462398033929	-10.5184551123875
O	7.588401782296429	1.4296025546339295	-9.8247158123875
O	6.402408122296428	-1.8034475719660703	-11.4131343723875
O	12.88870973229643	-0.4757291419660705	-6.3040721823875
O	9.73456872229643	-2.57634934196607	-5.8385854623875
O	12.792531332296429	-5.773942301966071	-1.2461135446875
O	7.539703142296429	-11.926821571966071	-0.5798366943875001
O	3.8770375422964287	-10.20556687196607	-4.892679132387499
O	1.3566497622964286	-7.851655021966071	-3.3888538923875
O	-2.2917167077035714	-8.15620363196607	-2.3895352223875
O	-3.991975487703571	-4.76596647196607	-2.6672408923875
O	-8.286800397703571	-1.3082918719660706	-0.8873745013875001
O	-11.06093896770357	-0.2532271119660705	-3.2763782623875
O	-11.31327596770357	-0.2723376019660704	-7.0701893923875
O	-7.467482757703571	3.4342101880339295	-6.7659653723875
O	-6.798953367703572	0.31363249803392956	-8.8023007323875
O	-4.537620317703571	0.6045733200339295	-11.8597514723875
O	-14.217252067703571	3.9976047680339297	-0.3321323583875
O	-10.90530076770357	4.36318731803393	-2.2062636923875
O	-8.03979652770357	4.099703968033929	0.28297178761249997
O	-9.27844235770357	3.0491693980339294	3.7487577976125
O	-5.505985987703571	6.36830702803393	5.6497109676125
O	-4.797644857703571	2.9686105780339296	7.2443024376125
O	-1.9713078477035713	1.4205716535339294	5.2151590976125
O	-0.2988052277035712	-1.9397754419660704	6.1173400876125
O	2.032647982296429	-1.2442532419660703	3.0502135976125
O	3.6374970722964286	1.7477011500339295	4.7498682476125
O	6.060057172296428	1.1100386890339295	7.7463308276125
O	5.758663162296429	4.383565428033929	9.6209130276125
O	3.0984876722964287	6.49587679803393	11.2512062276125
O	3.271744722296429	9.34484102803393	8.7170087276125
O	7.849479522296429	10.660520778033929	9.7241659276125
O	6.516486042296429	13.52827762803393	7.6545476076125
O	4.056991742296429	13.23078182803393	4.8404463576125
O	3.047228292296429	15.47308572803393	1.9470213776124998
O	0.1437300272964288	13.11517582803393	1.1927596476124998
O	-0.7384023077035712	7.32022427803393	7.110274497612499
O	-1.3347507377035712	4.79889166803393	9.8659885276125
O	1.3394970522964287	2.3881029980339297	8.7091609276125
O	2.4201230622964287	-0.9648396819660703	10.1523540276125
