32

O	21.294133580063146	9.320204833519588	17.321958278273797
O	26.204998734319453	11.631092457459452	21.987655170075733
O	27.389553179158227	11.6020738057782	21.859941465941535
O	24.014785921064707	9.037691105143583	19.177762595143186
O	16.909523072221127	9.596726815912943	17.501470418357634
O	20.89804369707698	10.337462601495634	23.020664335594752
O	17.812585804426423	10.637639643737183	17.109886655804555
O	20.706708811315806	10.20030375743913	19.61239436156795
O	19.691037765243287	12.560551936654814	22.40356608361774
O	19.65625479795922	10.62081814162178	25.129949752487228
O	17.518108468839802	8.806102466705136	18.499056638258665
O	23.737151470138553	12.34934392509875	19.623803447851706
O	23.182627331864	11.56127841742634	17.887113382241576
O	24.837955764811696	11.431542502764492	19.524940276775485
O	24.26336932389512	10.687016367062027	17.681707699445713
O	19.30751469792699	10.60637333992671	16.99515290910678
O	19.868993973954407	12.085151286519697	19.085861441637228
O	18.81245733982055	11.401235348745393	19.5963062754129
O	20.78274393034684	12.084292057432581	21.656141619994457
O	18.930281589141572	11.585877549574995	23.14908241316031
O	22.62689927408223	11.861343889776492	19.167124955065255
O	18.87683713743259	9.039735157895697	18.653537336041232
O	24.793690602105354	10.213355442738768	18.844308150601154
O	19.386079405132385	9.151056221233823	17.308738571255972
O	21.10950143046056	11.460833538048206	19.31161891623904
O	19.336478038982207	10.075203139571112	19.686707065731827
O	20.74018530860632	10.645102278173928	21.73488621535854
O	19.749094632234662	10.507988833655697	23.676040717761566
O	25.052869914755576	10.757181979981912	22.19732085632559
O	21.383801983712686	9.770963651793865	20.739607820122814
O	23.766442365099373	10.493835899954124	21.355271331787026
O	23.738639980815357	9.130936977801813	20.530458577089206
