102

O	3.9586757904142855	-0.5036963291587305	-0.751088292397667
O	5.916544230414286	-1.6577667211587306	0.324448032602333
O	5.8239309904142855	-3.7486964811587304	0.728673787602333
O	6.819828530414286	0.41031635384126947	4.064368225602333
O	5.362203630414285	-0.2360349161587305	-0.9856747393976669
O	6.336524950414286	-1.1056977411587305	4.694354125602333
O	5.858932030414286	1.4196813188412696	4.444286685602333
O	5.354393420414286	1.0328112588412695	-1.354754944397667
O	-0.5347885275857145	-3.460981061158731	2.0378449256023328
O	6.456271090414286	0.41515205584126946	2.5748018856023327
O	4.5748686404142855	1.2879338218412695	-2.529947074397667
O	2.1111200104142855	-4.901440031158731	2.939007685602333
O	3.326585140414285	0.8086930698412694	-2.696493924397667
O	1.4566320504142856	-3.9012267111587304	4.797419815602333
O	3.026168120414286	-0.038623777158730555	-1.7153536943976668
O	-1.5819560995857145	-3.4281137411587306	-0.03766982039766695
O	6.324649490414286	-1.3367012111587306	-0.982214763397667
O	5.150603870414286	-2.669158361158731	0.8070042356023329
O	4.432741620414285	-2.1898289511587308	1.937849305602333
O	3.3608356904142855	-2.406772111158731	2.620309485602333
O	3.333900640414286	-2.9033271811587307	3.9237179056023326
O	4.328595530414286	-2.3887875011587307	4.7607092456023326
O	5.1063790704142855	-1.5115907111587306	4.190511375602333
O	5.059573120414286	-1.3041539211587305	2.815636785602333
O	8.497681930414284	0.4318655158412695	3.9230700256023328
O	7.208705300414286	-2.287651791158731	4.841914025602333
O	6.488807530414285	-2.5160411711587307	-1.7853300743976668
O	2.486938250414285	-4.1185123411587305	4.082513935602333
O	0.8780810364142855	-5.16137753115873	2.336606395602333
O	0.3834600469142855	-4.267218681158731	1.201782055602333
O	-0.8010843695857146	-4.47935434115873	0.357319644602333
O	1.4775228704142855	-4.0403226111587305	0.32735904760233303
O	3.5508345504142858	-2.7580534111587305	-3.2219505743976673
O	4.0238038704142856	-3.510520751158731	-2.205522934397667
O	3.293662840414285	-3.914769811158731	-1.149831575397667
O	1.8993599904142855	-3.8758825011587303	-1.037628646397667
O	1.6149043604142854	-3.0607897511587305	-2.100983694397667
O	2.2154522804142855	-2.7691510511587305	-3.283602764397667
O	2.2934440404142853	1.6172031788412693	-3.081405704397667
O	0.7597663104142856	1.6378834188412696	-11.361104234397667
O	3.1692040904142855	3.5049299288412694	-9.158188294397666
O	4.087871510414286	4.062761868841269	-5.567981484397667
O	6.733821520414286	1.1901996158412693	-5.455893524397667
O	4.593976570414286	-1.6742562911587306	-6.875148634397667
O	1.1231329694142855	-0.36788091515873056	-6.106729084397667
O	-1.8584544795857145	1.1137680288412695	-7.916382974397667
O	-4.400677639585714	-1.1826872611587307	-9.478451324397668
O	-6.439112159585714	-5.6130653211587305	-8.888257134397668
O	-4.319700509585714	-3.800311671158731	-6.286182424397667
O	-6.220576359585714	-0.9985093611587305	-4.533224634397667
O	-5.477660929585714	-1.5271461011587304	-0.861923247397667
O	-6.938374829585714	0.5336950378412695	1.936167275602333
O	-4.666175299585714	-1.4053655211587306	4.386300635602333
O	-6.533320589585714	-4.723598601158731	4.136311595602333
O	-10.047349709585715	-6.121247371158731	3.939284095602333
O	-10.114046509585716	-9.09977563115873	1.5991102456023332
O	-10.802361209585715	-9.314591981158731	-2.0851204043976668
O	-8.283217859585715	-11.98208030115873	-3.1399611243976673
O	1.8340243704142856	-14.82002660115873	2.754600335602333
O	-1.0619325895857146	-16.173576201158728	0.652012968602333
O	6.432953030414286	-13.38900420115873	-1.8193574843976668
O	2.811645110414285	-12.32094730115873	-2.5753191143976673
O	2.8247795304142853	-11.456257801158731	-6.283465244397667
O	5.309069760414285	-8.76888855115873	-7.459763644397667
O	3.457119450414286	-5.055093771158731	-11.018231934397667
O	-1.6892765495857145	-6.9133414911587305	-10.929073234397666
O	-5.181761309585714	-9.73435630115873	-7.064525764397667
O	-5.870665389585715	-7.34015761115873	-4.216815674397667
O	-8.941604969585715	-5.28122409115873	-3.278624784397667
O	-9.048923569585716	-4.748615161158731	0.46614096760233303
O	-10.745335009585714	-1.5366434711587305	4.939134315602333
O	-3.008695429585715	8.23504460884127	-6.757356224397667
O	-7.787917749585714	-0.18059355015873052	9.448684525602333
O	-8.572133529585715	3.3970092488412695	8.356891075602332
O	-3.459684089585714	4.480890188841269	9.368682715602333
O	-4.001725699585714	5.485357028841269	5.702489365602333
O	-2.734816449585715	2.6889088388412694	3.576758315602333
O	-2.560230449585714	2.7087353788412694	-0.24429887634466696
O	-0.9045340195857146	-0.6879242011587305	0.21110329160233307
O	2.1313480804142855	0.8184278788412694	1.888373085602333
O	4.597300570414285	2.975930568841269	-0.11326956039766695
O	6.3440893504142855	4.77959117884127	2.264660025602333
O	5.302745510414286	7.40119073884127	4.8417806356023325
O	6.153882080414285	5.198463758841269	7.879168115602333
O	15.742321290414285	4.32564690884127	2.470889445602333
O	8.709069000414285	11.869119398841269	-0.05849164139766694
O	10.457047290414284	7.28879468884127	0.990134085602333
O	10.107411280414285	7.742868918841269	4.721176395602333
O	10.951328190414285	4.8558340388412695	6.974340765602333
O	10.616047990414286	3.4974880588412693	10.459971365602334
O	7.777235520414286	1.3890251688412696	11.646078565602332
O	7.365509060414285	-0.9946533911587306	14.550858965602332
O	3.657608180414286	-1.1038556211587305	13.725107265602333
O	1.4210679604142855	4.580175978841269	7.9794569056023334
O	0.3870017973142855	7.131975228841269	5.377617135602333
O	1.3439269504142854	5.232750788841269	2.353161085602333
O	1.1885543674142856	5.793761268841269	-1.3773300143976668
O	3.861265270414285	8.48438035884127	-1.5203179443976669
O	1.8310217904142856	10.620423898841269	0.8625400556023329
O	-1.4139378495857144	9.754878628841269	-0.8819623103976669
O	0.1019643604142855	10.97879879884127	-4.175688374397667
O	-0.10090737858571452	14.55696619884127	-2.9705452743976672
