85

O	4.685180272519231	-0.049655988057692446	4.5143708128269235
O	3.7658622925192304	-0.4261802430576923	3.4685730328269235
O	4.4019569925192314	-0.022443041057692348	2.3086373428269233
O	5.063462832519231	1.0759641979423076	2.5688905828269233
O	5.399570692519231	1.0150529339423076	3.9631425228269235
O	4.517628152519231	-0.3379528020576924	5.7515619828269235
O	3.109241252519231	-1.6079954330576927	4.030371942826923
O	1.5239729425192308	-0.1838931330576924	2.6928239928269235
O	4.331070472519231	-2.4888139630576926	3.6543213028269235
O	4.316002592519231	-2.4127218430576924	2.2120650528269232
O	2.2192403225192305	1.1120766409423077	2.5976095828269234
O	2.111407572519231	1.5378721909423076	3.9438513628269236
O	0.6426368865192308	2.1468213369423075	3.9990935528269236
O	-0.34828652848076924	1.0683668409423075	3.9030712928269233
O	0.33348268651923074	-0.19606101605769244	3.5549501328269235
O	3.2708260125192306	-2.2994423030576927	1.2171002748269233
O	2.5772111625192307	-3.6029276030576924	1.1301509408269232
O	3.623402112519231	-4.390903183057692	0.33447126582692327
O	4.907946632519231	-4.478157033057692	1.0934450808269234
O	5.412236912519231	-3.2370824230576924	1.719429792826923
O	5.977435302519231	1.8235456769423077	1.7393030428269234
O	2.3140588625192304	1.5931271369423077	5.179088752826924
O	1.9175647425192308	0.6816169539423076	6.066706512826923
O	2.4316627225192304	-0.9707560430576924	3.4074340928269233
O	6.410551252519231	1.6728971569423075	4.707663692826923
O	2.3171669025192307	1.3551633019423077	7.028517892826923
O	1.4674098325192309	-0.5928997130576924	6.344312252826923
O	0.36534673351923075	-0.7843534330576923	7.173524932826924
O	-0.8496942774807693	-0.4120808880576924	6.7980571628269235
O	-1.7498716074807692	-0.11143754805769235	7.813768282826923
O	-1.1599281574807692	0.5568674794423076	8.891577752826924
O	-0.18246850048076926	-0.3069748080576924	9.421709732826923
O	0.7709840415192307	-0.6167214030576923	8.453652402826924
O	-4.905750917480769	6.328126786942308	6.2355707528269235
O	-3.6594724474807694	7.209335026942308	2.7219039128269236
O	-4.680328367480769	8.542377396942307	-0.6064391671730768
O	-6.478175487480769	6.309359436942308	-3.0685168671730767
O	-6.674032967480769	1.5896044969423078	-4.414179297173076
O	-3.982640777480769	3.0842275169423075	-2.1963758271730764
O	-1.422490717480769	5.129244176942308	-4.225664827173077
O	1.9530463925192307	3.8189477469423077	-2.7152706271730764
O	5.261234472519231	5.068682366942308	-4.092704907173077
O	7.0704340225192315	3.0187046169423075	-1.4905353071730767
O	6.247960582519231	-0.3670968820576924	-3.0264803371730764
O	5.975629242519231	-2.1418113730576924	-6.313210617173077
O	3.0242995725192308	-4.553899733057692	-6.276509587173076
O	-0.5069974504807693	-3.9937362630576927	-7.433944367173076
O	-2.4712069274807695	-6.040569183057692	-4.931798687173076
O	-6.188534307480769	-6.065474683057692	-4.218754277173077
O	4.501599442519231	-10.170420873057694	1.4825572428269234
O	5.335460752519231	-9.887740273057693	5.213678372826924
O	1.3199445425192309	-9.169397913057693	6.032285382826923
O	-0.7957157574807693	-10.259705973057693	3.0614839428269236
O	-0.7447700954807692	-13.370123973057693	0.9521765928269232
O	-2.1484755674807694	-13.689136273057693	-2.5229669171730764
O	-1.9327493774807694	-10.044713373057693	-6.771566897173076
O	-4.082373247480769	-10.567575973057693	5.296009572826923
O	-3.0216356974807694	-9.666145073057693	8.803609702826924
O	-3.4367016774807695	-6.209134673057692	9.829582332826924
O	-3.0715591174807693	-4.906617353057692	6.235367562826923
O	-6.492893777480769	-3.3418434930576923	5.667762192826923
O	-7.454772837480769	-0.24162131505769235	7.613648052826924
O	-11.002611107480769	0.042516243942307574	8.955796952826923
O	-9.61089973748077	3.9204678169423075	4.978499112826923
O	-12.160766307480769	3.1702637769423077	2.2091447928269234
O	-9.35138113748077	1.4411789119423077	0.20687711182692325
O	-9.41616706748077	-2.2005677630576925	-0.9190492971730767
O	-5.955789737480769	-2.5882293230576927	-2.397503437173077
O	-2.5572349674807695	-1.0484639930576924	-2.933878077173077
O	-0.8904682574807693	0.3243535279423076	-6.012825937173076
O	2.849738752519231	0.019097931942307578	-5.7736796471730765
O	8.04079972251923	2.0270768869423077	-7.400507207173076
O	11.615535592519231	-4.212228223057692	-5.137358877173076
O	8.580751872519231	-6.113481463057692	-6.416546347173076
O	14.234320992519232	0.6599278689423076	-6.789138237173076
O	12.50498169251923	2.8648193869423073	-4.220238497173076
O	6.948315102519231	7.365487456942308	-0.037232778173076686
O	3.2113454925192304	8.229426226942307	-0.3568728141730767
O	2.4438895425192304	5.176599326942308	1.5981275508269233
O	4.108882972519231	6.730843746942308	4.749399892826923
O	2.2225186325192308	9.350490126942306	6.663898792826924
O	5.175791912519231	11.203002826942306	8.292038592826923
O	5.887916012519231	10.693983526942308	3.4624372228269236
O	2.4457145325192307	12.079393726942307	2.6857809628269234
O	4.1364839925192305	15.452196526942307	-0.24788693317307675
