35

O	25.034979259335923	13.261391760111556	22.181072646140475
O	23.722890331057528	12.825891223109439	22.682212270399507
O	23.358813670923773	11.522901942981765	22.571799764368716
O	22.172764159273807	10.819510439785988	22.289895589851294
O	22.288551505156963	9.706720047127108	23.2628383449642
O	22.18628270297235	10.534264867382118	24.467344230793113
O	20.92344240465511	10.094091574728074	24.770223655222978
O	20.037514604625173	10.93585330878403	24.035426188798365
O	18.930835274038188	11.044144151454102	25.087354109595182
O	18.066298830257953	12.206413473714179	24.69121456396988
O	17.47046783630921	11.982711686307347	23.33285697614299
O	18.050728595972192	10.800439128875723	22.607820010319575
O	19.52411038773736	10.578284054515187	22.80979514148549
O	20.403831834815705	12.327193172780689	23.790816956561606
O	21.192426047277884	12.519655112062164	24.875159000982904
O	21.457882138320237	13.587035305073734	25.620511659589408
O	20.902985023993537	14.693838643530118	24.96278162423901
O	20.076755765070384	14.649772776220061	23.83975292572137
O	19.844757555764	13.408834295158172	23.242427287156378
O	21.306112420631976	13.287779442897826	27.067253443812902
O	21.944194371061574	12.182615876850956	27.477969143692906
O	21.8383687769422	12.245976158486489	28.816352786019102
O	20.48134852280643	12.560442088056346	28.94232643364374
O	20.106806826114877	13.048925520515041	27.69296540475211
O	22.8926402319886	13.729619658777017	22.589949903152213
O	22.29666307432012	10.107672906642495	21.013986877825374
O	22.518273727473186	11.407711909764338	20.330531887823767
O	21.48268635539939	12.257598541053373	20.182303373686818
O	21.838979332165454	13.501636332671819	19.644431584133287
O	23.188330592853863	13.74850092748246	19.38242417803024
O	24.03762960030383	12.677148577789456	19.1212458900963
O	23.72326238235701	11.48556486053046	19.70723575949827
O	21.533876042501696	8.645759186772011	22.92972881532179
O	21.19081922664062	14.575178016209481	20.208958315870955
O	25.37562890974327	12.974576097316504	19.031629279880732
