82

O	2.0675223332474575	5.204474523338983	1.7605971499491528
O	5.770461113247458	0.04916697533898284	-1.8627279600508473
O	7.665262783247458	-0.21908074666101718	-0.34392450405084724
O	3.8247469332474573	-0.20906065666101714	2.4416422599491527
O	2.1615159532474575	5.646122123338983	0.44061762994915266
O	3.9583101632474573	-1.270204176661017	-1.3834873920508473
O	1.9640250732474578	4.778369303338983	-0.5883526010508473
O	4.434638553247458	-0.8909180566610171	-3.743041460050847
O	1.9437857632474578	3.425501983338983	-0.22798837505084724
O	1.1195377732474576	5.784788423338983	-2.773321190050847
O	2.2754996232474576	3.018511893338983	1.0586546799491527
O	1.9458666532474578	3.886246543338983	2.0500739999491526
O	2.7803000432474576	1.6773378923389828	1.3852220399491526
O	3.6527474832474573	1.1385321523389829	0.48283306994915276
O	4.104598213247458	-0.0946123796610171	0.7793149699491528
O	3.1270851632474574	1.3566938953389829	2.7026414899491527
O	4.4454704632474575	-1.300942226661017	-0.039832384050847214
O	5.920369293247458	-1.5883542366610173	-0.05331175705084723
O	6.607628393247458	-0.5321059866610172	-0.9184144130508473
O	4.687809213247458	-0.784575086661017	-2.323651900050847
O	3.8729859832474576	-2.571041896661017	0.5880412599491527
O	6.509489123247458	0.7602420173389829	-2.855671710050847
O	1.1956326112474576	5.233979303338983	-1.7379705460508472
O	-1.7383313667525422	9.657393133338983	-4.5655755500508475
O	0.3400002542474577	10.771354183338984	-1.5954388410508473
O	-1.3077091967525423	8.557343053338982	1.0138273299491527
O	-2.8347626667525425	5.872340793338983	-1.1828040540508473
O	-6.176463396752542	4.640540103338983	-2.4271276600508473
O	-8.152181916752543	2.2397464433389827	-0.26779830105084723
O	-10.071081196752543	0.3401271143389829	5.134265509949152
O	-7.453135946752542	-1.3708455666610173	3.0327351699491527
O	-4.771512466752542	0.0858056193389829	0.7795336199491527
O	-5.041952696752542	-1.1756838366610172	-2.824937070050847
O	-1.4577264267525423	-2.177818096661017	-3.6916646900508474
O	-0.47608410175254223	-3.680016586661017	-7.0184477100508476
O	3.1790928232474576	-3.613411826661017	-5.933892960050847
O	2.9386348832474574	-6.318993706661017	-3.2393428200508474
O	1.3322294532474577	-9.665669866661018	-2.6099705000508475
O	0.3040225784474577	-9.836790466661018	1.0497039399491528
O	-3.0473753767525427	-9.107340536661017	2.624599819949153
O	-1.9062164967525421	-7.5470160566610165	5.930378699949153
O	-3.9458039567525423	-5.657512266661017	8.506311069949152
O	8.467088543247458	-7.541901666661017	5.947887759949153
O	11.187039403247457	-4.840106726661017	5.853184939949153
O	8.726826663247458	-2.381071596661017	8.081471829949153
O	5.896040683247458	-4.416586226661017	9.567600039949152
O	5.909495063247458	-7.670830626661017	11.557219339949153
O	-4.216220836752542	-12.584826666661018	6.659275279949153
O	-1.0264708867525423	-11.272994466661016	8.193224109949153
O	7.815528003247458	1.076783186338983	11.853721639949153
O	6.920604593247458	3.9022351233389827	9.455197139949153
O	4.2381936932474575	1.7076593503389828	7.893453879949153
O	0.9672055352474577	3.323361823338983	8.843803909949152
O	0.47998990124745766	6.860494813338983	7.555234249949153
O	-1.1738771167525424	9.329570413338983	9.974516439949152
O	-4.459028396752542	10.438928813338983	8.409197319949152
O	-4.451499796752542	7.994253053338983	5.461087409949153
O	-7.574058976752542	6.446544593338983	6.9750801999491525
O	-6.357043376752542	2.9351141733389827	5.983258949949152
O	-5.640240926752542	0.11433318533898285	8.440367509949153
O	-4.197230896752542	-2.536706906661017	6.179721269949153
O	-2.8381382067525425	-3.344213656661017	2.742282469949153
O	-4.1863818767525425	-5.535532566661017	-0.07249660105084721
O	-1.3305724567525423	-6.923905696661017	-2.142698100050847
O	-2.6542119267525424	-7.634014956661018	-5.589516870050847
O	0.5258151962474577	-8.883425106661017	-7.253281960050847
O	1.6629920532474578	-12.499432766661018	-7.646440560050848
O	-7.544483256752542	5.999510363338983	-9.507056690050847
O	5.715289903247458	-11.508169966661017	-9.901792840050847
O	5.260415923247458	-7.742407976661017	-9.878256930050847
O	2.4840095532474575	0.003367586338982931	-8.681177490050846
O	-0.5086662667525422	1.7033686593389827	-7.016545950050848
O	1.3852489332474578	1.548155718338983	-3.727719700050847
O	3.9825507232474573	4.058605713338983	-4.884775130050847
O	3.0288871932474577	7.737918243338983	-5.309736910050847
O	5.450365843247458	8.895641523338982	-8.000908160050848
O	5.966671803247458	13.745157233338983	-8.733837090050848
O	11.731717803247458	10.802747443338983	-8.867718410050847
O	2.9803985932474575	4.861782283338983	-9.441582870050848
O	-0.32759523075254227	6.426810763338983	-8.526322390050847
O	0.2370487714474577	9.756198203338982	-10.265632580050847
O	-2.2473467267525424	5.634033683338983	-12.893643460050848
