81

O	-2.1248195694137926	-0.3179544175617241	6.320012331231035
O	-1.6226997514137926	-1.6672945065617242	6.074351771231035
O	0.4271574515862073	-5.637460036561724	5.005801071231035
O	-0.4104542224137926	-2.0063077165617242	6.611462011231035
O	1.2253845515862074	-3.465483866561724	7.3566617612310345
O	1.7636211315862074	-2.5153629565617237	5.533064691231035
O	-0.1574649934137926	-3.320437816561724	7.1510274912310345
O	1.9239016015862074	-4.206869896561724	4.410430611231035
O	0.33053733158620746	-1.0854485875617241	6.859093981231035
O	2.261089531586207	-3.0761573165617238	6.513748041231034
O	-1.8779430034137925	-4.172175166561724	4.366318581231035
O	-3.8979737684137925	-1.047372616561724	5.0613472712310354
O	3.372817281586207	-4.006941166561724	6.273667311231035
O	-2.577671718413793	-3.343412006561724	3.589772951231035
O	-3.554068438413793	1.810011593438276	1.6270878612310349
O	2.996307661586207	-4.841806226561724	5.0879379612310345
O	-2.0446903124137927	-3.4361545965617237	2.401676086231035
O	-2.4247351884137927	-0.4444066395917241	2.477518488231035
O	0.6092942415862073	-4.630284766561724	4.244489281231035
O	-0.9354482954137926	-4.099544886561724	2.574365199231035
O	1.8030595315862072	-3.725987686561724	1.382691521231035
O	-0.6184882704137926	-3.842865616561724	3.923732181231035
O	3.5022241215862078	-4.884990496561724	7.404480071231035
O	0.8090264815862074	-2.137514706561724	0.16287208123103492
O	-0.8013183314137926	-3.386201716561724	8.507139121231035
O	-3.6279754984137926	1.120391563438276	5.046683251231035
O	-0.5513821964137926	-2.041207576561724	9.111793331231034
O	-0.8598162054137926	0.6051779734382758	3.564411696231035
O	-2.2255327584137925	-3.680744136561724	8.155077051231036
O	-3.0679858084137925	-0.614245538561724	7.447631511231035
O	-3.3148905084137925	0.5785005834382759	8.166941021231036
O	-2.6002191584137924	0.600917233438276	9.453895341231036
O	-4.201779708413793	1.6389031534382756	7.707820991231035
O	-3.0006640784137923	-0.1386825965617241	5.149437261231035
O	-3.1176680284137923	1.6718756434382758	2.9208779132310347
O	-4.342933678413793	1.248844263438276	3.7385523922310346
O	-2.6873790084137927	2.9207789434382763	3.638926206231035
O	-0.7460700984137927	2.551648093438276	5.200106871231035
O	0.5769258515862075	2.649048993438276	5.538019931231035
O	0.8895458615862073	1.993621703438276	6.741543391231035
O	-0.05379356841379268	1.975042413438276	7.733245981231035
O	-1.0865701052137926	2.837595393438276	7.484751291231035
O	-1.5224622144137927	2.992930673438276	6.203669931231035
O	-2.1394254394137926	0.5570594244382758	3.1324523452310347
O	0.1698359215862073	-0.3218943385617241	3.742735371231035
O	1.3642823315862072	0.2394720404382759	4.099012091231035
O	2.6274636115862076	-0.15158137756172407	3.871382201231035
O	0.32068153158620727	-1.1078178715617242	2.622088426231035
O	1.5343506915862073	-1.702669986561724	2.417125550231035
O	2.6618631415862075	-1.236497956561724	3.000283275231035
O	1.6717959415862076	-2.4989710665617237	1.2276142912310348
O	-1.2177118139137926	2.767862443438276	3.859898531231035
O	-7.842151438413793	6.923809383438275	-8.263900878768965
O	-2.3608478284137924	4.824007643438276	-7.016630808768965
O	0.8244607615862074	2.531308153438276	-3.5013585287689653
O	-1.4734563744137925	-0.44438436627172406	-4.315417778768965
O	-11.253323298413793	-8.542089006561724	1.140585021231035
O	-9.214737438413792	-5.416004376561724	1.422667301231035
O	-9.181730678413793	-4.047239706561724	4.999388511231035
O	-12.145700598413793	-1.5074711065617241	3.726264849231035
O	-8.778493298413792	2.723585553438276	-7.660921878768964
O	3.4555467415862076	-8.783207986561724	-4.579457218768965
O	0.8753063115862072	-6.610379166561724	-3.043060958768965
O	-2.1469785084137927	-7.458428846561724	-5.006490478768965
O	-5.235616118413793	-8.927561786561723	-3.313338468768965
O	-6.047841488413793	-11.665715706561723	-2.3221505187689653
O	-2.4991708984137926	-12.618481306561723	-3.153290618768965
O	6.089816431586208	-4.613504396561725	-3.453453678768965
O	5.476138031586207	-1.045625306561724	-2.9279331487689655
O	10.315466201586208	1.113656653438276	-2.084949898768965
O	7.818094391586207	4.311991913438276	-0.3864811687689653
O	6.518750761586207	6.671108303438276	-3.0444536687689654
O	2.7326712815862075	6.649404583438276	-2.807953558768965
O	-2.4584690884137927	7.391028593438276	-3.0585584987689654
O	3.3814812815862076	9.826441293438277	11.888840361231036
O	3.6073985515862077	6.448926523438276	10.497276131231036
O	3.908565151586207	3.002695383438276	11.987343411231034
O	4.619122611586207	1.6132829234382757	8.611500491231034
O	7.480699591586207	3.5105149834382763	7.401223691231035
O	8.009266771586207	6.602768833438276	5.441382821231035
O	5.525732181586207	7.535562343438276	2.823329167531035
