39

O	21.83578679706504	10.66391445056555	21.84012300751082
O	22.339485101891622	9.587256807800106	22.722087428338526
O	22.324195745003042	13.075230943099644	22.45707520779164
O	22.281384616013064	10.012232300055295	23.880614908397508
O	21.91993123207681	11.404585347986679	23.957362191711425
O	27.931060762529643	13.250116140090794	23.382688207830668
O	21.943268387010836	11.871433308594924	22.60001635181671
O	22.402789013104552	9.191287290287573	25.051799862299806
O	22.51215327335495	10.10164658899777	20.68020278141214
O	26.429651602811493	14.803997187279911	22.245240362808623
O	20.478618695944917	10.217920764903619	21.836919107453635
O	27.228961517454806	13.162140556993862	21.054511862561792
O	22.23481528763348	10.939242916187897	19.545520704783744
O	22.2343575887238	12.074191045065573	25.202173579712674
O	23.424873186924064	12.932516453867033	25.170152605811456
O	22.961910076265635	14.21288386898242	24.77941690009879
O	23.920196396487086	15.033472642610882	24.29676471609893
O	25.269529128790282	14.63716984117222	24.370713740560916
O	25.293381068457958	13.308194872815738	23.899387702190918
O	24.282951292496023	12.424186767024477	24.166372669045522
O	22.159853345172053	12.34114397633394	19.96477080886311
O	20.930210805129267	13.1183507131258	20.00465186556976
O	19.588148394047867	12.624863844567516	19.726264171731504
O	19.660421635264303	11.22217180820072	19.357516479835446
O	20.790214372970993	10.404178606171733	19.549430690890535
O	20.129845657545996	10.375430652346777	23.399790722011755
O	26.10303072735433	15.519057704675578	23.495497845788158
O	25.201589033029162	14.296078017937525	21.569244465512266
O	25.785511304399844	13.22558526582834	20.748439489735087
O	27.187564583550547	13.583917693864713	22.437777874611804
O	25.349661901623545	11.808516538424577	20.89713280438282
O	26.127708450557126	10.984453878036035	19.895204974582864
O	27.613676623882224	11.182558402178886	19.96680776813214
O	19.17951644181992	11.198585260740519	22.75319351977161
O	19.23602448340111	12.597071863574639	22.781600631592696
O	17.916533699924805	13.180613473991569	22.561021302483674
O	16.886659556847363	12.421761707519863	23.347798191662225
O	16.833875013233705	11.081067867390068	22.689472631516463
O	18.10453181121867	10.60153755543408	22.078503299211402
