87

O	4.193298800745454	1.8921402502545452	4.433599463127273
O	4.518496300745454	0.6164307688545453	4.013120503127272
O	5.587484720745454	-0.04818946474545471	3.4211504731272724
O	6.002137480745454	-1.2954647397454546	3.7845933931272726
O	5.375860250745455	-1.9162159697454548	4.882721653127272
O	4.190768730745455	-1.2588544997454547	5.244901033127272
O	3.6271483107454543	-0.41767390374545466	4.277832033127273
O	2.5487598407454546	-0.04052115274545465	3.5378313531272725
O	1.5740208407454546	0.2848792162545453	2.7117017431272723
O	0.17735689074545435	0.40577672125454534	2.8319752431272724
O	-0.30722834525454557	1.3297867292545453	3.6963166031272725
O	-1.7154122792545454	1.3217306362545453	3.7805665131272725
O	-2.5790249692545455	0.8873882762545453	2.8414971231272723
O	-2.053432839254546	0.04892329225454528	1.8616105431272723
O	-0.6887360302545456	0.1225182312545453	1.8774863431272721
O	-0.3627896022545456	-1.2794210897454548	1.4919608031272724
O	-0.7203309612545457	-2.3530909497454546	2.3208342231272723
O	0.5976984507454545	-2.2693548097454546	2.9704859031272726
O	0.9133248207454544	-2.8455636697454545	4.118769603127272
O	2.2752349507454546	-3.2259034097454546	4.276176313127272
O	3.1469473707454547	-3.634462119745455	3.2824024431272725
O	2.9019934607454547	-3.0079648597454547	2.1384575531272723
O	1.5326481107454546	-2.7840141497454547	1.9898829431272724
O	-2.1228360492545457	0.3890283512545453	4.961467543127272
O	-2.466239899254546	1.2603632762545454	5.741013413127272
O	-1.4819558042545458	1.2409891752545454	6.833430243127272
O	-0.18286739825454562	1.0150571682545453	6.670785963127272
O	1.0000281207454544	1.3473301202545453	7.303282013127272
O	2.0052856407454547	0.8974449112545453	6.607673803127272
O	1.5387364107454546	-0.4051246657454547	5.954005213127272
O	0.31154836774545436	0.09657728225454532	5.556256363127272
O	-1.0269640502545456	-0.6492554597454547	5.208796513127272
O	-8.330101849254547	5.749273700254545	2.1697428231272724
O	-5.663524899254545	6.274567300254546	-0.48354465687272763
O	-5.199912849254545	6.949142220254545	-4.217561846872728
O	-5.247158319254545	3.987202810254545	-6.550915046872728
O	-7.450557189254545	-1.2919193397454547	-8.337642776872729
O	-4.112480909254546	-0.8035554397454547	-6.612720186872728
O	-3.0880721492545455	1.6548031702545454	-3.9817443668727273
O	-0.1803568092545456	3.8378124202545454	-5.129380556872728
O	2.3116252007454543	3.7946018902545453	-2.3483658168727275
O	5.6078993707454545	5.467007720254545	-2.2950065268727275
O	6.386830180745455	4.612543050254546	1.0451469271272722
O	6.812097280745455	0.7709946212545453	0.4522438851272723
O	8.320313410745454	-1.7402236097454549	-1.7080586468727277
O	5.962764160745454	-4.668362879745455	-1.9956305168727275
O	3.4804213607454546	-5.228365609745454	-4.726978576872728
O	0.8189706907454545	-7.175735339745454	-3.0557421668727276
O	-2.7146274592545456	-8.016662779745454	-4.334772956872728
O	4.174323200745454	-8.869935159745454	6.391819033127272
O	2.8831927507454544	-7.996408709745454	9.903885303127272
O	-1.2239117522545455	-8.023891979745454	8.601575453127273
O	-1.3354738712545458	-9.763440129745454	5.235641043127272
O	0.1439847607454544	-13.140342229745455	4.264626753127272
O	3.5544614207454543	-10.268080929745453	-6.940455576872728
O	2.7383394807454544	-11.188586629745455	-3.413866626872728
O	-5.295136059254546	-10.494774329745454	5.741508303127272
O	-6.320003489254545	-8.796031329745455	8.965716353127272
O	-7.374857789254546	-5.114191339745455	8.955164533127272
O	-5.602484719254545	-4.615662809745455	5.623512503127272
O	-8.266218579254545	-3.8692647897454546	3.2148224731272723
O	-10.211915299254546	-0.6701342897454547	3.9428888131272726
O	-14.007705709254546	-0.9809420097454546	3.4822928931272723
O	-11.508603909254546	2.2018567502545454	-0.5139832768727276
O	-12.259341309254545	0.40200141625454533	-3.7805469068727278
O	-8.652365819254545	-0.8834848297454547	-3.9022581468727275
O	-7.664031939254546	-4.556155069745454	-3.9367361768727274
O	-3.9159937592545453	-4.358964969745454	-3.6666788968727277
O	-0.9518656442545457	-2.0973236297454547	-3.0126121268727277
O	1.8858375707454544	-0.9499215797454548	-5.195338116872728
O	5.049232510745455	-0.2954708127454547	-3.2841344468727276
O	7.105134990745454	2.1393394002545456	-5.354370466872728
O	10.046259290745455	2.5306611702545454	-2.9615904268727276
O	13.392348990745454	0.6718419022545453	-3.1515497968727275
O	12.986388890745454	-2.1276177897454547	2.2968045331272724
O	11.054792890745455	-4.871434089745454	0.6557993581272723
O	15.392192490745455	2.877632350254545	0.5230739041272723
O	12.398739090745455	5.137021770254545	1.2493632871272724
O	4.750909600745454	8.722273960254546	1.4778347451272724
O	1.5413818007454547	8.546916520254545	-0.5438339568727276
O	0.42850761974545437	5.569030060254546	1.5781841191272723
O	-0.0190251952545456	7.737774110254545	4.573187623127272
O	-2.8361587992545454	10.144283540254547	4.985020903127272
O	-1.4818997062545456	12.986092070254546	7.182080643127272
O	1.6366040907454544	11.993140170254545	3.4807865131272724
O	-1.1725410462545456	12.408388070254546	0.9991234271272723
O	1.2227737307454545	15.690682270254547	-1.5558265568727276
