39

O	28.98684731540167	12.089028638863242	23.69360893543232
O	28.560129159278667	14.555980479212497	23.461303281032787
O	27.053100716138943	15.25017942762083	22.12305217377418
O	27.69564749755453	16.160198138708516	27.431070319442078
O	29.973579576762653	13.148424680691988	23.718171136623035
O	26.178313484399848	16.427900509769426	26.686223856115184
O	27.555596081233045	15.164462432135831	28.46807261257986
O	30.93930993863829	12.623879924906038	24.45197593372116
O	23.275961636741922	10.099054103588543	23.318523382577304
O	28.51125787289417	15.271893263493693	26.484128166107414
O	31.488215054600367	11.417188915164704	23.90752857365797
O	23.13389356837814	13.186692613601075	22.740463306837285
O	30.721882779541254	10.403364299798946	23.459738732911344
O	22.15550015270663	13.0262966570251	24.715177534645004
O	29.441742133290216	10.766615152997458	23.44873330212983
O	24.166103384622758	8.380399192927808	22.030395045734583
O	29.807819750327223	14.31899060415124	22.857892462825887
O	27.292223063044574	14.370164258776786	23.013726877557346
O	26.468594652907736	14.031225979749411	24.123073780304516
O	25.373845790781274	13.418003432374718	24.418508360185903
O	24.21228933328788	14.039485517323628	24.877542735729893
O	24.431312028800548	15.076826042785203	25.788957681189466
O	25.686471288642426	15.279401077912125	26.0772034825644
O	26.694722222123062	14.651952685771615	25.352469374519046
O	28.612487217409438	17.568399750306014	27.321549870263503
O	25.826887427283324	17.598613618310225	25.85832385780874
O	29.746658881005875	14.50629506847945	21.435232562562074
O	23.00371446939328	13.719674447775127	24.067416745245147
O	22.789407492406347	11.95469065166231	22.179802590589503
O	23.814112642685675	10.822999730535813	22.144429310071686
O	23.680996703376284	9.526836564970806	21.463617315883
O	25.052644494608092	11.379374705050019	21.732656769979524
O	29.142174621153906	11.458247891174853	20.3873104275459
O	28.2664915018592	12.48371055095866	20.455410579934302
O	26.982239611953464	12.36772882171459	20.840446673596578
O	26.256236418217348	11.17864999588624	20.971569007029785
O	27.28991680464511	10.281671229780116	20.91726333036863
O	28.531474985898214	10.269211493050088	20.367102592214962
O	30.939790749848537	9.112058303403959	23.852512392158086
