89

O	4.938539692051725	-0.6828748784655172	-2.6250312179482758
O	5.031579962051724	-0.16963990846551735	-3.924181439948276
O	3.856815612051725	0.01870702153448267	-4.6113928899482755
O	2.7204513020517247	-0.7396607084655171	-4.244207789948275
O	2.5605748120517244	-1.284251208465517	-2.975077998948276
O	3.7729538520517245	-1.3597595684655173	-2.407005621948276
O	1.3872869920517246	-1.1312761784655172	-2.021052313348276
O	1.3861003820517244	0.3045780115344827	-2.114272565248276
O	0.6190237180517245	0.9542316875344827	-1.1106581099482757
O	0.49675824405172453	2.2748524165344826	-1.7276790569482756
O	1.5474753520517244	3.329612271534483	-1.6877877059482758
O	2.7068369220517248	2.690386161534483	-2.844835397948276
O	2.601733492051724	1.0807391765344827	-2.2290531739482757
O	2.6997948120517243	3.2976887615344825	-4.170616229948276
O	4.204359012051725	2.915946271534483	-2.739111723948276
O	-0.4032421869482755	2.6423163115344828	-0.6886682499482757
O	-0.7178539059482756	3.9947553815344827	-0.9053585099482757
O	-0.7574100679482756	4.062621251534482	-2.304280347948276
O	-1.2045895599482757	2.9045113615344826	-2.966860205948276
O	-0.8736205009482755	2.9252455815344827	-4.282613999948276
O	-0.36819897834827553	3.9292451515344826	-5.018917549948275
O	0.059206021051724456	5.0203323015344825	-4.273410309948275
O	-0.18525506004827552	5.114290241534483	-2.9345907689482758
O	-0.7620410129482755	1.4909569114344827	-4.742521479948276
O	0.6260866370517245	1.4779613352344827	-4.850066369948276
O	-0.5306771049482755	0.24649103153448282	-0.9471434799482756
O	6.0919113120517245	0.7997859355344827	-4.0464405999482755
O	6.498680332051725	-1.6943359084655172	-2.1373022466482756
O	-2.0778547179482754	1.4807440043344828	-4.819467459948276
O	-0.9281997869482755	0.4543632775344827	-3.8245165099482756
O	3.8688755120517246	0.6861840205344827	-5.809117339948276
O	7.597040332051725	-3.735610838465517	3.9515510800517246
O	6.099208572051725	-5.784875048465517	6.788337230051724
O	4.3740311520517245	-9.064116118465517	5.958098520051724
O	4.044460652051725	-14.218846118465517	2.8036676600517243
O	1.8331564720517244	-11.205255818465517	2.282762400051724
O	2.6045782620517244	-7.510623738465517	2.5400329200517247
O	0.3936391680517245	-5.706294528465517	5.077560830051724
O	-0.7656037789482755	-2.575386888465517	3.0925988700517246
O	-3.179278297948276	-0.14462817846551723	4.799643610051724
O	-2.7793048979482755	1.9823309355344827	1.6372909700517244
O	-4.604920267948275	-0.24373382846551728	-0.8909179899482758
O	-7.651327497948276	-2.4431488984655174	-1.0290917399482757
O	-6.848550517948276	-5.559146938465517	-3.0439569639482755
O	-5.721709657948275	-8.979957718465517	-1.8944886089482758
O	-3.2909704779482754	-9.829987518465517	-4.744753619948275
O	-5.056275607948275	-3.830422818465517	-14.079426719948275
O	-3.2644335379482756	-1.8504692184655172	-11.420692509948276
O	-0.6854698229482755	0.7548323585344827	-12.548274619948275
O	2.279529922051725	-2.0709123984655173	-12.064169519948276
O	0.6743801820517245	-5.475968428465517	-11.765680249948275
O	-6.237362697948275	-11.207089018465517	-7.7665875799482755
O	8.690014672051724	-3.225989948465517	-10.596074509948275
O	6.141686432051725	-4.767132748465517	-8.208776239948275
O	7.9762036520517245	-7.589251768465518	-6.457196939948275
O	11.053776342051725	-6.594596038465518	-4.445991119948276
O	6.7918944020517245	-11.461308918465518	0.34601566005172435
O	1.5777174620517245	-10.891983218465517	-2.3790830039482755
O	-0.17608075894827552	-7.907453598465517	-0.8696095199482756
O	-3.0526171179482757	-7.555885158465518	1.6052179100517243
O	-4.910911587948275	-4.303035088465517	0.9453387100517241
O	-8.184370827948277	-0.043054858465517265	3.043273870051724
O	-11.780173057948275	0.44069503553448275	1.8418036300517242
O	-13.632159757948275	-0.8003537484655174	-1.2381676059482758
O	-10.230648587948275	2.3713117665344825	-3.858958679948276
O	-10.372142657948276	-1.3146990884655172	-4.788622689948276
O	-13.579213957948275	5.735583771534483	4.151974820051724
O	-11.394723257948275	5.114537301534483	1.0892853500517243
O	-7.747801827948275	5.395548041534482	2.1393566500517247
O	-7.385067577948275	5.6572764115344825	5.946180720051724
O	-1.8316783879482754	6.313798321534483	7.075582740051724
O	-0.06965683694827551	3.866926611534483	4.777736840051724
O	2.009933642051725	0.8764931025344828	5.901851990051724
O	2.8397831520517247	0.17829113153448284	2.370893660051724
O	4.754959782051725	3.437998251534483	1.8289065300517242
O	8.279117402051725	3.6436865615344827	3.514164430051724
O	8.627411642051724	7.346732751534483	4.044097130051724
O	6.831420732051725	10.137275121534483	5.849140300051724
O	5.738414952051725	11.940351881534482	2.6654392100517246
O	10.244598642051725	13.081263381534482	1.1961844700517243
O	8.004975112051724	15.251796181534482	-0.9370870799482758
O	4.612541522051725	14.290324381534482	-2.1968885599482757
O	2.3039205920517247	15.668712881534482	-4.877320189948276
O	-0.5521656269482755	13.527020381534482	-3.4587948899482757
O	1.5393658120517244	9.914304691534483	3.6747876600517246
O	2.3232567420517247	8.549102171534482	7.1058172300517235
O	4.370344642051725	5.628658501534483	5.834231740051725
O	6.147360132051725	2.856411051534483	7.717980530051724
O	4.225896712051725	3.9299552615344826	11.963805280051725
