28

O	25.566686687129007	9.480860107736234	19.533086873451033
O	25.733591141747763	10.384481960027706	18.569768910755045
O	24.886401863846267	11.40437151898836	18.443044900580407
O	24.62635161029127	12.013015944854509	19.631613791673363
O	24.42598223054286	11.113752499230625	20.63814515372242
O	24.910401987505836	9.84671154874281	20.723969141986455
O	23.13237579752959	11.134804906727144	21.235992249003253
O	22.08058967091248	10.725787025859413	20.287964622433467
O	22.941792203134824	12.558216301020867	21.38819301779815
O	23.62124012399107	12.799119094673133	22.78837508203565
O	23.55098800473048	11.627431439641914	23.616212034261697
O	23.648469004517374	10.30574272229158	23.253340914400113
O	23.045207134665	10.050073072663857	22.1977366206594
O	23.119265810539975	9.574222797410261	24.41875394686437
O	26.901187519529692	9.180213011814914	20.062469129612353
O	27.56670691419212	10.360465532475793	20.12494607400304
O	27.75379464212151	10.165107069170517	21.599152985814115
O	27.49610473208449	11.431273286882021	19.4369493672545
O	26.938825830124728	10.242966592136417	22.642800507260635
O	26.723338945572348	11.55174348589632	22.98030852524233
O	27.85999452519616	12.271050386015006	22.631583181371607
O	29.096448455865033	11.924446871577011	22.060742662718432
O	28.964361729399585	10.648606547978167	21.59491339434076
O	27.756633259451203	13.59159334400261	22.757194688095456
O	27.41089176669407	14.719678671686903	22.406305916817818
O	21.677302358142132	12.711063366350238	21.831028282420554
O	20.84585200730887	11.166811184851245	20.6822082000763
O	24.753945396244603	13.280114293101716	19.988741038905232
