34

O	22.863188247046477	12.481286555507687	23.027514751357167
O	22.084828189368864	11.595592310664957	21.987748140816723
O	21.846952932118374	10.425043199206996	22.76684011748347
O	22.249965594079413	10.495597643909628	23.964427382933742
O	22.317042948106675	11.914948051141582	24.18738117218159
O	23.36522626384687	13.630026953024199	22.729340977658115
O	21.14080829683369	12.569278989897278	22.087342440078025
O	23.39265941844215	10.389898496798512	20.34753191432203
O	20.464198656128776	12.904800881155746	23.350632557662877
O	19.113150871049008	12.530715169081398	22.858838089781962
O	22.346765705936637	11.03829013085408	19.42678005033017
O	20.92834606865688	10.959348814041764	20.01081786981631
O	20.366258320659085	9.603769837380423	19.935876391853046
O	21.858037199922666	9.02830513374221	19.512772908393494
O	22.308257863557643	9.426979003314854	20.927813356658437
O	18.549015451001097	13.215665291141857	21.731114318057184
O	17.24628967432814	12.596400170690268	21.372997275160685
O	17.53082444526355	11.254659418475875	20.764752283013934
O	17.99063177956885	10.467660130220253	21.939204585354375
O	19.194448770471134	11.120587170512556	22.49753381125661
O	22.02665304714176	9.52368078400336	24.99935433121736
O	20.329194437168688	12.02611093153233	19.449786031597295
O	23.096854280067106	11.684118666378765	20.95786222965196
O	22.35354234759096	12.488631960470611	25.479807464123933
O	21.232900306413946	13.16451978142592	19.272109426984105
O	22.50439935130243	13.3591682253262	18.87694198122677
O	23.426317983563024	14.300795194426767	19.43681094839862
O	20.928655707781168	14.268982482608799	19.81291882348157
O	21.666003211072702	15.001844360333493	20.711958486316043
O	22.94733965212382	15.288624053153056	20.244210594937535
O	23.268138041005987	16.594541080595267	20.47576167136288
O	22.335913942266913	17.464097515320326	21.091894030595277
O	20.98517098789714	17.042158415874955	21.275672272166464
O	20.723930071942075	15.676788384497424	21.461156478266115
