70

O	4.4618076146093815	-0.2485226204254543	-1.9247776485818178
O	4.748085574609381	-1.5611488554254545	-1.6691814235818179
O	5.841395814609381	-2.1187892254254543	-1.0900456565818177
O	6.092129014609381	-3.4506859654254542	-1.1752719015818178
O	5.534723154609382	-4.192492035425454	-2.234582028581818
O	4.551781094609382	-3.474498625425454	-2.9468158185818174
O	3.897963434609381	-2.548492475425454	-2.189566728581818
O	2.4811274546093816	-2.463186745425454	-1.8844952885818178
O	2.0458766546093816	-1.1858363554254543	-2.280117988581818
O	2.1678632946093814	-0.8520591654254543	-3.735227568581818
O	0.9548978546093816	-0.6138491164254543	-4.406278698581818
O	0.5020560666093816	-1.7042215454254543	-5.205577498581818
O	1.3173042546093814	-2.663355635425454	-5.732573808581818
O	2.6764925046093815	-2.402846255425454	-5.563122658581818
O	3.0702246846093817	-1.3537016454254545	-4.6548628885818175
O	-0.49676059139061846	8.339117304574545	-8.651305348581818
O	-3.3035690853906186	6.242853194574546	-7.209320548581818
O	-2.6132333053906187	6.525709814574546	-3.5146588085818182
O	-4.068435305390619	8.161788014574546	-0.4118383665818178
O	-6.753167125390618	6.339771194574546	1.528143991418182
O	-11.710204555390618	2.9067818145745457	1.7619182114181824
O	-8.212509785390619	1.7656215645745457	2.622300191418182
O	-4.835882585390618	2.665060004574546	1.0529538614181821
O	-2.4555762653906186	4.146488674574545	3.6407450814181823
O	0.7924942366093815	2.332817474574546	3.0816218114181826
O	3.9250854146093817	2.860642244574546	5.136944931418182
O	5.8326244246093815	0.5340021015745458	2.8623670714181824
O	4.056027584609382	-2.748109625425454	3.913172061418182
O	2.7589644846093817	-4.480911235425454	6.946566461418182
O	-0.4918707493906185	-6.256802955425454	6.074087721418182
O	-4.051714905390618	-5.068585615425454	6.559445501418182
O	-5.715267835390619	-6.605415765425454	3.4902076214181816
O	-9.11396596539062	-5.919445835425454	1.9835232714181823
O	1.6655468446093815	-11.753838605425454	-1.640563591581818
O	3.3891671246093815	-11.493020105425455	-5.035867698581818
O	-0.15479864790661846	-10.037280005425455	-6.618442178581818
O	-2.9943765953906185	-10.741873305425454	-4.221587408581818
O	-4.079980245390618	-13.954303905425455	-2.520397738581818
O	-7.413865495390619	-9.048775235425454	8.224373311418182
O	-6.314161055390619	-10.728117005425455	5.0216192714181815
O	-3.6410788253906183	-9.511939645425453	-10.372762368581817
O	-2.8625118153906186	-5.845740135425454	-11.109776948581818
O	-3.6634517753906186	-5.067393115425454	-7.462235068581818
O	-6.740815475390619	-2.899497955425454	-7.511898388581818
O	-6.412750055390618	0.3644492649745457	-9.459385788581818
O	-8.580513285390618	4.767205414574546	-7.039838678581818
O	-11.75224525539062	4.470950764574546	-4.933632138581818
O	-9.898581285390618	2.223022894574546	-2.4174504185818178
O	-7.942547615390619	-2.4533849154254543	0.6329324614181822
O	-4.500261875390619	-1.6123365954254543	1.9605745514181823
O	-3.3283540053906187	-0.6555490444254544	5.459610851418182
O	0.28587809160938155	-1.7181840454254542	5.915629401418182
O	1.7327198246093816	0.5260257745745457	8.616669521418181
O	5.284594914609381	-0.8198939454254544	8.702114101418182
O	6.7113136446093815	-3.467184565425454	11.037831251418181
O	11.092531444609381	-3.437803415425454	9.247258701418183
O	10.405457544609382	-0.7780978554254543	6.648228691418182
O	10.586947644609381	2.773409274574546	7.923775471418182
O	9.725526274609381	6.341304344574546	3.566171111418182
O	6.858355434609382	4.884884494574546	1.6314397714181823
O	3.4162443946093815	6.353364874574546	1.0717676414181823
O	2.4764278346093813	3.5161782245745457	-1.1345575455818178
O	5.0086796946093814	4.5757472045745455	-3.832543918581818
O	4.236934624609382	7.494747504574546	-6.0429693985818185
O	7.740790024609382	8.684048104574545	-6.968912008581818
O	12.69591004460938	7.322023584574546	-11.188342148581818
O	16.19940014460938	-1.5443207554254543	-4.2690338585818175
O	7.312955384609381	8.168257414574546	-2.057917258581818
O	4.1298997046093815	10.175554854574546	-2.0257087685818176
O	5.781974584609381	13.185977794574546	1.336952491418182
