27

O	27.528041372468927	12.296447744762556	23.371451719478905
O	26.521242478329363	13.2567438645887	23.63835231622778
O	25.421724471190817	13.035040250019861	22.79691766218156
O	25.549304007003926	11.823915532736684	22.19333648091054
O	25.78705706749202	10.859539884174815	23.125278350532522
O	27.008545565235618	11.032265938118577	23.551959448742974
O	26.286133327733776	12.116172390482731	20.936422837348076
O	27.26029759759855	11.073736824555692	20.705788428040915
O	26.211799912058364	13.05524235184583	20.181439705469366
O	28.874097968051387	12.587777343362852	22.839826436239864
O	29.16204195782407	13.342610489673017	21.893356999013125
O	26.46753613376063	10.158161495369821	19.84818868901132
O	26.496117773346775	10.858031713558116	18.723941442713063
O	25.232191305067037	10.746430893763547	18.10401645268074
O	24.266660120852304	11.118828798327414	18.91956162088581
O	24.232808894373342	10.317615964035614	20.072472661355047
O	25.295481445655874	9.743146045077534	20.586387541957006
O	23.045273922497604	10.560877870756748	20.848675875802616
O	22.0806641598645	9.953264664136455	19.803364979226185
O	22.403776842738562	12.249422281722277	22.54524413903814
O	22.927523944603635	11.421524338605549	23.644119599156934
O	23.044128396036676	10.072941391343301	23.236387072846988
O	23.041635504783457	9.799367083872687	22.04862051271249
O	22.95244706007942	9.383737731772875	24.48826814370294
O	22.869781462806216	11.950446176146457	21.01162409332327
O	23.19819052636534	13.140778130283469	20.630658054968773
O	23.16942501740175	11.736042584483759	18.50302452050572
