24

O	27.502072658174985	13.884810205161322	23.398009154110714
O	22.30419080747653	12.351792896719001	21.489510393000856
O	22.667286093264885	10.998182432939254	21.060887105862147
O	23.48448100692658	12.955359783562379	21.87406785428963
O	23.0647798553474	10.13775632074265	22.22026558565012
O	24.324340307541153	11.900580580665268	22.32878890083374
O	23.802673283922694	10.837513313796357	23.08257081238493
O	23.774759731864407	10.782679539413303	24.466938449043255
O	22.154779720452055	10.239045375652516	19.927030930419903
O	23.946806543768595	11.432854776442172	20.349378055290437
O	24.737394484230457	10.354386361830644	20.260931124531982
O	23.89798549919477	12.3342857186874	19.335123577856187
O	25.634322839621092	10.293270556558921	19.249047769061477
O	25.066026077541203	12.561074949394497	18.666064826576918
O	25.74968507122106	11.355632644616708	18.416274535919115
O	26.610243232320105	9.605115200605173	20.07151468959893
O	27.558146330012487	10.488267796483237	20.266022037315995
O	27.485684307758795	11.72065831608178	19.83513821486346
O	27.85890457229453	10.219511982111586	21.711626238053483
O	27.10006844553601	10.25780262343352	22.77957062887304
O	28.94096291003105	11.007439102031174	21.77439490782864
O	27.005519160902075	11.416940064643605	23.456835576639644
O	28.75557560617939	12.309620540159568	22.27549362707822
O	27.351583811298227	12.454382911866361	22.537158520986
