104

O	-0.2298885288166661	-6.349110136216667	0.9441380873283332
O	1.493391642183334	-5.295157356216667	3.410787119328333
O	2.306283532183334	-6.603102206216667	1.7456490993283333
O	-1.425188100816666	-6.461012926216667	1.7519882193283332
O	-0.12222266581666608	-1.6521721362166666	2.745870839328333
O	-1.0771991328166661	-3.1003999762166665	4.1738600893283335
O	-1.4459808578166662	-5.210117596216667	2.2907017793283333
O	-3.627804967816666	0.23082933378333337	1.2701250993283333
O	-1.443677353816666	1.7462321637833336	2.6017272093283332
O	-0.9906630978166661	-3.9442678762166667	2.054572799328333
O	-2.753987067816666	-1.4678720462166668	3.044230349328333
O	0.17478123218333386	-4.055565386216667	1.4328776653283333
O	3.9262970421833336	-3.6778671362166664	2.2472667693283332
O	0.6718829921833339	-5.298475816216667	1.246157408328333
O	1.8934423721833342	-5.453046616216667	1.992832899328333
O	0.8173535521833338	-4.408137996216667	4.457631889328333
O	0.957813602183334	-4.876107486216667	5.821645269328333
O	2.415753572183334	-5.394136816216667	5.349991619328333
O	2.693698742183334	-5.198588786216667	4.010649139328334
O	3.487382882183334	-4.665391506216667	2.842484949328333
O	-0.5104988678166661	-2.9376125862166664	3.079402569328333
O	-0.4971960118166661	-0.3487134660166667	3.174903139328333
O	-1.295506939816666	0.42323849778333333	2.127566229328333
O	0.8216791521833339	0.45731675078333334	3.072659369328333
O	-4.648560827816667	-0.04040112121666667	2.208090469328333
O	1.788336742183334	-0.47750197401666666	3.687812619328333
O	-2.880381207816666	0.3319871787833333	3.610452719328333
O	3.128060792183334	-0.6016662032166666	3.518484349328333
O	3.950602272183334	-1.4598989762166665	4.235494549328333
O	3.349359512183334	-2.3138676962166667	5.0868955093283335
O	2.142855492183334	-1.9701638662166667	5.510198149328333
O	1.3518797521833341	-1.1279300982166667	4.800373569328333
O	-3.917623727816666	-0.5625574082166667	3.521920309328333
O	-2.560931437816666	-0.14246603121666668	2.076031819328333
O	-0.8291199211166661	-7.662372796216667	2.570085059328333
O	-3.468092287816666	-2.266911776216667	2.238600909328333
O	-4.631803067816667	-2.2261529762166665	1.4833392153283331
O	-5.953858997816666	-2.5167247062166664	2.115952899328333
O	-5.643366657816666	-2.8639988462166666	3.467752849328333
O	-4.813138147816666	-4.012240066216667	3.396880039328333
O	-3.723595157816666	-3.6277543362166664	2.5155641293283333
O	3.108272382183334	-3.0123324662166664	1.4195689123283333
O	1.6619279021833342	-2.1492174762166667	6.801062279328333
O	5.234180792183333	-1.7849555462166666	4.067146829328333
O	6.810571392183333	-5.097514366216667	-4.494686260671667
O	7.554456332183334	-6.907103106216667	-1.266754990671667
O	8.756808622183334	-3.8423555962166667	0.6507944646283331
O	7.005004272183333	-1.1258803202166667	-1.213503370671667
O	8.044514482183335	1.6452322637833334	-3.5678926306716674
O	9.217168862183334	5.064600593783333	-2.3224107406716668
O	8.397441692183335	8.143227543783334	1.513919951328333
O	6.278583832183333	5.082477113783333	0.5625501513283331
O	3.9971014721833344	5.775711563783333	-2.387369500671667
O	0.633096032183334	4.366959533783333	-1.2912202206716668
O	-2.4642149978166663	4.699777303783333	-3.5231759706716668
O	-4.2700373378166665	2.5785721137833333	-0.9659326106716669
O	-4.465774147816666	5.113204463783333	1.9087673293283332
O	-4.934496937816666	8.837844853783334	2.435979929328333
O	-2.581963597816666	10.006232273783334	5.196672379328333
O	0.8667090621833339	11.534882373783335	4.948261149328333
O	2.619589492183334	10.044742373783334	7.982533409328333
O	-4.3764178778166665	3.6468765337833333	12.532074069328335
O	-4.662126867816666	-0.10166808021666668	13.174337069328335
O	-0.5783976608166661	-0.16941982621666668	13.488556969328334
O	0.788903732183334	3.333601043783333	13.939969069328335
O	0.9563891321833339	12.714605873783334	11.129346469328334
O	4.995919212183334	-3.6032294462166665	12.872669269328334
O	4.7057668321833335	-0.5198359882166667	10.600391319328335
O	8.280440582183335	0.16355897978333334	9.559532809328333
O	9.886947162183334	-2.5873764562166666	7.499263659328333
O	12.692371762183335	-0.9914550012166666	3.149198699328333
O	11.536433562183335	4.344708373783333	3.6960286793283332
O	7.118238642183333	7.526787313783333	6.013179749328333
O	4.065810022183333	6.930099533783333	3.858311059328333
O	2.367063852183334	9.194164413783334	1.244618635328333
O	-1.343594416816666	8.253946493783333	1.1030367043283331
O	-6.215258597816667	8.134167783783333	-2.090840580671667
O	6.399468132183333	0.7136045037833333	-10.667828230671667
O	-13.751757737816666	8.439366683783334	-4.722273210671667
O	-12.479290037816666	6.835861753783333	-1.5257052706716672
O	-10.003857487816665	4.125505463783333	-2.510505620671667
O	-9.159270597816665	4.138143963783333	-6.221638750671667
O	-5.621143047816666	-0.22998425821666668	-7.285049320671667
O	-3.176197997816666	-0.2096429842166667	-4.446461270671667
O	0.5295793221833339	0.4309515837833333	-4.694148660671667
O	0.850333342183334	-0.2966988542166667	-0.8912668806716669
O	-0.10351511981666606	-3.7281120462166664	-1.697539080671667
O	2.348495542183334	-6.405621286216667	-2.802576310671667
O	0.1219048721833339	-9.047303826216666	-4.249228000671667
O	-2.700918157816666	-9.324288556216667	-6.725726030671667
O	-5.343566257816667	-10.240135986216666	-4.229069960671667
O	-1.505312630816666	-13.940932726216666	-6.071398740671667
O	-3.346346997816666	-14.457147726216666	-2.796562510671667
O	-6.770829607816666	-14.564449526216666	-1.260355910671667
O	-8.846631877816666	-11.677676126216666	-0.2020226316716669
O	-11.873044737816665	-11.222950826216666	2.091503839328333
O	-11.853984937816666	-7.446086966216667	1.3095317803283333
O	-6.5561891078166665	-5.632194196216667	-4.973575530671667
O	-4.360036067816666	-4.759682216216667	-7.810156190671667
O	-1.195163961816666	-4.508662836216667	-5.773870580671667
O	2.314316192183334	-3.7185846262166664	-6.784216600671667
O	3.033017532183334	-6.919438386216667	-8.672473280671666
O	0.251611132183334	-6.096390316216667	-11.081140530671666
O	1.1152827021833338	-2.4475922062166666	-11.242452630671666
