27

O	21.74477904501725	8.344218659540118	19.069342860469
O	23.00034980509518	8.801135478895233	19.09577303856947
O	22.55144097976665	9.832739199655087	18.213733353929275
O	21.41072953052711	10.58004369087273	18.764347607916843
O	20.803096250126053	10.413952840239972	20.086698035970972
O	20.755306708427486	9.055534675261146	19.860108641523045
O	21.445882385445152	11.029276050208814	21.337852759800878
O	22.540602795097517	11.561222099309711	20.555085229927435
O	22.330102314066657	12.379506125947051	19.399540505250428
O	23.325578100115134	12.711323955727497	18.443433756580106
O	24.623179589095724	12.55608583008789	18.947148112022095
O	24.875958749717142	11.988235266456693	20.202540454632782
O	23.854362642052813	11.015602934486344	20.371293743560432
O	24.03282107618305	7.983972116232904	18.735169507692586
O	23.65865514984563	7.405141730287537	17.514308791074065
O	21.513432882960874	9.922324923738149	22.23725903999838
O	21.74039516276784	10.1295800851871	23.476870219657293
O	21.540947021844374	11.469530898313764	23.626560269249644
O	20.802805119803484	11.864798118702367	22.364653118022918
O	21.601807059341677	9.527131894896018	24.79139797604929
O	25.149971901620013	12.877065862753746	21.452290632220556
O	24.529132103257925	12.241711596083158	22.61969831262641
O	23.880640446462166	13.000616170831965	23.56641898746614
O	23.374757709308884	14.248499769739915	23.374716799419694
O	22.925302595716154	14.274014371364881	21.983495558513376
O	24.272698634171903	14.039609862440324	21.276570986726043
O	24.279467397007693	10.831235128433157	22.561860195169878
