78

O	6.0964462256116665	-0.001938151713333558	2.6038863517066666
O	4.661376495611666	0.2424458202866665	2.783527971706667
O	4.709919375611666	0.49642312928666643	4.234128041706667
O	4.659116115611666	-0.6027044837133335	4.9967968917066665
O	3.7949249756116665	-1.7688676137133335	4.720383701706667
O	3.3687446556116667	-2.089530513713334	3.445384471706667
O	1.8504321456116666	-1.9750229337133336	3.4482442317066666
O	0.8317855956116664	-1.4352042237133336	2.692283241706667
O	-0.17133036338833346	-0.6314234037133335	3.447913611706667
O	-0.5168855292883335	-0.7773458537133335	4.753988711706667
O	-0.2270897433883335	0.2051480262866664	5.734050631706666
O	0.14125300261166657	1.5225680262866663	5.298841871706667
O	0.9489826456116666	2.5703853862866666	5.800344971706667
O	1.1847652156116664	3.2665196462866666	4.673955601706667
O	-0.009519899388333475	3.1126202062866666	4.031254851706667
O	-0.1063648713883335	1.7671702922866666	3.9821100917066667
O	-0.2110963883883335	0.7296316842866665	3.0583773417066666
O	3.8514215856116665	-0.9121628237133335	2.5750883417066666
O	-7.922399054388333	7.8124644662866665	-5.7276817482933335
O	-7.161550904388334	8.006651926286667	-2.0600165082933333
O	-1.8132209643883335	9.979175216286666	2.348722201706667
O	-3.230010024388333	8.478685946286665	5.468772071706667
O	-4.885396404388334	5.455426596286666	3.823460901706667
O	-3.069938684388333	5.365026376286667	0.46508837370666667
O	-3.4463691743883333	5.902687506286667	-3.1206465282933333
O	-4.914995184388334	3.1815255462866663	-5.278927718293334
O	-8.794824594388333	-1.3339628637133336	-6.210536498293333
O	-5.0899606243883335	-1.7310504837133334	-5.598058108293333
O	-2.7240317543883332	0.22527219128666642	-3.4070313682933335
O	0.15397370261166649	1.7748128122866664	-5.376466998293333
O	3.241608745611667	0.9032057250866664	-3.345235978293333
O	6.751342085611666	1.8234927212866663	-4.441703498293333
O	8.142807315611668	0.4323437962866664	-1.2921100882933332
O	7.387207295611666	-3.318557443713333	-1.8508950582933332
O	7.568161245611667	-5.821055683713333	-4.712615668293333
O	4.555654575611666	-8.125662293713333	-4.4029687482933335
O	1.2577812256116665	-7.9270115137133335	-6.265300268293333
O	-1.1023415163883334	-9.260446333713332	-3.578013798293333
O	-4.884978024388333	-9.162126133713333	-3.442651568293333
O	4.688978585611666	-11.614792833713333	4.646463421706667
O	5.0276185356116665	-10.361075733713333	8.243504291706666
O	0.9717044856116666	-9.458590233713334	8.242035321706666
O	-0.6837451113883335	-11.231277833713333	5.334884921706667
O	-0.5498805714883335	-14.862145833713333	4.210257611706667
O	-0.5849924584883335	-12.815823833713333	-7.887532758293332
O	-0.44335384088833346	-13.614424533713333	-4.198784958293333
O	-3.6830035243883334	-9.205212733713333	10.437710151706666
O	-3.9706781143883334	-5.458591093713333	10.499223391706666
O	-3.3318897543883335	-5.357639653713333	6.726847041706667
O	-6.621951064388334	-4.107398673713333	5.267216651706667
O	-7.617402424388334	-0.5677322537133336	6.3344926417066665
O	-11.347171394388333	-0.020377245713333547	7.019906391706667
O	-12.637360794388332	2.5231308762866664	4.494420101706667
O	-9.425299064388334	2.7303231062866664	2.378303621706667
O	-11.518066694388333	1.2997313162866664	-0.47969562829333323
O	-8.569789334388332	-0.8391382237133336	-1.673676448293333
O	-8.469728254388333	-4.634982193713333	-1.7876734782933332
O	-4.851210604388334	-5.333095573713333	-2.639060718293333
O	-1.3544898013883335	-3.9265303937133336	-2.970946328293333
O	0.7998840156116664	-3.3442129737133337	-6.073256888293333
O	4.462374735611666	-3.581469583713333	-5.131215168293333
O	6.367487635611666	-1.5455649037133334	-7.694020208293333
O	9.891081205611668	-2.007241783713334	-6.337546668293333
O	12.476740205611668	-4.579585003713333	-7.458947348293334
O	-0.045178034388333455	11.857311466286667	-5.701509518293333
O	13.861358905611667	-0.47948963371333364	-2.7958100282933334
O	7.906689185611666	4.955637866286667	-0.6983387982933332
O	4.279802295611666	5.678192816286667	-1.6466564482933332
O	3.1053282656116665	3.1231060662866668	0.7828401843066667
O	4.535960405611666	5.383873656286666	3.627178231706667
O	2.2968996656116665	8.235809036286666	4.880213101706667
O	5.0198672656116665	10.396597366286667	6.527142251706667
O	3.459172075611667	14.074607266286666	9.330956851706667
O	8.378094365611668	10.997454266286667	12.258581371706667
O	6.459519605611666	8.919145106286667	1.9805946017066667
O	3.1662484656116665	9.953858336286666	0.5608400447066667
O	3.0989039756116665	13.441444166286667	2.1536528617066666
O	5.432957675611666	12.715271966286666	-2.757777068293333
