85

O	-1.3257329083210527	1.3413567671368427	7.021627264929824
O	-0.48265086852105266	2.5143214077368423	6.864954344929824
O	-0.4054355005210527	3.0329442377368423	5.577588854929825
O	-0.19294048752105275	4.466623727736843	5.713810754929824
O	0.22497912247894725	4.376750307736843	7.020216394929825
O	-0.6970104715210527	3.673567527736843	7.540945314929825
O	1.0016786524789472	4.9785397877368425	4.870771434929825
O	-1.2213102321210527	2.732790717736843	4.3854144249298255
O	-0.09480387752105268	2.8919691877368425	3.434216094929825
O	-0.6291223385210527	1.6611091277368426	2.627474124929825
O	0.3618193624789474	1.0800084967368426	3.553501804929825
O	0.1999627224789473	0.3474731477368427	4.705072874929824
O	-1.5989705705210526	1.0162751667368426	4.652312524929824
O	1.3093390824789475	0.20063054773684263	5.490859814929825
O	-1.9711862345210527	1.8544279207368426	2.120569264929825
O	-2.5643598375210526	0.8134672717368426	1.364503213929825
O	-3.9232620175210524	0.7979403327368426	1.064777048929825
O	-4.405306647521052	1.9519204667368426	0.6019764569298249
O	-3.8456811375210522	3.1205891977368427	1.126485567929825
O	-2.5431140275210526	2.9421708277368426	1.395201401929825
O	-4.858262747521053	-0.31387818226315733	1.303453881929825
O	-4.261664257521053	-1.5049423822631576	0.8866864289298249
O	-4.730636847521053	-2.721189412263157	1.291483632929825
O	-5.287772717521053	-2.779216962263157	2.527666084929825
O	-5.865081087521053	-1.6426173322631572	2.856978434929825
O	-5.2809895275210526	-0.4359446822631574	2.593831984929825
O	-2.018614901521053	4.154670147736843	1.8697535349298249
O	-5.759856097521053	2.0763425187368427	0.5705564549298249
O	-5.380253287521053	-8.757317792263157	0.14256134892982492
O	-8.216698727521052	-6.268032282263158	-0.01440499807017509
O	-6.728544137521053	-3.8567433222631573	-2.593903275070175
O	-3.1039487975210527	-4.844153902263157	-2.411006275070175
O	-0.43822443852105264	-6.767131302263158	-4.413136625070175
O	1.4934835224789473	-4.960857682263157	-7.1245193150701756
O	3.1545553924789473	-0.4318276622631574	-8.244718225070175
O	1.8864354524789475	-1.5235140822631574	-4.882118475070175
O	4.377994892478947	-3.6015971922631573	-2.8895969750701753
O	4.430650432478947	-1.9948848722631574	0.6112067009298249
O	6.6861846124789475	-3.241661502263157	3.385877804929825
O	5.020040862478947	-0.8059597722631573	5.729526954929826
O	6.271951802478947	2.4737250677368428	4.229226784929825
O	9.460502142478948	3.8426990577368425	2.7809698149298248
O	8.521855462478948	6.093570147736843	-0.15072453007017506
O	8.512942682478947	5.282056937736843	-3.881291725070175
O	5.536079842478947	7.411377797736843	-5.008499475070176
O	3.6056764624789475	7.353119447736843	-8.268854575070176
O	2.0061142224789474	12.312497207736843	3.4372969749298248
O	-1.1942874050210526	12.210650107736843	5.5298217649298245
O	-3.2875366875210528	11.368893137736842	2.113661414929825
O	-1.1962514213210527	12.182026207736843	-0.9910856050701751
O	0.8627998224789473	15.251802507736842	-1.910163695070175
O	7.622463732478947	11.323491157736843	-5.398783015070174
O	-7.416521727521053	11.925216307736843	-0.991608875070175
O	-8.622342247521052	8.386719597736843	-0.5231977660701751
O	-5.201560957521052	7.0720223477368425	-1.6180478050701752
O	-5.906210097521053	5.460425377736843	-5.019892245070174
O	-8.280484687521053	2.5325203877368425	-4.865511845070175
O	-10.787952077521053	2.291575799736843	-7.820068975070175
O	-10.069031227521053	-0.9556403422631574	-9.670073915070175
O	-6.861165317521053	-1.8739520422631573	-7.709555035070176
O	-5.072113477521053	-1.5638762722631572	-11.092456615070175
O	-2.0389528895210525	0.05703230773684265	-9.375406935070176
O	-0.7665083425210526	3.600467197736843	-10.014794015070176
O	1.9037168824789472	3.9737714577368424	-7.370292195070174
O	3.416322582478947	2.555101277736843	-4.1698946250701745
O	6.866588492478947	0.9889387767368426	-3.5104355750701752
O	7.8745151324789475	1.5601845027368426	0.13698653292982488
O	10.818630342478947	-0.25707137226315746	4.777185754929825
O	13.613547342478947	1.8584839237368427	6.233491204929825
O	1.5940248824789471	-13.218990592263157	-1.5504572650701751
O	12.116377242478947	1.7355377347368426	10.736162684929825
O	9.130475442478946	-0.46034982226315746	10.049995724929824
O	3.1256214524789474	-4.855825132263157	6.523706054929825
O	2.0614817124789475	-5.930350472263157	3.066499014929825
O	0.2677602124789473	-2.6309085622631567	2.6722103049298247
O	-2.2920279875210525	-3.510021442263157	5.374054584929825
O	-4.993327937521053	-6.122239842263157	4.636820664929825
O	-5.721277887521053	-7.561854752263157	8.107650834929824
O	-14.808173157521052	-6.808042042263157	10.377988004929824
O	-9.841240107521052	-10.204183592263156	8.627977734929825
O	-9.158353247521053	-6.152873852263157	13.615517984929824
O	-0.8958944175210526	-7.633389302263158	7.076966184929825
O	-1.5155233895210527	-9.330708192263158	3.7613840549298247
O	-3.9182390975210524	-11.994148792263157	5.007366284929825
O	1.4738521224789471	-12.985797992263157	4.742387294929825
