36

O	21.131537660644607	17.197163885541087	22.713330760909383
O	23.58483775615999	13.353965689882145	22.4069703525828
O	23.506140906924912	12.223130991401062	22.046138544544114
O	24.829382864523723	12.014116654997908	21.42971065585228
O	22.38145080930806	11.511791563184362	22.317832350540737
O	25.709705516588865	12.138241861008867	22.516730946484888
O	26.099416195007922	13.450725614332262	22.511148863381774
O	25.662217942223084	14.702672435228305	22.520217753708906
O	26.2709367311952	15.625232563207586	23.296760493379082
O	27.569804749680664	15.40737720282035	23.61056432853301
O	27.928394114114667	14.058969633124395	23.78354293645703
O	27.538457057580192	13.450052419625834	22.52582168938752
O	28.334430358444283	12.789810150198647	21.438292696514825
O	27.986347199943847	16.578038393550756	24.815755271642125
O	27.351287880522037	15.822848585975422	26.076659559556944
O	29.446044214187086	16.812700786584394	24.69218277251532
O	27.372773957264016	17.90050518064156	24.680387269675467
O	21.923918048259374	10.910611307276973	23.34632665623546
O	23.024041577854213	10.149109038601988	24.085865111338222
O	23.60382943029681	11.29793558301537	24.808544978162214
O	22.42263551359007	11.785571846039957	25.518476045940535
O	21.550083130478395	10.71361591981493	25.73392611979038
O	20.938127023304506	10.508076952550857	24.332887101626454
O	21.538503488224606	12.5679057766932	24.768824657529436
O	22.01644973604662	13.908149061941012	24.932754851217556
O	21.27399967490722	14.649646286052931	23.921345962569568
O	21.881846148399916	15.740457860137596	23.364517636616448
O	23.162305009861484	15.985504816849268	23.766841838087004
O	23.544683958046154	15.470121060999134	25.006252021951553
O	23.439696882209425	14.048002518225676	24.941713525181928
O	24.017388351420262	13.517186990918752	26.038387147830612
O	24.30045185117205	13.791778663919043	27.349932291351617
O	25.704349896938755	14.273355440736614	27.589468131493334
O	24.543885573771277	12.33276232543554	27.782550443153127
O	24.517181197431746	16.046229304135874	25.845734695680587
O	24.506667949215842	17.430140668832752	25.941115764423675
