88

O	2.1074564046727273	-1.3931629342181822	3.585585416326909
O	3.1961832746727277	-0.15366570821818212	5.697386066326909
O	2.349043734672727	-1.9958203042181824	6.910886686326909
O	-0.2116303753272727	-3.099051444218182	3.217841546326909
O	2.6868332446727274	-2.311094854218182	4.622144506326909
O	2.5990336946727277	-0.062396570218182124	3.457296916326909
O	3.159288444672727	-2.721875864218182	-1.938697973673091
O	3.3133789846727275	0.3988190847818178	4.409973756326909
O	3.5673388646727275	-3.025977984218182	2.630574946326909
O	2.765291394672727	-1.4764831042181823	5.830221146326909
O	-3.3185009953272724	3.924419885781818	5.726986266326909
O	0.6552234746727272	-1.6347924842181822	3.556071676326909
O	4.066492294672727	1.6271496157818177	4.3325679363269085
O	2.504139234672727	-2.0426986842181822	2.352844156326909
O	3.2581193346727275	-3.472708724218182	0.37074723632690887
O	3.9593486046727273	-2.740636724218182	3.972285546326909
O	-0.18840757032727273	-1.1030175142181822	4.465316636326909
O	-1.4764723803272726	-1.2538950042181822	4.036211716326909
O	-1.8062732753272728	-2.4917518342181824	3.492806916326909
O	4.066016654672728	-3.627523974218182	1.4601034753269089
O	-2.4937759753272726	-0.6065678352181821	4.874838046326909
O	-3.4390991153272727	2.809678915781818	5.506757266326909
O	-2.2836435553272727	0.7486146917818179	5.117723756326909
O	3.2793798846727276	0.5573248257818179	6.934567746326909
O	-3.420898445327273	1.3620532457818177	5.510176186326909
O	-3.1832744853272725	-1.2823770042181821	5.869395486326909
O	5.2660015446727275	-4.207468784218182	1.147396361326909
O	-4.3383942153272725	-0.6299590922181821	6.281891706326909
O	3.8800327846727276	-3.260668024218182	-0.8580730036730911
O	-4.163858975327273	0.7330828067818179	6.505602916326909
O	5.495104244672728	-4.682953344218182	-0.15951234067309117
O	4.5124270346727275	-4.446237424218182	-1.179700823673091
O	1.8826101046727273	-3.299864444218182	-1.9882237236730909
O	-8.364654945327272	3.213320695781818	5.543756276326909
O	-6.0017396053272725	4.976936895781818	3.1675814063269088
O	-6.179952945327273	7.347620685781818	0.19809265132690884
O	-6.521382185327273	5.834013695781818	-3.248192853673091
O	-8.781255075327273	1.7074760057818177	-7.048093473673091
O	-5.218822515327273	1.8013109757818178	-5.769393313673091
O	-3.8207874053272723	2.8006121557818178	-2.380967163673091
O	-1.2729531013272726	5.640453485781817	-2.645199673673091
O	1.6677719446727275	4.455611015781818	-0.5386898436730913
O	4.852889344672728	6.3836600157818175	-0.08909593267309113
O	6.068481694672728	3.805606275781818	2.4113604963269086
O	6.468200424672728	0.8853901787818179	-0.009688995673091116
O	7.810431924672728	0.2647591697818179	-3.512345603673091
O	5.648881434672727	-2.300399634218182	-5.302084733673091
O	2.677676884672727	-1.8258130042181822	-7.6446228536730905
O	0.5086823146727273	-4.799646674218182	-6.495223003673091
O	-3.1359445253272726	-5.5471529242181825	-7.224510553673091
O	5.679276024672728	-9.722368414218183	1.1086646873269088
O	5.155662974672728	-10.278681074218182	4.876103886326909
O	1.0822472346727272	-10.350831074218183	4.237696596326908
O	0.42870048067272726	-10.771399374218182	0.5196062753469088
O	1.7455070346727275	-13.265165374218181	-2.028726633673091
O	2.581163894672727	-5.573980744218182	-11.598084013673091
O	2.4841970446727277	-8.065904604218183	-8.756841873673093
O	-3.2842173653272724	-12.302344874218182	1.260906401326909
O	-3.710130195327273	-12.228230774218183	5.028382426326909
O	-4.974572575327272	-9.061236244218183	6.735678456326909
O	-3.954012805327273	-6.990454844218182	3.705000336326909
O	-7.284734505327273	-5.937890424218182	2.1359585963269088
O	-9.423384375327274	-3.6884260242181823	4.369318816326909
O	-13.178822905327273	-4.3058830642181825	4.272281436326908
O	-11.644418305327273	0.7123814857818179	1.9524025363269089
O	-12.834851005327273	0.5149057537818179	-1.665329813673091
O	-9.208090215327273	-0.11331594721818214	-2.822420053673091
O	-8.019233225327273	-3.2424039242181824	-4.644698083673091
O	-4.290489075327272	-2.6974244042181823	-4.822183033673091
O	-1.3895331323272728	-0.610065014218182	-3.705683553673091
O	0.9184729646727272	1.8204742857818177	-5.4689728236730915
O	4.330502994672727	1.8530882557818178	-3.8248250836730913
O	5.910599754672727	5.195061215781818	-4.543113553673091
O	9.179310694672727	4.749029615781818	-2.658551843673091
O	12.519044294672726	3.6622536157818177	-4.124410463673091
O	12.998833294672727	-1.4891013742181822	-0.7489654636730912
O	11.116235494672727	-3.160825264218182	-3.5988785736730913
O	14.931362394672727	3.9177382957818176	-0.05348903067309119
O	11.998225694672726	5.055790135781818	2.0703512563269086
O	4.4953875246727275	7.350848365781818	4.807692616326909
O	0.9894216246727272	7.8151370357818175	3.367176626326909
O	0.36230701267272725	4.049677535781818	3.986276306326909
O	0.40586193367272727	4.581222905781818	7.744606926326909
O	-2.3424691153272725	6.300541185781817	9.616859276326908
O	-0.5576372973272727	7.758381205781818	12.643603386326909
O	1.6934937746727272	9.069299975781817	8.46469051632691
O	-1.5302432483272728	10.220471625781817	6.885693706326909
O	0.21550154267272725	14.585871325781818	5.863539996326909
