19

O	22.07259212441446	8.788970581763273	24.29962106064532
O	22.509167884404334	9.85976764555653	23.526192783359566
O	23.56334586001982	10.464885721638728	23.996364715560212
O	23.395989400165668	11.905014550509623	24.023558314273533
O	22.812469308993315	12.191006191697344	22.823262251373148
O	24.379255403285867	12.68823871752063	24.272509119860292
O	22.22658632805335	11.540684356407972	21.68069771886271
O	23.271966051146407	11.878966406762046	20.583030081815618
O	23.250767236943673	10.556348134300482	20.02708313042093
O	24.11556398603517	10.754312558573117	18.87125300818408
O	24.89588869464057	11.661886259794429	18.425859478137998
O	26.381569760787904	11.648534582998096	18.66603034475767
O	26.638522164697033	11.306386651928568	19.953636490339804
O	27.240869018156133	11.917723749087266	21.12630095921247
O	26.433711396602526	11.541528210233077	22.15775227146149
O	25.156103644711365	11.478283708827547	21.481646380312583
O	25.51658293421348	10.5399654546904	20.60890808901341
O	24.893103508832006	9.664212251580404	19.548013726476658
O	21.939542345451184	10.422431412160481	22.29504695484251
