24

O	17.81687678182284	12.884112528521797	22.243136618998747
O	20.687038270696867	12.285291975040806	20.37756524931748
O	21.16469661400903	11.456161953003715	21.355359877951315
O	20.370012865900346	10.248200076744432	21.49269040353089
O	18.94487773407704	10.394194775910481	21.249799050608217
O	18.4939314727637	11.70891516894148	20.95793058912009
O	19.38115855669198	12.117393375808419	19.91566399737035
O	21.744757774865167	11.496039700478299	22.633038299713668
O	21.90281630310173	10.272031891687543	23.140820327639233
O	20.996602018967256	9.508611355787867	22.475692004813794
O	22.31324389807107	9.715193975604134	24.411546867072172
O	21.46290133201503	12.687073907836233	23.485596111080707
O	22.435124567284284	12.557064027723655	24.588211838927815
O	23.63338316813307	12.68703557412304	23.75321098916037
O	23.692216902397135	13.808378422619612	22.838236614672677
O	22.712806774441493	14.462031384400092	22.47009291764575
O	24.803097978055924	13.43795816440479	21.93982089823925
O	25.477706277620914	14.744551794099435	21.819019301265183
O	24.14602830488678	12.623794323326035	21.01351201065394
O	23.69612318446954	13.711170013651678	20.03916301923943
O	25.17060029961409	14.093286371552104	19.629635010283533
O	26.203821790512027	13.030322677152615	19.79872457831162
O	25.73691401431307	11.617087439101972	19.598628864507855
O	24.256874128318326	11.603510606361569	20.031429677037348
