32

O	24.750778950518814	13.292907966203469	22.765505680110778
O	23.896130705521262	11.23753397940651	22.051063446759876
O	27.25631244563647	13.115935471367877	18.27683475881541
O	24.71643139090348	14.851056571802937	20.857881418930614
O	24.967155939436594	12.137162052589257	21.87261753643118
O	23.331398717140015	13.701361956353685	21.08939092909918
O	24.336914607403468	15.994109618746833	19.919340658226577
O	22.592718058700004	11.591874672916608	22.4307706291604
O	24.795268596036696	15.644197233854358	22.408936201159918
O	26.10041156691413	14.729885250431659	20.58614252251968
O	22.409496942292343	12.898351099164687	23.126090370519076
O	23.43273670852142	13.791720449508281	22.566127453512244
O	21.474760407617552	11.143059114022776	21.549725096383092
O	23.495090859672352	15.24755930148411	22.878009165126304
O	22.056738274701626	14.224153324649848	20.573745931243824
O	22.02112865984023	15.175579288144311	19.542211950738725
O	21.466339738735968	16.453487740861107	19.688271915533196
O	21.187704194060764	16.810656928610676	21.009546369279562
O	20.566191830739342	15.807244361108914	21.703017329179303
O	20.96736917836018	14.486140571043606	21.408798579394976
O	23.87890005941641	10.450312370700646	20.886479288864106
O	24.54655429060171	11.137431293398379	19.713244079703415
O	25.808287356471627	11.659136207480568	19.69100230800067
O	26.051785576973316	12.511644883357063	18.673555861250573
O	24.97051476187114	13.136187581607754	18.01750891432709
O	23.699704523855623	12.643803580355433	18.060560319367337
O	23.54922502242426	11.577579707860906	18.87230033866485
O	27.329596577990163	14.12314441560779	17.299840797748345
O	26.158226648088004	15.100650047982382	17.390388217294735
O	28.556696039058167	14.968823841988392	17.39654358628615
O	25.087457574019695	17.025494554901968	22.250626719197395
O	20.00843568803026	16.116118321605853	22.92008633578254
