118

O	8.282151732042857	-2.3755979853568574	-3.433559959528572
O	6.791382612042857	-3.0728069953568573	-0.342130879528572
O	3.973469092042857	-4.274968965356857	-6.023842559528572
O	3.694229062042857	-7.046278725356857	-4.131238339528572
O	3.448030212042857	-0.3770165533568573	1.4917044504714279
O	2.541364872042857	-0.43474688335685724	0.5429761104714281
O	4.213615182042857	0.7316764456431428	1.3588083704714278
O	2.389929802042857	0.7775619466431427	-0.02498955952857207
O	3.840999342042857	2.057261214643143	1.040008540471428
O	4.084967782042857	-0.29498540335685725	-2.647684223528572
O	5.231077552042857	1.1058197356431427	-1.814529161228572
O	4.320203712042857	-1.0515235253568571	-1.629435044528572
O	5.3726190520428565	0.20918354164314276	-0.8258038395285721
O	3.4523960720428573	-1.1041333453568571	-6.232916719528572
O	2.295306442042857	-2.5591694153568576	-1.996664034928572
O	3.7949594620428573	-3.684050035356857	-3.303830399528572
O	1.866230982042857	-2.7562011253568572	-4.158916199528572
O	3.802124782042857	0.5800651846431427	-5.548969289528572
O	7.361987512042857	-1.285067965356857	-2.899634622528572
O	5.477244752042857	-4.203846595356858	-1.563896221528572
O	0.5238776830428571	-0.5976471493568571	-3.8011723395285717
O	5.967884542042857	-2.3575499253568575	-5.115484259528572
O	1.009730427042857	-5.768371695356858	-4.404162019528572
O	2.4561870020428573	-5.672843685356858	-2.765721480528572
O	0.07588612704285713	2.653387354643143	-2.928668979528572
O	2.364661262042857	2.7004485646431426	-1.156566977528572
O	1.5887325990428571	1.5484869846431428	-4.610306479528572
O	4.341701272042857	-3.749544065356857	-1.1390440345285722
O	1.3692874780428572	-0.6328702593568571	-2.980526869528572
O	5.495142552042857	-1.3491617453568572	-4.557609759528572
O	4.323282092042857	0.9464419956431427	-2.7143319975285722
O	2.9466245720428574	2.057980594643143	0.033819250471427864
O	4.502208332042857	-0.6420842553568573	-5.526074399528572
O	3.4590573920428573	-3.2233233553568574	-2.125509607528572
O	2.0842884420428573	-1.832041395356857	-3.1881052295285723
O	5.251410312042857	-1.0812768553568572	-0.7813987495285721
O	3.0174615220428573	-3.4005654353568575	-4.328683169528572
O	5.646713732042857	-2.2713099253568574	0.07238704047142797
O	1.2062887250428571	2.105580254643143	-3.383926969528572
O	1.927206362042857	1.7624501246431428	-2.213776843528572
O	2.317467982042857	-0.3625251823568572	-6.1544828595285725
O	4.391426492042857	-3.0621833553568574	-0.04373740952857208
O	1.553368112042857	0.41086064034314274	-2.077389403528572
O	2.968634752042857	-4.550262065356858	-5.096833539528572
O	2.468853462042857	0.5704993286431428	-5.104654349528572
O	6.580992512042857	-0.7724719153568571	-3.990260129528572
O	2.428104392042857	-5.971529035356857	-4.307466019528572
O	4.415728062042857	1.8050437346431427	-3.7237512195285722
O	5.623592682042857	-1.4679687653568572	10.873105140471429
O	4.984904852042857	-4.664032975356857	8.89994944047143
O	3.5300687420428574	-5.760353525356858	5.541344440471428
O	6.7829231920428565	-5.9383443653568575	3.7924814704714276
O	8.001706012042858	-2.4116748553568574	4.869902500471428
O	4.548933162042857	-0.7503421253568572	5.368836940471428
O	2.574719182042857	0.5212333876431428	8.499528740471428
O	2.970906102042857	4.089355404643142	9.752760940471429
O	3.952407862042857	8.577665414643144	8.05454033047143
O	3.0605235620428575	5.534561384643142	5.805208200471427
O	-0.7505620079571428	4.886420174643143	6.076711100471428
O	-1.606317927957143	4.340639014643143	2.3782279604714276
O	-5.376661507957143	3.8071718246431425	1.405583380471428
O	-4.131803687957143	3.3656192746431426	-2.194546450528572
O	-3.240142547957143	7.079459884643143	-2.797822383528572
O	-4.474490277957143	10.548924954643143	-2.0624128675285722
O	-1.4135763279571427	12.710252254643143	-1.401692327528572
O	0.061368731042857116	13.695533154643144	1.926677850471428
O	3.7496523520428573	13.874016154643144	1.0441398304714278
O	4.442662122042857	11.482833654643143	-9.082356909528572
O	5.997460452042857	8.642952764643143	-11.147419509528572
O	9.024839862042858	8.342417174643144	-8.264514249528572
O	8.942260412042858	11.400947554643144	-6.050701379528572
O	13.381998072042858	4.281752204643142	-4.950781969528572
O	10.839439272042858	6.138907084643143	-2.736149993528572
O	12.232768072042857	5.936132324643142	0.8604489604714278
O	12.901581172042858	2.4048809046431425	2.3333575704714278
O	11.156892772042857	1.4108943646431429	7.528539290471428
O	8.782118002042857	6.394326234643143	8.114766840471429
O	6.290544762042857	10.509330754643143	4.559182000471428
O	3.1117030820428573	8.960448084643144	3.0923770704714277
O	-0.5256906279571428	9.669639004643143	4.0518958504714275
O	-2.702340587957143	9.027926874643143	1.032877000471428
O	-8.112264657957143	7.742674844643142	-0.791141669528572
O	-6.647850107957143	10.262218384643143	-7.846147419528572
O	-4.751433587957143	13.078475554643143	-6.112183829528572
O	-2.833157287957143	-3.722978095356857	10.682529140471429
O	-14.891051327957141	7.073918434643143	-4.911323889528572
O	-11.358017127957142	7.267644264643143	-6.306523499528573
O	-9.420069827957143	4.277824504643143	-4.968384719528572
O	-11.351769027957141	2.3697886346431427	-2.291579598528572
O	-9.274326887957143	-2.0964519253568574	-4.367100659528572
O	-8.253125867957142	-2.1424600053568574	-0.7032284895285721
O	-4.742099327957143	-0.8907492953568572	-0.42080774952857203
O	-2.877653167957143	-0.7284656653568571	2.856422690471428
O	-0.11434652395714284	0.34345338662314273	0.7110068204714282
O	0.12215564704285709	-2.9782912153568573	-0.971441527528572
O	2.0509991720428573	-5.831830435356857	0.7362420104714278
O	0.45274120504285714	-8.726151635356857	-1.187689498528572
O	-3.073127367957143	-10.028931045356856	-2.0361336495285722
O	-2.9234813179571426	-9.375486145356856	-5.813292099528572
O	6.551884292042857	-15.036013145356856	-4.600370869528572
O	-0.9115560479571428	-15.139467045356856	2.936258090471428
O	4.107509892042857	-16.613132145356857	-0.6841484795285719
O	2.274507242042857	-13.245277845356856	-0.46000007952857214
O	-0.22572457695714288	-13.721772245356856	-3.285810259528572
O	0.7947412070428571	-12.460823045356857	-6.714140629528572
O	-0.5639508079571428	-11.583751345356857	-10.165808599528571
O	-1.8933581379571427	-8.213108675356857	-11.211869759528572
O	-2.240591337957143	-6.401767115356858	-14.554111959528571
O	-4.165636657957143	-3.6176139553568576	-12.773197959528572
O	-5.470696677957143	-5.514022975356857	-4.698924039528572
O	-6.282170727957143	-6.393569885356857	-1.103845251528572
O	-2.976712677957143	-5.482397875356858	0.3612044504714278
O	-1.4820661379571427	-5.4643259253568575	3.7948367304714274
O	-1.2617581679571428	-9.213483565356857	4.258816340471427
O	-5.015456147957143	-9.455867025356856	3.727881490471428
O	-5.642073597957143	-6.388677125356858	5.8274467304714275
O	-3.758568767957143	-8.080067815356857	8.70665724047143
O	-6.564833757957143	-10.510588445356856	9.205859640471429
