87

O	-3.1156182069655176	0.9597158224482767	3.9668047399189654
O	-2.9719765869655177	-0.12975203155172332	3.4490566999189656
O	-2.5796721769655173	-1.3508334805517235	4.150774079918966
O	-2.5000630869655174	-1.3807480005517232	5.534878719918966
O	-2.9013153469655175	-0.09675539455172327	6.196184399918966
O	-3.0447506069655175	1.0705769294482765	5.370475019918965
O	-3.6856571469655175	2.2072274194482766	3.5966807499189657
O	-1.2455179429655174	-1.8921457405517232	3.7489070499189654
O	-3.4613945869655174	-2.233366550551723	3.3731205899189654
O	-1.0263243137655176	-1.2991567105517232	2.5344292799189656
O	0.07916553303448248	-1.990908770551723	1.9307780699189654
O	0.5391008130344825	-3.178099140551723	2.4674146599189655
O	-0.5719307069655175	-3.9196578105517235	2.8537517199189653
O	-1.1403991039655175	-3.236085890551723	3.9317994199189656
O	1.1673921230344826	-1.0221985405517233	2.1511531899189658
O	1.4987311830344825	-1.158966430551723	3.4675057799189655
O	1.2343280830344825	0.2450364644482767	3.8585456199189654
O	1.5177554830344824	-2.2308315205517233	4.184387629918966
O	0.1469474930344825	0.9980933454482767	3.9061426299189654
O	-0.24318241996551748	1.0262939074482769	5.156144259918966
O	0.44895991303448257	0.3835635815482767	6.120621469918966
O	1.8106319330344824	0.030405066448276674	6.053636239918966
O	2.2288532930344824	0.2631876448482767	4.733822939918966
O	0.2154939130344824	1.1111414414482765	7.298658269918965
O	-0.42927831296551744	0.6481564944482767	8.281681149918965
O	-4.429509496965517	-2.755330630551723	4.190970229918966
O	-1.4463744049655176	-2.018246230551723	6.202445639918965
O	-3.5194133469655173	-2.219122370551723	6.005150589918966
O	-2.0435764969655175	-3.9085136905517235	4.629988149918965
O	8.532152573034482	2.0352963094482766	-7.7753428000810345
O	8.941815463034482	1.2809554924482767	-4.063006340081035
O	9.595420623034482	3.107740969448277	-0.7930047400810345
O	7.700191483034482	4.361275719448277	2.2767060499189657
O	8.246353533034483	1.2500907134482766	4.4023238299189655
O	6.896861543034483	-1.3641782305517234	1.9431026799189655
O	4.886389673034483	0.8542053254482767	-0.37800261008103453
O	4.737540403034482	2.379489279448277	-3.771486700081035
O	3.3711969730344826	0.3187654294482767	-6.621331580081035
O	2.7014487730344827	-4.913147680551723	-9.506453150081034
O	0.04032586303448249	-3.245773190551723	-7.4433470500810355
O	0.2709611930344824	-1.1679437105517234	-4.365917340081035
O	-1.1520734619655175	2.341330529448277	-4.791883030081035
O	-3.4031915569655173	2.7574726094482767	-1.7492426200810347
O	-5.474166296965517	5.890245519448277	-1.1568671800810346
O	-6.545326976965518	4.4326919694482765	2.2364366899189654
O	-8.798560496965518	1.623906339448277	0.8894862389189655
O	-11.272137676965517	0.9134727694482767	-1.8505948000810344
O	-10.723353496965517	-2.6358234605517232	-3.1231209100810347
O	-8.715134836965518	-3.7959134605517235	-6.095373090081035
O	-7.365862966965517	-7.106867190551723	-4.771160060081035
O	-4.674915176965517	-9.315135160551723	-6.259555330081035
O	-9.455302616965518	-8.470261640551723	8.338712199918966
O	-6.018976946965518	-10.231191700551722	6.759752449918965
O	-6.8144155769655175	-11.460108500551723	3.2538228499189654
O	-11.196426676965517	-7.869729170551723	-8.758210440081035
O	-2.0910324769655175	-13.642488400551724	6.7949746599189655
O	0.7164211630344826	-11.095598500551723	7.129063119918966
O	-0.6180290459655176	-9.348549950551723	3.9876370099189655
O	2.1141254330344825	-9.845632300551722	1.3695988109189656
O	5.477472693034483	-8.258455740551723	2.2579343699189653
O	8.597895453034482	-10.371847000551723	1.2521902779189655
O	10.643605923034482	-8.331318400551723	-1.2769412600810344
O	8.036232393034483	-5.4918122905517235	-1.7234084400810343
O	7.778378303034483	-6.695082220551723	-5.3410548700810345
O	3.9722449430344824	-6.0705963905517235	-5.304642110081035
O	-1.8943978379655175	-6.802325440551723	-5.171352170081034
O	-3.3994803069655175	-3.581831090551723	-3.7812918900810346
O	-5.2382098569655176	-0.8089770905517234	-5.610043970081035
O	-7.711268076965517	0.8519991184482767	-3.3003756300810347
O	-8.255476726965519	4.366269129448277	-4.623560510081035
O	-10.676139796965517	5.655761099448277	-1.9879685100810347
O	5.824307103034482	9.587002359448277	-4.043396970081034
O	-11.481233876965517	7.8570107694482765	3.0443781599189657
O	-4.404194206965517	11.037432799448277	3.3597987799189655
O	-3.1968868469655174	7.419006969448277	3.0625898799189657
O	-0.4283391769655175	6.217916949448277	0.7213694976189655
O	-0.8325265279655175	2.7718324494482767	1.9854002799189654
O	0.42055060303448255	4.190370619448276	5.228955029918966
O	4.178552533034482	4.648684049448277	6.072776399918965
O	4.167020903034483	7.216185069448277	8.918903619918964
O	8.476710893034483	8.051703699448277	11.183543849918966
O	3.7378766830344823	7.5007372094482765	15.550960549918965
O	1.0829066330344825	8.558912349448276	5.273880519918965
O	3.781260813034483	7.941318119448277	2.7668618699189658
O	6.591324933034483	9.876217279448277	4.511717779918966
O	3.3226025230344822	12.418380699448276	0.9686240119189655
O	6.996911503034482	12.206908199448277	-0.10356536308103448
