33

O	19.409929213726826	15.740185477032338	21.662001267039475
O	18.33512626510284	14.859130224412581	21.591537269211074
O	18.68955533691814	13.727974728100996	20.94638836097987
O	19.906200659650136	13.448075776723739	20.461954113683877
O	20.55567187035408	14.583640495138804	19.97010106573871
O	20.133572659022278	15.776011005363543	20.462546264279386
O	20.73747558318813	12.306434852888291	20.537177910591236
O	20.783362651020898	11.228347709376422	19.659100396503945
O	21.440125748892335	10.154850747117361	20.23331608819855
O	22.209667043144847	12.462606592692653	20.505836169580633
O	22.929878695831842	11.578047058209714	21.342315202200545
O	22.213389657800143	10.383370066592217	21.369498060252493
O	22.282127762427773	9.535204186553871	22.43069853450277
O	22.154631327791808	10.087862040728009	23.634740937080963
O	22.58489575495653	11.366895044773582	23.76550381578762
O	23.064875454987746	12.053945236490454	22.69561420641258
O	21.824533170245026	14.330207472679014	19.269553626254595
O	22.43734420923839	9.404752437754114	24.806081751426582
O	21.859018057199076	12.246209506738042	24.75167327517715
O	20.959909269220883	12.882905036724965	23.696171554574093
O	20.056512449619017	11.875396287659397	23.79324613552851
O	19.776483114914086	10.948763073644242	24.89440741703787
O	18.375187659853545	10.647620096929545	25.007262628890995
O	18.006915433127887	10.442346849033989	23.585054986969915
O	19.08493722258446	10.189860709844487	22.57557212806233
O	18.446201834493547	9.963751129242	21.274517220846263
O	17.628614416115944	10.940151183789439	20.614662962166054
O	16.676408609885726	11.405053393164424	21.659390239231232
O	17.252531981573917	11.414446630748834	22.93793882742682
O	19.068755738667335	12.6973713276202	23.76475202804833
O	21.705187460824217	13.89492390884537	23.304892959526455
O	22.507805232331453	14.804035684044054	22.642665435559167
O	23.80566061202524	15.22156344686406	23.25448358925859
