81

O	2.7445114764716982	1.7821093342132075	6.138178213498113
O	1.8225839764716982	3.3277450825132076	2.6958104134981133
O	2.4615838564716985	2.6642747435132073	1.6564415234981134
O	0.7231435804716984	3.5247597025132076	3.4317766934981133
O	2.6117696464716986	3.9811329025132074	1.7379796834981134
O	0.2261009364716983	2.2838762645132076	4.082251353498114
O	3.8596146064716983	2.1296318445132076	1.4856131334981133
O	-0.06587329722830171	2.3442778105132076	5.273813193498114
O	4.392684576471698	2.1455183005132072	2.806674063498113
O	0.6391893374716983	4.347770912513207	4.587258913498114
O	0.6827364474716983	3.4209199225132076	5.706634433498114
O	0.09342781447169829	3.6856594825132074	2.0485110334981136
O	-0.5928252055283016	1.3499391235132074	-1.6013364565018864
O	6.050772676471698	2.2884215595132074	4.279977763498113
O	3.4804385664716984	2.6454339855132076	3.806913153498113
O	3.2711666864716986	1.0152381895132074	1.2408289054981134
O	0.7541370574716983	1.0904637275132076	-1.3296022465018864
O	-0.5366101505283016	1.4369566575132076	6.295716623498114
O	-0.43951884552830167	2.5038777985132077	1.6616512934981134
O	0.6526494434716983	3.8623106625132073	0.7305110534981134
O	5.534475266471698	2.7893238325132073	3.077476883498113
O	1.0967965364716983	1.3913271305132076	0.037802686498113414
O	3.9507666264716983	2.3583933975132076	5.102952593498114
O	0.1709230294716983	1.2990867155132075	1.0335054144981135
O	1.1407992564716982	2.7223880065132073	-0.06131797350188656
O	5.094588246471698	1.5522236525132076	5.009357663498114
O	-1.2458720835283017	2.2557748475132073	-0.8080484365018866
O	-0.8954098525283017	1.9927576565132075	-2.815388036501887
O	9.175747096471698	-3.3221475074867923	-0.2665007105018866
O	5.7581906264716975	-4.811614317486793	0.3295946830981134
O	3.9765060064716984	-8.090438557486792	-0.6721619785018866
O	1.8519356664716982	-7.904078407486793	-3.7763218065018864
O	0.9546285064716983	-6.086738507486793	-9.436136126501887
O	-0.7371479425283017	-4.671256407486792	-6.379438416501886
O	0.5584126144716983	-4.049773477486792	-2.845347816501887
O	-1.5893570535283017	-6.001973477486793	-0.2727546665018866
O	-2.3084802835283016	-3.515390827486793	2.484967713498113
O	-4.274703893528302	-3.8124990274867923	5.572318123498114
O	-3.3196562635283016	-0.3433267274867924	6.814613903498114
O	-5.253216883528302	1.6255979505132074	4.124537603498114
O	-8.537241523528301	1.5962842755132074	2.365243263498113
O	-8.029963073528302	2.7111010385132075	-1.2205567865018865
O	-7.571203343528302	0.6595714025132076	-4.307805616501886
O	-5.141997213528302	2.9251527125132073	-6.192890026501886
O	-3.1313914335283015	2.1498094795132077	-9.323674796501887
O	-3.6566794535283016	11.324438712513208	-0.4039557455018866
O	-0.7273763475283017	12.974580592513208	1.4294361734981136
O	1.8244688164716982	11.509378762513208	-1.5044660565018866
O	-0.2276233075283017	10.396596182513207	-4.464108916501886
O	-2.8997232635283017	12.209373292513208	-6.418904536501886
O	-10.222395553528303	2.7149240235132073	-8.615876236501887
O	-8.115777673528301	5.761481082513208	-7.921297946501887
O	5.871681416471698	11.780794192513207	-4.7365024965018865
O	7.910395226471698	9.078236442513209	-2.980509846501887
O	5.017685226471698	6.613830202513207	-3.403164086501887
O	6.331116706471698	4.072903712513208	-5.953358856501886
O	9.350943936471698	2.0922152295132075	-4.699440486501886
O	12.040680746471699	1.4078657035132074	-7.382829776501886
O	9.222925616471699	-3.2730169174867925	-5.700315746501886
O	7.645423036471698	-4.638913847486792	-8.909826216501887
O	4.215067236471698	-3.307780277486793	-7.764927436501886
O	2.1608600064716983	-0.7104603574867925	-9.653424656501887
O	-0.7097345875283017	-0.12928991748679253	-7.316377796501886
O	-2.1593431535283014	-0.8142774874867924	-3.859693836501887
O	-5.021680623528302	-2.6937863574867924	-2.4064053265018868
O	-6.3493948535283025	-1.1059573374867924	0.7704643034981133
O	-8.132936603528302	-3.7850391674867927	2.749462663498113
O	-9.106647953528302	-1.6836121974867924	5.7908918234981135
O	-12.521005453528302	-0.06551943748679245	6.394065673498114
O	-11.416751053528301	1.7162325543132075	10.657282043498112
O	-7.826299423528302	0.45108742251320755	10.738604843498113
O	-0.6892516525283017	-3.356019647486793	8.949370463498113
O	0.8445973754716983	-5.321095217486793	6.016529003498114
O	1.8011954964716983	-1.9966188474867925	4.447500293498114
O	4.268602786471698	-1.5728325374867924	7.234373923498114
O	7.571295526471698	-3.3904388674867922	7.181078473498114
O	8.495679176471699	-3.2462548174867925	10.983013143498113
O	11.049598446471698	0.9541785645132075	15.608544043498112
O	3.8298479864716986	-4.785234627486792	10.317300623498113
O	5.014369516471698	-7.3122118174867925	7.738801043498114
O	2.9351250664716986	-10.928036607486792	10.090980923498114
