40

O	23.93851110932459	11.523611295422153	22.432118212358603
O	22.91925471224674	10.686406851254235	21.94144076158859
O	23.686923776589847	12.817493073345577	22.709892287322845
O	22.53601643902433	13.309847106895665	22.48873475324113
O	23.590907381062998	9.884699445052785	20.794061060260393
O	24.418537233473106	10.933165595995314	20.115843404386915
O	21.612975491817878	9.109951584900676	22.738553598891254
O	23.623498206228067	12.007656123089358	19.80263477717684
O	25.699154942308457	11.106302735790539	19.70736123974374
O	24.03158471657019	13.336641583223422	19.654998238762097
O	26.154270896744684	12.414606702019615	19.495725306226046
O	25.35865672042214	13.515629715782245	19.74920410226359
O	22.71375341950395	9.813139397503726	23.101402071575446
O	22.373347930180547	10.651105298512032	24.22970816034466
O	21.6168155931431	9.621799202752067	24.962522482066426
O	20.712640657416298	10.501237587142242	24.149785243030845
O	20.269554496752466	11.432581898647157	25.099446351485195
O	20.444312461537038	12.761817142344738	25.284804029607297
O	19.311971752327437	13.311809694519026	25.806183968541504
O	18.991848139531914	12.541361788335012	27.003502366220378
O	19.638745109580228	11.370227928007996	27.375547929546045
O	19.988159531385456	10.73459041151624	26.239636985025033
O	19.999363270981366	10.693241463909786	28.5711153302452
O	20.46683129197999	9.305347878659145	28.69253232926153
O	21.10050240728407	11.238416888838872	29.433957519203645
O	24.874110313376423	13.569629112521543	23.084062094642373
O	26.124663672769856	12.936613021892478	22.600612926054954
O	27.075538469128666	13.988399242118211	22.98655213140566
O	28.163634226914784	13.64404119587126	23.466275742006314
O	26.40944696687845	15.141141134049445	23.38893845871363
O	25.15914135021584	14.912644633699514	22.59690889837358
O	26.300755650883815	15.185782649826265	24.88942093784329
O	25.394807747484798	14.079879655042149	25.219068949321965
O	24.76611352218008	12.867072880285862	25.553960816386475
O	23.418529926760385	12.765946410638506	25.988905873614357
O	22.619217705476192	13.749062075924709	25.620382130688245
O	23.00463319372505	14.98467985357808	25.20293179943533
O	24.29558937538622	14.783834578655306	24.624545573402596
O	23.15698618207332	11.873782526782865	26.902588874243044
O	22.958991480697858	10.668871606805792	27.294248631173296
