19

O	19.25100948609736	11.816780295399976	22.129895159045113
O	21.489005442225956	9.939401927394915	22.47974529990576
O	19.435520560997144	11.421068205870833	20.84004112378882
O	21.837305546467988	11.686021274227627	24.312538080441076
O	20.40060243248915	12.746834691645066	22.37272741823639
O	20.905769453796523	9.680910048060202	24.89236799161423
O	20.454452839635717	10.571726902167116	20.46945060459174
O	22.91950024236605	11.020964217221836	20.503265949974967
O	23.404947287719015	10.413123697080458	19.29842101543308
O	24.51649043395006	10.79609883832778	18.50852267204759
O	23.765970481316284	12.185402742142278	20.35848876090754
O	21.75488886289532	10.770427936739143	21.277662304158998
O	21.5693497020556	12.082921397480845	21.84671498786933
O	22.769338711300854	12.094298511545723	22.859490391587826
O	20.9997338034868	10.236565718192372	23.613594494359596
O	25.149563974049663	12.239716803674623	20.014401860873345
O	25.648083852600568	11.271428628603992	19.247774398366353
O	23.381152747179264	13.372747303275284	20.814257675113094
O	26.922831898609243	11.390249682283963	18.958534974473896
