88

O	1.7063414830983605	-0.4165616605409821	-3.6120230805983606
O	0.6569356330983607	-1.105748530540982	-4.238098980598361
O	-0.3834702369016393	-0.394414210540982	-4.666023680598361
O	-0.7616914369016393	0.863261939459018	-4.11708888059836
O	-0.3300881879016393	0.855100343459018	-2.7909966505983608
O	0.9403916530983607	0.24875836945901808	-2.6575382965983607
O	2.0537491130983607	1.208508606459018	-2.8755938305983606
O	1.6430055230983607	2.091828302459018	-3.9884555805983606
O	1.8024787230983605	1.580042909459018	-5.093887910598361
O	1.0930240530983606	3.186963359459018	-3.2219375805983606
O	1.6499906430983606	3.062454369459018	-1.8872552415983606
O	2.8688741430983606	3.755326329459018	-1.5719882635983606
O	3.0263073030983603	4.365755729459018	-2.8257736905983606
O	1.9051585530983606	5.173626869459018	-3.1149752505983606
O	0.8950894430983607	4.408638929459018	-3.5149526005983605
O	-1.8833803269016394	1.834439842459018	-4.322706000598361
O	-2.1958961969016393	2.903427759459018	-5.2567567605983605
O	-3.5001671769016394	2.555704859459018	-5.999524140598361
O	-2.541177086901639	1.360179797859018	-6.173830220598361
O	-2.6758465069016393	0.800758236459018	-4.933572380598361
O	-2.0475864169016393	4.305010219459017	-5.445854460598361
O	-2.2368002069016395	5.164983049459018	-3.932347070598361
O	-2.198107366901639	3.758674279459018	-2.7764062055983607
O	-2.377320506901639	2.404992519459018	-3.099935420598361
O	-3.2071008969016392	4.3150494594590185	-1.8696185957983606
O	4.82778606309836	4.768009909459018	-2.9609182005983605
O	-0.3857711139016393	-0.11864338054098189	-6.029818220598361
O	7.5905858930983605	-3.274024900540982	8.90977286940164
O	8.688968173098361	-1.604763740540982	5.698298759401639
O	8.38839673309836	4.789989129459018	2.6020692094016393
O	9.518198373098361	3.658190979459018	-0.8372359445983606
O	7.945155683098362	0.19125022945901793	-0.8302542315983606
O	5.3215636530983605	0.652946008459018	1.8264200494016396
O	4.53509205309836	-0.321014890540982	5.393862129401639
O	2.8488482130983606	-3.605366780540982	6.064747709401639
O	2.024902713098361	-9.493250140540981	5.08996985940164
O	-0.3499769309016393	-6.740363750540983	4.060811129401639
O	0.2741935930983608	-3.2707231805409824	3.031020759401639
O	-1.3974162459016393	-0.603608600540982	5.166879159401639
O	-3.0621262169016394	1.755746201459018	2.616115619401639
O	-5.196896776901639	4.681484139459018	3.716701859401639
O	-5.615518226901639	5.728442399459018	0.11985698940163947
O	-7.838607636901639	2.7862378294590178	-1.0573880825983606
O	-10.72832246690164	0.709124997459018	0.2052031494016393
O	-10.239347566901639	-2.928285590540982	-0.7866674765983606
O	-8.680658516901639	-5.755312720540982	1.1268109094016394
O	-6.947323066901639	-7.684754830540982	-1.6508422315983606
O	-4.403723026901639	-10.471125440540982	-1.4189908205983606
O	-6.604726516901639	-0.5819232205409821	-12.99675823059836
O	-3.4439145569016394	-3.2139736005409816	-12.26842183059836
O	-4.688387456901639	-6.322046740540982	-10.43632213059836
O	-7.647068756901639	-8.606397010540983	-11.21340758059836
O	-11.35415282690164	-10.472050540540982	0.36037882940163946
O	-10.453821916901639	-9.931092340540982	-3.2544371605983606
O	0.7148655530983608	-6.015643980540982	-13.64815593059836
O	3.2412615130983604	-3.7955073605409817	-11.839383630598359
O	1.3550821830983608	-4.310554190540982	-8.574168240598361
O	3.6011642530983603	-6.455446640540982	-6.437986730598361
O	6.95456303309836	-4.853980840540982	-5.59542671059836
O	9.96540617309836	-7.320826910540982	-5.6381755005983605
O	11.406393173098362	-7.445020000540982	-2.1033653065983606
O	8.58869045309836	-5.372609200540982	-0.4358273605983607
O	7.826424983098361	-8.542187790540982	1.5380364194016394
O	4.07239772309836	-7.887554440540981	1.3440926394016393
O	1.5132326930983608	-10.100863640540982	-0.3901111905983605
O	-1.6419608729016393	-8.041674500540982	-0.18430196059836068
O	-3.0659176069016394	-4.536137190540982	0.43416318940163934
O	-5.3513279069016395	-3.3044703305409824	3.1614455494016394
O	-7.47056327690164	-0.4299094205409819	1.9297065194016396
O	-8.45095480690164	1.574378643459018	4.972048999401639
O	-10.47217031690164	4.318585009459018	3.314381379401639
O	-14.248983726901638	4.470344879459018	2.830687289401639
O	5.0678260330983615	5.0291800294590185	10.33219146940164
O	-10.549402176901639	9.182113829459018	0.6980524294016395
O	-3.7457735469016393	11.440216659459018	3.8176324094016394
O	-2.3800355769016392	8.389173799459018	2.011991689401639
O	0.055631573098360754	5.810512439459018	3.425826489401639
O	0.03608419309836064	3.975477519459018	0.1750827594016393
O	1.6574902530983606	7.231874459459018	-1.2975934965983607
O	5.594578003098361	7.615992939459018	-0.7209552805983606
O	5.941779513098361	11.398724659459019	-1.2900413475983605
O	10.53172947309836	13.117188459459017	-1.7713103910983605
O	6.66324291309836	15.760643759459018	-6.3055221105983605
O	2.184920843098361	10.370204489459018	1.8273101294016396
O	4.416564663098361	8.137903749459017	3.8880642694016387
O	7.359792253098361	10.531338039459017	4.144106329401639
O	3.3509853330983606	10.536020529459018	7.935967989401639
O	6.79306666309836	9.449178649459018	9.21334396940164
