25

O	28.13580549841687	12.687015332776214	21.411207845319424
O	24.149115388140917	12.15675511639386	23.24673157733813
O	24.966198481806845	13.2937791666562	23.531424977305676
O	26.162133952082957	13.300023595564191	22.8731240440839
O	26.83647460975296	12.146161102986195	22.4816005969208
O	25.87723324595954	11.233066621079022	22.04713780801481
O	24.774861450507746	10.99075014380779	22.821503623053324
O	23.81805297841486	10.05507853405162	23.105309341859055
O	23.134317717833586	10.48536156404937	24.20177096499668
O	22.929758314441774	11.750185459176542	23.762781812307047
O	22.69236766292761	9.82167094966883	25.349149371658847
O	21.949632232181905	12.738477928063256	24.03789311576843
O	20.514951573153287	12.485320777970049	24.097038168093903
O	20.332108472269233	11.093717144295326	24.59949354493119
O	22.339455872573733	13.877650033473131	23.026144141934807
O	23.158443307374426	13.155398804038224	21.815853719004863
O	22.62674121344817	12.070668588807594	21.161652382060137
O	23.35291382544369	14.06469102034005	21.03403309251265
O	21.303614709828757	11.813075756289567	21.45282776824674
O	21.244111331300996	10.455372423254149	20.752755978231445
O	20.38441842580864	10.807831377625744	19.52284460922261
O	19.27060719090021	11.803891429283642	19.894077165692416
O	18.160021218941417	10.942897735933606	20.485459361746702
O	18.79272621133566	10.383698443169497	21.725910272516575
O	20.148455104823135	9.818848826341986	21.562548793620127
