40

O	23.61466429263303	14.252453025121945	23.985982901755484
O	25.34786898644242	14.297452004209362	21.275607093190324
O	27.950873224813023	16.97637916431401	27.238076143215938
O	25.915029261659328	15.80620729384335	27.861905176993695
O	22.732840529054755	13.406942790390623	24.679252681737616
O	28.074248478632065	13.210508309826174	23.630376952644053
O	25.488987979935317	18.042416429133706	26.891927341480205
O	23.335978300459768	12.685260062628732	25.713204550592142
O	24.094471443623966	9.759245774065635	20.606842257991822
O	26.404830698418845	16.613760064321728	28.7819739025134
O	24.734127380971522	12.852100620708121	25.887646434032764
O	25.345267508598504	17.14798258508479	23.33826936631062
O	25.072175810018464	14.248796999713761	25.77636341381621
O	27.07660184522435	15.550579877381498	20.822179018576172
O	25.000436534374483	14.133523407157032	24.372565857911454
O	30.172874287016967	14.365952839330436	23.675369817433786
O	25.6326092171005	15.235789404291385	26.696619470134333
O	27.697118150357714	16.587814125533633	25.981645320956115
O	26.5385787359344	17.018795375207333	25.325279774856206
O	26.614159652112836	17.0884160498596	23.932214328419242
O	27.4972712510504	16.147297609088277	23.4045402687508
O	28.202418073753577	15.360886030779152	24.206314660692154
O	27.923358052606847	15.227186597665042	25.568843204131873
O	28.953954627519977	14.296070930456441	23.595485902342016
O	25.204078971880044	16.540168495968015	22.100189681637985
O	26.10877000393658	15.479071471912038	21.643659459681658
O	28.93074166418269	12.261783362907138	22.900168945875883
O	28.936795274840048	12.671931626496864	21.49319655190908
O	24.50083182875945	9.848195780934427	22.985185262227976
O	24.545588400609514	11.275380440922508	22.870041362172685
O	24.73183598991296	12.032529738484177	21.673646961262445
O	25.803057902660573	12.98383763155317	21.436614508834168
O	24.07279097854761	8.98759831776725	21.84633484230275
O	27.55478050864016	10.568950229064923	22.422326500016442
O	28.228762273578816	11.103038263824594	23.445319344015708
O	29.198668435460423	10.042198618717004	23.56150611825826
O	29.149335156049457	8.687754413539746	23.224778415587426
O	28.40124616235486	8.479140702407388	22.065781589642977
O	27.328021379123655	9.295220579453261	22.03910885711896
O	27.997782135216205	7.1594345564501225	21.908571824748666
