26

O	22.95897789948362	12.088938194111595	22.125248346276557
O	22.178174073624533	9.861223093157024	22.245596244827578
O	22.532759582829893	13.246514106096868	21.67938400163959
O	22.68712495454681	10.86455306087326	21.364912914245764
O	22.375335468982875	11.72027933280247	23.415867493709285
O	22.21137377759517	10.319852073911697	23.46825920871478
O	22.488545804528883	9.581196145111162	24.69024370103821
O	22.879264272741015	12.486196323652804	24.54966749516846
O	26.987443747790426	13.361649491351514	21.74090763067254
O	21.5238991954953	11.251639628501202	20.42804238272951
O	22.209293966876725	12.270829119113198	19.68332228873157
O	21.439993652069738	12.907564925101296	18.782965103048284
O	21.0770624489069	11.894857034443984	17.889728826166035
O	20.662870320723002	10.654565667792669	18.20950427831495
O	21.0117982199614	10.360061664779389	19.531026261648513
O	23.534143818572897	10.316089087299702	20.278305378281186
O	23.21358485825832	10.080058906505755	18.92994518982806
O	24.04615679143907	10.36465115905673	17.826739815238152
O	25.105889818363984	11.2168044726637	18.142478855576208
O	25.604689684442597	10.920755634216235	19.402359941726104
O	24.80974825297678	10.452943052505612	20.409352241692183
O	28.280141720585874	12.938821379321805	21.662425919145367
O	26.37519711927209	13.001722583663827	20.509011884217806
O	26.671216219678527	11.79992857641523	19.928188699959257
O	27.830500914726635	11.204053745582797	20.197815751283237
O	28.225076311104093	11.547251268746841	21.514046642623928
