22

O	18.926346379719934	11.613666640219597	19.706094174547065
O	19.379179595948685	10.584560440485202	22.683332529215736
O	19.641214212746846	10.636253196673662	19.076970181335927
O	21.238010764293993	10.573865104465009	23.76692802312159
O	21.127619303534647	10.650613996583349	19.15626318103274
O	22.481366493878276	9.485684136735077	22.469534475253624
O	21.632828217107562	10.866449806338306	20.39955542249737
O	22.83797351522311	9.314112046543453	24.969228239773315
O	21.07956173500852	12.23191543272987	20.240276782916293
O	19.729911069359336	12.670456374261734	20.13496796082488
O	21.88113797085496	10.485140231574434	21.687974011229112
O	20.596280151769633	10.445421628382082	22.456173556075818
O	18.39620448354775	11.565350032329226	23.034801854049572
O	19.241521507028104	12.10899568588091	24.233945203716097
O	20.40839527387084	11.332607804530483	24.715555998169457
O	22.091571594784178	9.412726434536893	23.6889878654694
O	22.80656028412742	11.730661028475403	21.8362295024275
O	21.837480709686595	12.618349154557809	22.311866136125644
O	21.549689960998055	13.94768333023216	22.50892339355068
O	22.301383666256932	14.699737195230751	21.613008029604714
O	23.166020478174982	13.953845049299328	20.88517693819879
O	23.31436331158894	12.569502224685163	20.79066249375937
