35

O	21.307136582803306	15.668525642547733	19.927835832798994
O	21.25372915747249	16.036941513873415	21.238623531039003
O	20.904306044477874	14.435116493992822	19.52993029648987
O	22.018090528634236	13.27037582559049	24.849094775869375
O	20.89117897572648	14.986654926572683	22.07773368404334
O	20.409620520524346	13.446712915033027	20.327820843687956
O	21.05862292159621	14.052425547083377	24.17035544744842
O	19.61782339539482	12.6241036012048	24.913865578302147
O	20.48090474327771	11.577330971173506	25.28734390981374
O	21.831749392943184	11.889125898429555	25.12610592459948
O	20.21790176031103	13.844034448796355	21.572290343932355
O	20.022819138889076	13.164498166426998	23.657207132777717
O	22.429192096579996	9.683885041068304	24.074524754190826
O	23.09285095155858	11.567321125731594	22.24287664914139
O	20.427515310813487	10.560972347458302	24.40534762169097
O	23.610422776239773	12.70169330758134	19.849085807072292
O	16.694911152372054	11.659115563777902	22.190555950513957
O	23.534049603923965	13.609522471386502	20.965648960048703
O	24.217556590573878	11.462070074396692	20.31937421849556
O	17.3204826257298	11.017761398606844	23.35241758071735
O	17.495061206967566	11.344298638081176	20.984662617529853
O	23.985034509853456	13.739578622233344	22.346585373956465
O	25.0921522343991	11.905720513640905	21.557494338140703
O	18.555310494174428	10.262378565399885	23.215628922441045
O	18.784495919773907	10.70838754541118	21.09499156840421
O	24.212431794591268	12.313810774572667	22.740464508470478
O	19.64614879781792	10.561743457945141	22.180842804807504
O	21.590266302148464	10.375302560739108	20.98481758328537
O	20.90049183262174	10.039630593956936	22.193757044171324
O	21.35345229890739	10.133255006408044	23.436051616205784
O	22.597562796888305	10.911290142181379	24.87375757638863
O	22.172773214233082	8.772409893049195	25.12999783058668
O	22.894049270800974	10.2914236029677	21.784118087996934
O	22.150492226590508	12.191115657383056	21.9816637518157
O	19.35624056340118	13.380725257662338	22.496218128214373
