84

O	2.648348338058621	-4.598073741103448	2.4129094060862073
O	2.7028515980586207	-3.2688738111034485	2.714449936086207
O	2.4202445180586207	-2.4312733511034486	1.671230736086207
O	1.709085858058621	-3.1289349811034484	0.780153897086207
O	2.275134278058621	-4.197695971103448	0.24302460408620696
O	2.621082488058621	-5.198851181103448	1.146406500086207
O	0.30381386505862085	-3.5279997311034483	0.49232481508620696
O	-0.3386794189413792	-4.4785125511034485	1.037629693086207
O	0.0030968550586207844	-2.2181043711034487	0.321971198686207
O	2.056661508058621	-5.347496391103448	3.365451726086207
O	1.7621624480586209	-6.068762491103448	4.283778486086207
O	-0.2664398829413792	-2.3112516911034486	3.470173076086207
O	-1.2471967339413792	-3.3361554911034483	3.507353136086207
O	-0.11744305894137919	-1.4739389311034483	2.481526226086207
O	-2.237260301941379	-3.1256581111034487	2.609573426086207
O	-0.8990968089413792	-1.7973509311034483	1.3780342160862071
O	-1.8248208319413792	-2.7594192311034487	1.407282006086207
O	-0.5278700369413791	-1.6475793611034484	4.792016606086206
O	-1.833311821941379	-0.9017346981034484	4.899392096086206
O	0.4176185080586209	-0.5892759131034484	4.770740446086207
O	-0.43825806394137923	-2.6388851211034487	5.860452666086207
O	0.9709389480586209	-3.0067486211034486	6.034354506086206
O	1.9219117880586207	-2.0201764711034484	5.598068536086207
O	1.566187968058621	-1.0147834811034484	4.659687286086207
O	2.4932507180586208	0.0966316357965516	5.073329416086207
O	-0.8734010609413791	-4.453778971103448	4.120114516086207
O	2.1482238680586208	1.1450946188965516	-11.412828223913792
O	2.963417808058621	-1.8580954811034482	-9.218396803913793
O	5.946169948058621	-3.4717967211034484	-7.468033623913794
O	7.475809038058621	-3.7645391611034484	-3.945188163913793
O	5.675548048058621	-6.933424031103448	-2.918276853913793
O	2.098410548058621	-5.796382661103448	-3.585138963913793
O	2.5671571680586207	-2.0185786211034484	-3.7546596139137933
O	2.6106360980586207	0.9599133748965516	-5.889146723913793
O	-0.6724348063413792	2.6023297388965516	-6.831468743913794
O	-6.501627291941379	2.2454019588965513	-8.299695473913792
O	-5.207400251941379	3.3650734288965514	-4.961011173913794
O	-2.191762741941379	2.2290794188965513	-3.025745803913793
O	0.26287222405862076	5.060530598896552	-2.252759593913793
O	0.9755658880586208	4.643911008896552	1.4782661560862072
O	3.230954098058621	6.939044068896552	3.444991876086207
O	2.783405018058621	4.6884133188965516	6.520833286086207
O	-0.8666284679413792	5.583603998896552	7.214417716086206
O	-3.280185271941379	8.453774288896552	7.166376296086207
O	-6.638842311941379	7.172917468896552	5.913808646086206
O	-8.07453926194138	7.363985648896552	2.426703216086207
O	-10.01586770194138	4.076311538896552	2.342195296086207
O	-11.579512331941379	2.3125705788965516	-0.6087372349137931
O	-7.125588981941379	-3.7698190711034485	12.749070876086208
O	-8.04516966194138	-5.6646982911034485	9.162735886086207
O	-10.59912397194138	-3.5522936611034486	7.368550886086207
O	-13.414500531941378	8.508731268896552	2.465821736086207
O	-9.691426191941378	-9.657781621103448	6.317981976086207
O	-6.459604491941379	-10.273691061103449	4.478481336086206
O	-6.533586401941379	-6.623674741103448	3.3328343560862073
O	-6.996318691941379	-6.809945031103448	-0.446334021913793
O	-4.185910461941379	-8.577775611103448	-2.3245711239137927
O	-5.320358591941379	-10.841775361103448	-5.256090053913794
O	-3.814713761941379	-9.415066421103448	-8.476580663913792
O	-2.410974661941379	-6.168285571103448	-6.911163893913793
O	-4.839984901941379	-4.308823091103448	-9.170283103913793
O	-5.574927941941379	-1.7387307911034484	-6.408428763913793
O	-8.922882691941378	-1.2049034411034483	-4.688848183913794
O	-8.08925627194138	1.2524334988965518	-1.961010343913793
O	-5.249118011941379	2.7874964388965515	0.09460333208620697
O	-4.149938441941379	6.494416168896552	0.16653260908620698
O	-2.6781396719413793	7.291719208896552	3.550133476086207
O	-0.2313694249413792	10.139546938896553	3.087219336086207
O	1.018207568058621	10.501675138896552	6.658377736086207
O	9.207594338058621	3.9603210388965513	-6.806421173913793
O	4.431209708058621	8.812311928896552	10.691392176086207
O	6.829003188058621	3.6797295088965516	4.597602256086207
O	5.8021222480586205	2.8485057888965515	1.0234188090862069
O	3.133112978058621	0.5712593368965516	2.172131606086207
O	5.797851798058621	-1.6733990511034482	3.687538546086207
O	7.825082078058621	-4.006008561103448	1.296684820086207
O	11.06779996805862	-4.601525351103448	3.252273126086207
O	14.031490068058622	-8.204500581103447	1.622393926086207
O	13.557315868058621	-8.394155381103449	8.074558716086207
O	9.996994568058621	0.2344245628965516	2.9857206660862072
O	9.409830068058621	-0.1017161251034484	-0.698020263913793
O	12.66806276805862	-1.9395299611034484	-1.516797783913793
O	12.596340668058621	3.5249820288965514	-1.552819113913793
O	13.251506568058621	1.9214075388965517	-4.955195193913793
