80

O	-0.08166337542105218	-0.289636625575438	6.047779733807017
O	-1.1828694564210522	0.06439276942456197	5.322810103807018
O	-0.9918838823410522	-0.11513418057543803	3.9850762838070173
O	1.1524313505789476	-0.16685134457543802	5.498056693807017
O	1.2416916805789477	-0.22796038557543805	4.165452893807018
O	0.1753726705789479	0.18110325532156196	3.4181931638070173
O	0.34976621057894774	0.656307373424562	2.1961931038070177
O	1.5294793005789478	0.435143977424562	1.6241224668070176
O	2.406347720578948	-0.408435762575438	2.2241867538070177
O	2.4842339405789478	-0.537487241575438	3.6252313438070174
O	2.131201370578948	1.511238949424562	0.9835769488070176
O	3.679361610578948	-0.8748238205754381	1.6547967978070175
O	3.8129837805789477	-2.3098813705754377	2.1246547538070177
O	2.9332514705789476	-3.2194977805754377	1.3837979538070175
O	1.8721457205789478	-2.622754140575438	0.6731778218670176
O	2.7694897905789477	-4.444731750575438	1.5801728248070175
O	0.6834184605789478	-2.483096620575438	1.3755371948070176
O	0.09738209057894787	-2.959695150575438	2.5070223538070175
O	1.0425089805789476	-3.517746130575438	3.4491464138070174
O	0.5348723705789479	-3.386996430575438	4.823623963807018
O	-0.9008328357210522	-3.261140330575438	4.845379943807018
O	-1.8978420144210522	-3.172735290575438	3.8086631838070173
O	-1.3356547834210521	-3.0087119705754377	2.4667491438070175
O	-7.821504999421052	9.576103709424562	2.3912132638070176
O	-13.091079979421053	7.1809042794245626	4.117414763807018
O	-10.391123309421053	5.366244619424562	2.2005367238070175
O	-6.581861429421052	5.595879619424562	2.4239224238070176
O	-5.064457389421052	6.611758959424562	-0.9727720661929825
O	-2.205611149421052	4.203805479424562	-1.4125962861929824
O	0.14101121057894794	3.971328789424562	-4.314364986192983
O	2.172050160578948	1.2646614194245618	-2.6553260561929823
O	-0.45419209442105213	-1.5019287505754382	-2.4987952361929824
O	-2.985151639421052	-2.976551660575438	-5.051552896192983
O	-6.138713259421052	-4.040782760575438	-3.1863863761929827
O	-9.300491149421052	-2.1462916405754378	-2.4371230761929827
O	-10.037443719421052	-3.334334960575438	1.1332663348070176
O	-7.570730669421052	-13.087676190575438	1.4641467028070174
O	-4.6297337094210524	-12.855989790575439	3.8644660338070174
O	-2.3119860494210522	-9.92121439057544	3.8938668038070174
O	0.5983345805789478	-9.776923760575439	6.402600313807017
O	-1.810092766421052	-7.6089354005754375	8.94224372380702
O	-5.443490759421052	-7.883316390575438	7.798515553807017
O	-13.658074279421053	-5.444190600575438	-2.5089916761929825
O	-2.1034833594210522	-3.081950200575438	13.839804593807019
O	-3.923354079421052	-2.1817179605754378	10.622664233807019
O	-6.331013419421052	0.544364052424562	11.513391393807018
O	-4.807426799421052	3.678875179424562	13.017466393807018
O	-10.105777189421053	6.1636587194245624	7.465703953807018
O	-10.218873189421053	1.179617344424562	4.290369533807017
O	-7.380497229421052	1.318348319424562	1.7896754138070174
O	-7.389160439421052	2.029030389424562	-1.9769771061929826
O	-4.443997429421052	0.25315364722456196	-3.554717936192983
O	-3.482747239421052	2.103182099424562	-6.647276836192982
O	-0.5098633914210522	0.03691630442456198	-7.776400386192983
O	-0.49107017842105216	-2.831268400575438	-10.275601606192982
O	-2.075301999421052	-6.274864050575438	-10.214500806192982
O	1.329636200578948	-7.916970810575438	-9.982795406192981
O	1.3456378405789478	-7.1715666305754375	-6.2545796161929825
O	-2.376289179421052	-7.685425220575438	-5.622092996192983
O	-3.354353669421052	-10.336458690575439	-3.0349342461929827
O	4.641060920578949	-2.264297150575438	-13.424203506192981
O	4.1533978705789485	-3.7492664605754378	-9.917340206192982
O	4.908488880578949	-1.0478845205754381	-7.405865436192983
O	5.383211720578948	2.379108239424562	-8.992496396192982
O	9.168356320578948	3.202874639424562	-5.288707736192983
O	6.7140706505789485	6.098242709424562	-4.890830526192983
O	4.429784520578949	5.181681509424562	-1.9705137561929824
O	1.7279750805789478	7.470820759424562	-0.5354768161929825
O	1.013564610578948	4.803209989424562	2.0785481638070173
O	4.430330770578948	5.222977439424562	3.7410978838070172
O	11.437857120578947	9.021219099424561	2.8711480738070176
O	12.990001220578947	5.589132889424562	3.4014112438070176
O	14.501306620578948	6.369871669424562	7.964037223807018
O	16.34707642057895	3.2472448894245622	6.913695543807018
O	14.945288720578947	0.566791411424562	4.696543923807018
O	15.957558920578949	-3.0189508805754377	3.9611567338070173
O	13.520462720578948	-3.035399800575438	1.0083399098070176
O	10.528605520578948	4.567865239424562	-0.5579429461929825
O	9.404161120578948	8.055534499424562	-1.5334556461929827
O	6.699717420578948	8.31974915942456	1.0873717108070176
