24

O	23.621831563483948	11.645154595449615	20.603859872953016
O	22.432955176468877	11.3344424697667	20.143036248960208
O	21.61442029228132	11.783584861514424	19.14419359894241
O	22.55048842537908	12.305162496548526	18.25332058350085
O	23.83514121298489	12.594196853879083	18.552432143257647
O	24.231297969079147	12.595138704742103	19.842236424746027
O	20.247208720697927	11.073301683357286	18.951616883757605
O	19.18306610219563	10.568697517508836	18.12449254898728
O	19.609441143564496	9.290845362717482	17.631907517226427
O	20.840846861524643	9.18825664854807	18.3152084306035
O	20.104645440489314	9.724323978624327	19.4323773296062
O	22.345829557178174	9.319612562254576	18.04667148488742
O	23.358338790364915	8.939812429472633	18.846958747275835
O	24.66738443888555	9.250978642241998	19.03366433252184
O	25.227511282357177	10.025809795676295	18.083997544862967
O	24.449623589685824	10.041563045663015	17.00812890449571
O	23.10354130875154	9.635946769070005	16.953464629311927
O	20.43036331264219	9.783436119213182	20.781547365902643
O	20.23600006629269	10.723983357885524	21.889154140953792
O	18.96255389465268	9.954901282294149	22.16810640237521
O	20.20104429318499	11.971186870131685	22.045327308793144
O	17.964767971986873	10.352731263821106	22.783423980322567
O	18.399476159365413	11.519262456702581	23.619949667715794
O	17.49224096307153	9.538936106264776	23.868723378753657
