106

O	0.4885039024590164	-1.8063010395195083	-4.540674785196722
O	1.7860961024590165	-4.697599531519509	-3.299250455196722
O	1.6748963824590164	-2.132798231519508	-7.3392733051967225
O	1.5309681324590163	-2.6742946515195083	-2.279938780196722
O	-0.8429877295409837	-3.983918281519508	1.340397484803278
O	-0.6652068216409837	-6.312069451519508	-0.9259474371967219
O	0.9274509524590163	-5.330154621519508	-0.6115380941967219
O	-2.198436317540984	-4.732256111519508	-6.1086803251967225
O	-2.9600491675409835	-3.5137612115195083	-4.596411315196722
O	-0.49571563254098366	-3.4248951315195084	-3.170819165196722
O	-2.8961930975409835	-3.4459441715195087	-5.967044715196722
O	-1.9469190575409838	-4.205802461519508	-4.072891955196722
O	-1.5063994935409837	-2.050774651519508	-3.510599325196722
O	-1.1897171025409836	-4.644471301519508	-5.1472119151967215
O	-4.3181591475409835	-3.530656671519508	-6.508326565196723
O	-1.2122789385409836	-4.600749951519508	-2.9325683351967218
O	-0.6719426973409837	-2.4973038515195083	-4.261268095196722
O	0.11440319645901631	-4.489382001519508	-5.827144995196722
O	1.3465778724590165	-2.844502771519508	-4.604908935196722
O	2.3640686524590167	-2.4913682515195084	-5.728006615196722
O	1.9865016424590163	-3.3615891515195084	-8.210255745196722
O	2.3731663124590163	-0.8741355790195083	-8.310055875196722
O	0.25439034745901634	-1.9332851815195082	-7.550051975196722
O	1.8406353824590163	-3.421108801519508	-3.400447805196722
O	-1.4786352485409837	-4.165643611519508	0.07870055480327798
O	2.0818411124590166	-3.0961639215195085	-1.132745751196722
O	1.3610606524590163	-2.7166812515195082	1.024308234803278
O	0.9425805424590162	-2.7984408415195086	-0.1554184251967219
O	-2.406613907540984	-5.0267830715195085	-0.09899549519672202
O	3.390061762459016	-2.520342911519508	-0.9414745641967219
O	4.213097922459016	-2.856730691519508	-2.183005893196722
O	4.688489402459016	-4.258127211519509	-1.949820549196722
O	5.338360662459016	-1.8742169915195084	-2.183896373196722
O	-0.3284469395409837	-2.4698992915195084	-0.566829915196722
O	-1.6780354575409837	-2.691317381519508	-0.11955136519672194
O	-2.9609847075409834	-2.8537336715195085	-0.785304672196722
O	-0.3922814245409837	-5.311309681519509	1.390129524803278
O	-1.2987550025409837	-6.184795111519509	2.074933184803278
O	-1.2393098795409836	-7.514847231519509	1.417143414803278
O	-0.6510415352209836	-6.297285861519509	3.456053924803278
O	-0.1294757425409837	-5.8051260015195085	0.025520044803277964
O	2.0779243524590165	-6.107787021519509	-0.8139712971967219
O	2.8453278324590165	-6.0615714915195085	0.407990784803278
O	3.5344928724590163	-5.0660230015195085	1.1707932048032779
O	1.9932922024590165	-6.775312961519509	1.4693050848032783
O	3.2893281824590166	4.914126418480492	-8.183737585196722
O	4.511180422459017	1.6720802284804919	-9.633570395196722
O	7.326823282459016	1.1488919284804917	-7.062907385196723
O	6.083034572459017	3.1528265584804913	-4.144826815196722
O	6.925303042459016	6.2259265484804915	-2.2357355471967217
O	9.427807752459016	6.132211148480492	0.6356244848032782
O	11.064748852459015	3.112291538480492	4.203638714803278
O	7.901935172459017	2.524477138480492	2.033485544803278
O	5.036022272459016	4.751728268480491	3.200045714803278
O	2.0578541224590166	2.3918532684804914	3.310231074803278
O	-1.3901261505409837	3.472950998480491	4.514175774803278
O	-2.7089442775409838	-0.04780686451950833	3.5385529248032777
O	-0.9268972575409837	-2.0105728715195084	6.222714884803278
O	-0.023202894540983676	-1.7707573745195084	9.897491334803277
O	3.4420843124590164	-3.2389613015195087	10.434332134803277
O	6.772694042459016	-1.4719201005195082	10.612437734803278
O	9.043283822459015	-4.064891641519508	8.999844334803278
O	2.7075093724590165	-12.062894321519508	6.332903694803278
O	1.4883363924590163	-13.583106721519508	3.015490524803278
O	5.229408502459016	-12.828007821519508	1.450898294803278
O	7.621237842459016	-11.820908621519507	4.223593294803278
O	8.625460302459016	-11.126866821519508	-4.148185285196722
O	8.413963412459015	-8.501339141519509	-1.2775705981967218
O	11.248609052459015	-4.523379281519508	-5.477363115196722
O	12.631693052459015	0.7455952284804916	-5.616747385196722
O	13.439464152459015	1.1010484484804917	-0.19962871519672198
O	11.453328052459016	-1.5540393685195082	4.721340254803278
O	7.843926212459016	-0.5641253925195082	5.1166970948032775
O	5.949246412459017	1.7604419484804918	7.399053134803278
O	2.3944666824590164	0.45593604848049174	7.880551094803279
O	-3.0054009475409837	1.8977550984804916	9.307524234803278
O	-4.954222797540983	-5.318168311519509	10.768801634803278
O	-1.4833126715409837	-5.619292841519509	12.302427034803278
O	2.5521829524590163	11.975519178480493	-3.4522309751967217
O	-10.419342127540984	2.1201813084804915	12.206938734803279
O	-8.630607207540985	-0.8337576708295082	10.585162734803278
O	-7.728820527540983	0.2126509284804916	7.056746504803279
O	-8.351594577540984	3.8828941484804913	6.320679444803278
O	-9.833758187540985	2.305563018480492	1.4079393748032782
O	-7.0821103675409836	4.9075220984804915	0.8600482648032781
O	-3.8731880575409834	2.988877068480492	0.25018298480327816
O	-0.4867681515409837	4.454299748480492	-0.6670438171967219
O	0.8602619624590163	0.7414224884804916	-0.976359623196722
O	-1.2628034455409836	0.36474929848049165	-3.686948485196722
O	-0.47505197354098366	1.5417104484804918	-7.298152035196722
O	-3.7751349775409837	1.6214799084804918	-8.974514775196722
O	-7.220076757540983	2.9994596284804915	-8.519067115196721
O	-8.981929397540984	-0.27655044651950833	-7.9467734451967225
O	-7.335568537540984	1.5416638184804918	-13.100970165196722
O	-7.969935447540983	-2.1043811315195082	-12.439130965196723
O	-10.583958727540985	-4.467654641519508	-10.998714055196722
O	-10.864912247540984	-5.490789591519508	-7.361577625196722
O	-12.284212347540985	-8.523601581519507	-5.552069885196722
O	-11.435259047540985	-6.788899891519509	-2.267561073196722
O	-8.680188717540984	1.0061041184804917	-3.360193855196722
O	-7.664938627540984	4.656955538480491	-3.824058475196722
O	-4.050670667540984	3.8940873084804917	-4.612648975196722
O	-1.0713827355409837	5.973286858480492	-5.398749145196722
O	-2.1910606575409837	7.104594718480492	-8.841182855196722
O	-5.253747617540983	8.743254928480493	-7.254732445196722
O	-3.3420660775409834	10.096256378480492	-4.296600375196722
