27

O	27.579738378810156	15.644783221007044	19.24110282137286
O	24.958151997666736	14.687810556680391	19.644051032280302
O	24.109964898363966	13.492074090802708	19.624986322881327
O	24.88163447340136	12.407796126829322	19.36929101108423
O	25.3715037541619	12.713617241201531	18.14991905008048
O	26.13645898366079	13.849364474731859	17.831727098926898
O	26.18149062854199	14.677786153708215	18.913663179367447
O	23.515168198989155	13.226052957933863	20.908334240229102
O	23.785259481674455	11.945718840248986	21.55702215116834
O	25.197795660017174	11.756568302846262	21.590826054342124
O	25.70870351947585	12.227991470180909	20.61583274976213
O	23.603871068937973	11.10735566666418	20.4413366968967
O	24.053626403593313	12.762848428128251	22.7096162139904
O	26.872175053005204	13.053033698365835	20.94592556781048
O	27.71980115982224	12.683108809692033	21.822951248794077
O	27.760313052543133	13.540192223777135	22.926827787053295
O	28.893921880553894	14.039139062095694	23.222235519616458
O	26.724603236090005	14.414134312964164	23.31754852257086
O	27.712772139265237	11.336995217671877	21.409698102087262
O	27.15309733982417	10.89962267372265	20.034893238272065
O	26.43654506674926	9.923781473826148	19.37048328960131
O	26.554233771367812	9.798602717532846	17.751335849013067
O	27.660625068235593	11.00446001662015	17.740323479860606
O	27.82684580840336	11.504587973307142	19.01502243943478
O	28.620871099557576	12.776124330673799	19.04223582166907
O	29.76378513280119	12.68588953675718	19.982296530836752
O	30.019657343268793	11.239118350228406	20.052377818246583
