41

O	26.67933804948667	14.895020479503607	26.06381106315241
O	25.546376609879697	14.520619631557595	25.437869726357988
O	25.382850596684527	13.466977487451068	24.539344649500496
O	26.3302384070567	12.560172169872462	24.188652612554236
O	27.37157331744782	13.239827138107756	24.325829922340894
O	27.515632050493856	13.832140595541844	25.652613841646886
O	27.8616759884508	15.797613912136953	25.901147655380942
O	28.739827253869436	12.764791870796863	24.035526885265938
O	29.56097149518954	13.78758279260599	23.895628008149743
O	28.793020475310165	12.008854767673162	22.920519528417476
O	28.802273401480782	13.176130189491573	22.080419515895144
O	27.93830756531113	14.260059884998054	22.507430080762035
O	26.979435605897752	14.312772795611965	21.680498788853058
O	25.993195414175293	14.981182709305791	21.068135249739424
O	25.788920315077448	16.027632558922104	21.848327189729666
O	26.571978093108818	16.06964036151411	22.929816453107435
O	27.887616277624502	15.54519137013589	23.060279495094722
O	28.657052261710355	12.703871859178431	20.667132275581917
O	27.45368974345576	12.149271730992673	21.255098142509524
O	26.365172630546834	11.67658459988033	20.973164787751802
O	25.452483422467353	11.955360373908285	19.778511459888875
O	24.132282082558298	11.709036766941646	19.96782216835572
O	24.496203833266122	10.980770820442407	22.12282524945892
O	24.609154257303057	12.240689231355852	22.56455795305784
O	24.765751181872233	13.311931684430887	23.34576819515937
O	23.997367270589635	14.28142731171269	22.98530465313805
O	23.553872726717223	10.414855080824946	23.091614760122578
O	22.78119575189319	9.3673902390539	22.667759096821623
O	22.51981333305595	11.492224277349875	23.090456333859375
O	22.199848467363893	10.575880933615412	24.231254046217863
O	22.949943248626756	11.305101469970777	25.193977784782593
O	22.373095374226644	12.644123838448177	25.15104310731421
O	22.361266446246955	13.915756071783555	25.62038328791829
O	21.8876358286902	14.835516290774914	24.614074588955646
O	21.144743660074486	14.319933007765885	23.547643698822252
O	20.5249645152416	13.175778989239452	23.88865970272923
O	21.143916862119937	12.342866139769612	24.69063311915598
O	19.10105601367725	12.80534745236705	24.059707064312175
O	18.682971991389472	12.311292831575798	25.40742026628158
O	19.128701275262422	11.379177775885243	23.43084082358395
O	23.859307231578633	10.639120827177182	20.84051153697356
