90

O	-2.1616153291728812	5.586905906728136	2.2200318108542363
O	-1.2434170471728812	4.994558986728135	1.197683420854236
O	-0.989718790172881	3.6277553867281354	1.085661470854236
O	-0.22949698017288112	2.852574584728136	0.15748361685423617
O	0.12299857982711893	1.6185075407281357	0.8311891608542362
O	0.49104168082711885	2.1105220847281356	2.1481551208542364
O	1.131315910827119	0.9749806267281356	2.7054758908542365
O	2.321843190827119	1.5781059017281356	3.134442530854236
O	2.601715000827119	2.6191138907281357	2.2183039408542364
O	2.764241650827119	2.6413535187281356	0.9357847908542362
O	3.0450451008271187	3.9189528267281357	0.5108775608542361
O	2.960255210827119	5.000080466728136	1.3846161208542362
O	1.9233063908271189	4.181642896728135	2.4186076608542364
O	2.317178090827119	4.271568936728135	-0.7549660961457638
O	2.8388434908271187	3.222307142728136	-1.624053689145764
O	2.290613350827119	3.3224309867281354	-2.979701639145764
O	2.721377430827119	1.8061400067281357	-1.2658002661457637
O	4.369021550827119	3.333074206728136	-1.4934376731457637
O	-0.32318562817288105	5.7361341067281355	0.8088082808542362
O	-0.532061185172881	2.566640312728136	-1.2396173391457639
O	-0.975471939172881	3.896279046728136	-1.6925374891457636
O	-0.38758515917288106	4.973571626728136	-2.291983449145764
O	-0.902872727172881	6.284629646728135	-2.2394419891457638
O	-2.160024149172881	6.499134326728136	-1.7524397891457637
O	-2.968465329172881	5.391592686728136	-1.7308832191457637
O	-2.310350969172881	4.185228086728136	-1.6189753491457637
O	0.6088437808271189	0.4908437567281356	0.4083690708542361
O	3.3041819008271185	1.1453202967281357	4.112071830854236
O	2.2127800308271186	1.9387065257281357	4.655723500854236
O	0.06495632682711894	7.228960896728136	-2.005371719145764
O	-4.301709559172881	5.444332586728136	-2.0805936491457637
O	-9.159090009172882	0.7660677867281356	-2.416139079145764
O	-9.80241319917288	-2.5946880132718646	-4.046095509145764
O	-8.446478839172881	-3.3111620432718643	-7.527297199145764
O	-7.174738729172881	-1.5626718532718642	-13.171024279145763
O	-4.621324229172881	-2.0109373832718647	-10.407807369145763
O	-4.869748189172881	-1.3575758832718643	-6.697790539145764
O	-4.201832309172881	-4.470378373271865	-4.619215269145764
O	-1.7349035401728812	-3.2946747232718647	-1.9831432191457639
O	-0.2591691631728811	-5.652844893271864	0.5906552008542362
O	1.4574229108271188	-2.5801982832718644	2.1497008708542364
O	4.0141441908271185	-1.954107823271864	-0.5408475455457639
O	6.266922030827119	-3.7577309332718642	-2.9365874291457637
O	6.267652900827119	-2.004233453271864	-6.276612069145764
O	4.1989402608271185	-2.6721834032718648	-9.373207369145764
O	3.6640376808271187	0.8906352767281356	-10.643271979145764
O	11.21784791082712	8.152461386728136	-6.578437819145764
O	8.599256670827119	7.298206596728136	-4.0665545491457635
O	7.47252898082712	9.974954676728135	-1.5477140511457639
O	4.316443670827119	10.943124846728136	-4.005609759145764
O	4.949189850827119	9.450362336728135	-7.447635299145764
O	7.562939100827119	1.4513906547281357	-12.724316979145764
O	-1.9573371291728812	13.263530006728136	-4.411881929145764
O	-1.417004871172881	9.721984396728136	-5.702894009145764
O	-4.319717419172881	8.988347946728135	-8.014447579145765
O	-7.776659869172881	9.194149886728136	-6.426773369145764
O	-7.663357589172882	2.332268747728136	-10.748405979145764
O	-1.7810470091728812	1.6550613247281358	-10.926765879145764
O	-0.7455186339728811	-0.1834807532718643	-7.792841669145764
O	0.28310155082711896	-3.8076249032718645	-7.220316229145764
O	2.6505476808271187	-3.9937012232718643	-4.261345349145764
O	4.794940770827119	-7.183505763271864	0.03439555185423615
O	8.47901703082712	-8.193450393271863	0.06757421785423612
O	11.52639421082712	-6.853562243271863	-1.768687319145764
O	10.649449710827119	-2.4536951532718647	1.1431555308542363
O	10.744028910827119	-2.151986883271864	-2.638684489145764
O	11.98597431082712	1.1353473367281357	-4.144199949145764
O	9.45833901082712	-10.632788893271863	5.520968500854236
O	9.290017510827118	-6.936140953271863	4.561630740854237
O	5.758983670827119	-5.732719433271864	5.266252070854236
O	3.348778620827119	-8.551759093271864	6.153471730854236
O	-1.752487396172881	-6.269265033271864	7.354927860854236
O	-2.229100639172881	-3.5278129132718647	4.706855340854236
O	-4.983437339172881	-3.503285873271864	2.072058480854236
O	-3.6628673991728813	-0.11113861327186436	0.9128717808542363
O	-4.589686769172881	1.6503826577281355	4.147808350854236
O	-8.44598389917288	2.1994877948281357	4.859719330854237
O	-8.542779249172881	2.236944228768136	8.654160740854236
O	-7.541412099172881	0.05255881672813567	11.567663620854237
O	-4.603836929172881	2.262957231628136	12.670833220854236
O	-7.309284269172881	6.096151936728136	13.928186320854236
O	-3.928070229172881	6.877243826728135	15.413474320854236
O	-0.6074642691728811	5.876579216728135	13.989808020854236
O	2.9735764508271187	6.9832999567281355	14.608569020854237
O	4.194293100827119	3.9760938267281354	12.578848320854236
O	-2.061762299172881	-1.2051352532718642	10.591178520854236
O	-4.8234673791728815	-3.682381083271864	9.846099120854236
O	-6.206956139172881	-1.7318862432718642	6.8880688408542365
O	-9.129818779172881	-2.5239739032718647	4.589412400854236
O	-9.77601288917288	-6.976911033271865	6.198203030854236
