23

O	20.501430151146995	11.223029728097186	18.682747433638003
O	22.657688685512507	9.444480868169	21.587236942230575
O	22.554047732294613	14.537842903317893	23.006880670240584
O	21.673575930760652	10.648994497622542	18.20650374004775
O	22.451455506260988	9.055951417255448	24.018938272824343
O	22.523734068047855	10.148573398280185	19.170911544383657
O	24.51248519332687	13.903545228233424	21.929853051135456
O	20.581035325050784	11.728505050872236	19.981774225125427
O	21.50196871902957	11.196525557219857	20.795706449453117
O	22.430598530095068	10.254032035081059	20.505411441836795
O	22.622612958895182	9.887277919407747	22.844013133129646
O	21.85322082871234	11.019176476580299	23.107672103185415
O	21.519646598353273	11.810017095865618	22.081544693848326
O	22.43776012561914	11.993991785270158	24.125348468112747
O	23.572858554238366	12.488271807129676	23.23189592529456
O	23.665628616021166	13.923642721547221	23.123201946327892
O	24.755864554524905	15.292262634738602	21.50447009906279
O	24.228797481450087	13.054895749992944	20.907495006383066
O	22.885712396296114	13.801879274167623	20.811553930352428
O	23.101588818923606	14.859117886397335	19.879588521946236
O	22.834034191611856	13.677493220067067	18.99256032623267
O	24.12977914602491	12.919979614118455	18.69618408163214
O	24.867973884682364	12.393664078507797	19.87758772562202
