101

O	4.140354191828125	4.019052380671875	1.8284435062187505
O	2.935821161828126	3.646065700671875	2.3793963762187507
O	3.7897457018281258	0.6910422946718747	4.074919846218751
O	0.20327458482812544	1.5063200206718748	2.9615415762187505
O	-0.7495364861718745	-1.5218832193281253	4.462368666218751
O	5.397959261828126	3.5415858006718746	1.8682982362187506
O	5.461594751828125	2.9976077206718745	0.7553681515187506
O	1.9738996218281255	4.603644590671875	3.0589836662187504
O	4.885842161828125	-0.1787777493281253	3.8412258662187506
O	-0.5088517851718746	2.620205060671875	2.3441855062187504
O	-0.6398134801718746	-2.861533439328125	5.0301897962187505
O	1.4815819318281254	5.323721010671875	1.8806599062187508
O	5.374463801828125	0.21491184067187463	2.2870103662187504
O	-0.9910857481718747	3.5929389506718747	3.3272984962187504
O	0.42595826382812546	6.306769860671874	1.9310203362187504
O	-0.7121022721718746	3.6752677906718745	4.7271928862187504
O	1.5113256518281253	4.642080620671875	0.5621990082187506
O	-2.0826913181718747	4.325559060671875	2.6579301562187507
O	6.861169131828126	1.0746103836718746	3.0325854962187506
O	8.003763901828126	1.1904848376718746	1.6071250752187507
O	6.493596971828125	4.408645140671874	2.4308876062187506
O	0.15648037982812546	-0.7791063193281254	3.5643709762187505
O	3.265188011828126	2.6377789506718745	3.3265179662187503
O	4.229045931828125	1.7495920346718747	3.1043174062187506
O	3.2505228118281257	3.0196431606718748	4.5679060262187505
O	2.4460044718281257	0.41853670467187465	3.4136454162187504
O	1.5230489618281253	1.3688137925718746	2.9857523262187504
O	2.6214767718281258	-0.3607095793281254	2.5687560762187505
O	-0.6290192541718745	0.4546193286718747	3.3243680962187505
O	-0.08762292517187456	0.6586223206718747	5.503884766218751
O	-1.8756800681718746	0.051494980671874746	2.9594634162187505
O	-0.7359146371718746	-0.5666385893281254	5.567411166218751
O	-0.19246954597187457	-0.9858161693281251	6.65816674621875
O	1.2287186118281255	1.0701545326718747	6.08893530621875
O	1.7565883118281254	-0.16904749932812524	6.638345046218751
O	2.4529247718281257	-1.1489091993281253	5.944937666218751
O	2.5048932618281254	-2.2450050893281253	5.095754506218751
O	0.15771973482812546	7.926406040671875	-9.40159535378125
O	3.1851514318281255	5.7089664006718746	-9.26263328378125
O	4.544344811828125	2.8335556006718745	-7.25593916378125
O	6.573832221828125	5.020117690671874	-4.82442908378125
O	3.7615611918281258	7.2819082906718755	-3.6847691237812494
O	0.7416457268281254	5.1773069106718745	-4.567013473781249
O	-2.0861722581718745	4.996023790671875	-7.125346653781249
O	-5.312396608171875	6.945776210671875	-6.61666300378125
O	-8.094580498171874	8.642187060671874	-2.8970754637812495
O	-5.308363258171875	6.064134050671875	-2.5373305337812497
O	-6.371807048171875	2.6147986906718748	-3.7742886837812497
O	-5.197165268171875	0.2589799506718746	-0.9926783137812495
O	-5.860621088171875	-3.4952713693281257	-1.0981367037812495
O	-3.7742070781718744	-3.8201194393281255	2.1225336162187505
O	-6.397776198171875	-2.1078406393281255	4.41764308621875
O	-9.977885118171875	-1.8327940493281254	5.16908915621875
O	-10.794922168171874	1.7684190976718748	6.13981442621875
O	-12.104125768171874	4.575043050671875	3.9781620462187504
O	-10.315905768171874	7.562682650671874	5.56678284621875
O	-4.391703658171875	3.8956312606718746	13.28100084621875
O	-0.6583656651718746	3.639006130671875	14.10529604621875
O	-0.10554960217187456	7.1904647406718745	12.118708646218751
O	-3.4436161781718746	8.854954510671874	11.54991934621875
O	4.100310051828125	10.595846830671874	8.334452656218751
O	0.7979226518281253	9.577428560671875	6.66439288621875
O	0.26506326982812545	12.043517420671876	3.8963079962187503
O	2.9949911418281254	12.094865620671875	1.2669961892187507
O	1.3356756018281253	12.310864020671875	-3.9404745637812493
O	-4.026868368171875	12.108707920671876	-2.8110684937812493
O	-7.4331904481718745	9.983277580671874	1.5289510722187507
O	-7.249016188171875	6.200058820671874	1.3931697132187506
O	-9.688770828171874	3.5522157906718745	0.1579580122187506
O	-9.130426818171873	0.32321070067187474	2.069406286218751
O	-9.572587478171874	-5.468461189328126	2.0712092362187504
O	-8.713381818171873	-5.924372829328126	9.63031104621875
O	-8.840861278171873	-10.468558879328125	5.98490849621875
O	-5.9905264881718745	-9.277684279328124	3.8003427762187503
O	-6.030916418171874	-10.585517779328125	0.25085420521875057
O	-0.6318689631718746	-10.753176079328124	0.5814047772187506
O	-1.3988385681718747	-8.636049579328125	-2.4916074437812497
O	-1.0613839831718745	-5.014452479328126	-1.4204420437812497
O	-1.3991910781718746	-2.0063340693281253	-3.7125223337812496
O	-0.5179087601718746	0.2197566806718747	-0.7359782037812493
O	3.0226907318281255	-1.0502138593281254	-0.5199990637812494
O	5.591806231828125	-0.04996682932812524	-3.0623940837812493
O	7.949113661828124	-2.914340219328125	-2.8977784737812495
O	7.916084241828124	-6.694916119328125	-3.50117997378125
O	8.660988121828126	-7.709064989328125	0.048343454218750526
O	17.025425431828126	-0.8079371393281254	-1.7529615237812495
O	12.325994231828126	-2.5392324693281254	-5.380032533781249
O	12.593101031828127	-5.788582239328125	-3.4906012337812493
O	13.095866431828126	-5.6853734193281245	0.24453399421875055
O	12.961642131828127	-7.887853559328125	3.3085986362187505
O	9.917358231828127	-8.525896919328124	5.402025886218751
O	9.324126671828125	-9.825329979328124	8.92762804621875
O	5.549983381828125	-9.932193079328124	8.216396136218751
O	3.9654096118281257	-8.403754379328126	0.22397317021875057
O	3.2131613518281257	-8.255693759328125	-3.49661244378125
O	3.3053419118281258	-4.508786099328125	-3.6716956037812496
O	2.7361735518281254	-2.0776311793281255	-6.46199106378125
O	5.905965731828125	-2.8640141593281254	-8.406682883781249
O	4.736503181828125	-6.429787509328126	-8.77961912378125
O	1.1672056118281253	-5.4378554993281245	-9.53723995378125
O	2.458741391828126	-3.1870560093281255	-12.34233485378125
