42

O	25.285886644423442	12.547345362640291	22.832375401267598
O	24.38063746218956	11.412434285657088	22.750909841698917
O	23.209507065155865	11.027332803957629	22.16761741486679
O	22.41778516538135	10.101141341287269	23.009317399826333
O	23.237603028307927	11.71251897909025	20.92082908799251
O	21.38728695229495	10.353636230545332	23.97334880728075
O	26.345263819042287	12.462464159537355	22.445657235882184
O	25.237739597445298	13.461269403169174	23.90863173832022
O	26.059848374125274	14.453246344032426	24.32482484513487
O	25.363397608794397	15.29457504946438	25.11109892456842
O	24.02708353810988	15.259547056435592	25.30812411804953
O	23.26765444229211	14.384273124766143	24.622224697390834
O	23.94355357431339	13.26087065811791	24.412881139010906
O	24.03401144452156	13.035119270316128	20.950740079686046
O	25.1041973585816	13.426194840795393	20.13046510891863
O	25.87662325638589	14.610273514102467	20.416293755663446
O	25.456413723461402	15.53029219019827	21.318698316603612
O	24.153995420951787	15.392081435370297	21.668800298478878
O	23.413235306983555	14.249615902779095	21.28133596872325
O	21.19080064795037	10.282976477045283	25.32753598538539
O	22.453880220955455	8.754774753253162	22.716564178686966
O	20.42706297114614	11.455324347875504	25.75882630135019
O	21.132546258530564	12.585300594028253	26.363660491143165
O	22.361152922963868	12.418478375007059	26.88561763861199
O	23.184049560214543	13.360294723779326	27.562812899740116
O	22.346334278647866	14.428825956829515	27.98394648429365
O	21.08836156199548	14.710565257955766	27.54597720899536
O	20.593891578025893	13.851905511730774	26.61598767196108
O	24.42065400162732	13.533687421889212	27.97004252995915
O	25.734161056021474	13.686589790254828	27.856714303071396
O	23.24340430355682	16.281043196555373	25.636247619766632
O	22.14521994202375	16.1460900013845	24.953198373569556
O	22.175080371857142	14.951648682249987	24.3334138262398
O	26.216804171827743	16.10608845326148	25.99051226689689
O	25.66410923938369	17.128922712279937	27.327577532997665
O	24.64958851408779	18.305607066544745	26.496729924686633
O	23.904863952576378	17.630060351055945	25.46451891320364
O	20.986109852668772	14.673407179336873	23.45428501190667
O	20.663825580089473	13.35692541929414	22.965531005422427
O	26.833007703418186	17.011381484052837	25.058937700947087
O	26.966298867616562	17.47124360138589	27.87056657892827
O	24.790754508674365	16.57254582184318	28.363563761266494
