79

O	1.0469802560163934	1.5781434813109834	-3.3740298803442625
O	2.1699301260163937	1.0220540243109832	-2.591225600344263
O	0.6507423360163935	1.0209428763109833	-4.599772190344263
O	2.2500688760163934	-0.4129520496890168	-2.3715403803442627
O	0.026959775016393406	1.8411701063109833	-5.542386090344263
O	0.4335497630163934	3.6992275103109833	-4.171618130344263
O	2.8005346760163934	-0.35006449968901665	-0.8961120373442628
O	-0.0878593799836066	3.2171100403109834	-5.370157000344263
O	4.084548416016394	0.41769233431098335	-0.7570225123442629
O	1.8076983560163935	0.47363705031098335	-0.26263918334426284
O	5.0416401960163935	-0.45804531968901674	-0.18007190234426285
O	4.164842716016394	1.5496898993109833	-0.16214842634426285
O	2.1741382660163935	1.5529264643109832	-1.1900126453442628
O	3.2838794560163933	1.9031474103109831	-3.0672902403442626
O	4.500864836016394	1.6726846463109832	-3.217879130344263
O	2.6157611560163936	3.202050270310983	-2.834050360344263
O	1.3027760360163934	2.956484550310983	-3.382129290344263
O	6.371400886016393	-0.009030300689016668	0.07626667565573719
O	-6.3125214639836065	7.117103820310983	-4.936261620344263
O	-6.676226273983606	4.507420700310983	-2.2545097003442627
O	-9.497054573983606	2.6414606903109834	-0.5251756953442628
O	-10.751551653983606	-0.5941147096890166	-2.041211170344263
O	-12.237815453983606	-3.9853708696890164	-6.819250430344264
O	-9.132686333983607	-4.407736889689017	-4.716416750344263
O	-6.893571443983607	-1.8242337496890166	-3.0154646603442625
O	-6.678742843983606	-2.419129409689017	0.7593999196557372
O	-2.9319702939836065	-2.150933679689017	1.4663815796557373
O	-1.4971472239836066	-2.6879760096890166	4.957411339655737
O	1.9354111960163936	-1.7494398896890169	3.578396559655737
O	2.4478204060163935	-4.875595519689017	1.4040236196557374
O	1.9029213360163935	-8.600222309689016	1.477464579655737
O	0.8540561460163936	-9.757712869689016	-1.9996902003442627
O	-2.6104097039836067	-10.330845369689015	-3.3886459703442626
O	-2.1049652239836067	-9.174027569689017	-7.000686740344263
O	7.794577946016393	-6.080572819689017	-7.863677910344263
O	9.586443846016394	-2.7475588396890167	-8.481372670344262
O	6.438967136016394	-1.5845224296890166	-10.858647390344263
O	4.332340756016394	-4.617556719689016	-11.710783090344263
O	-0.1918303919836066	-12.816282369689016	-8.656835050344263
O	4.4354556360163935	0.6909786443109833	-15.061716290344263
O	2.7505557160163936	3.509341840310983	-13.130896490344263
O	0.8769417160163935	0.8506170543409833	-11.128428190344263
O	-2.7558823439836067	1.3218604533109835	-11.992268590344262
O	-4.302792093983607	4.740366150310983	-11.333732890344262
O	-9.235810403983606	4.783702180310984	-8.957576310344262
O	-9.552455003983606	-0.6299095996890166	-8.451081190344263
O	-5.802789253983606	-5.184525109689017	-7.895419700344263
O	-4.137774863983607	-4.891794759689017	-4.5099208803442625
O	-4.673489813983607	-6.7958757196890165	-1.2489615143442627
O	-1.4532782239836066	-6.856124009689017	0.7541064696557372
O	-2.412740853983607	-7.291118329689017	4.387286209655737
O	1.0412131360163934	-7.225255599689016	5.972904399655737
O	3.2422365860163933	-10.200375369689016	6.864323359655737
O	7.871050436016393	-8.783134159689016	2.9912028196557374
O	5.969764026016393	-10.885290269689015	0.45024651965573714
O	5.892402536016394	-8.763873289689016	12.122964709655738
O	6.8545284960163935	-7.6713452496890175	8.592772979655738
O	5.292252786016394	-4.2688517196890166	7.945348449655737
O	2.8775514660163934	-3.2106630796890165	10.685047809655737
O	0.9271985860163934	2.0007445803109833	9.469805609655738
O	0.2639380200163934	1.9537491103109832	5.7235807896557365
O	-3.1568301739836064	2.349854910310983	4.086655489655737
O	-1.5018494139836065	2.202108800310983	0.6941823496557372
O	0.3469160390163934	5.510498430310983	1.209429779655737
O	-1.6643755939836065	8.748455950310984	1.0582231696557374
O	0.4105566280163934	11.025621030310985	3.267100539655737
O	1.7751602460163936	11.128875630310985	6.771171129655737
O	5.433073186016394	10.659726990310984	5.812252729655737
O	2.6612218860163934	15.569357330310984	5.162133059655737
O	5.859680826016393	14.801585630310985	3.2772576596557372
O	10.585765046016393	10.106834290310983	3.828982009655737
O	13.964609846016394	8.415283310310985	3.4367651696557373
O	12.403856546016394	5.129280730310983	4.614533459655737
O	4.606702596016394	6.216716610310983	7.366579159655736
O	1.1647221860163934	6.687249840310983	8.872324599655737
O	-0.6914579519836066	6.792384610310983	5.5808456296557365
O	-4.3637028539836065	7.138954090310984	4.738003079655737
O	-3.7555594639836065	9.817136600310985	9.321371279655738
O	-5.822611753983606	6.644698280310983	9.278153079655738
