27

O	17.929761489355975	9.610401054469879	18.385114106392656
O	21.547445883736476	11.870379083123	23.810843393586975
O	19.810868788366015	7.42334439341354	18.60640170439126
O	19.316478636942964	9.882274168842283	18.886354937810218
O	21.79162646732525	10.158057267529918	22.467133621151973
O	20.861697044433512	13.47627491228726	22.19511987253687
O	19.66616274167056	10.723574565141	19.98506773971502
O	21.664369935365876	9.630019884110634	24.83453501135409
O	21.005282918793135	10.848260063423139	20.36894459944211
O	21.79331431768142	10.4026895256433	19.28824986152232
O	21.418740498522077	9.178960323930678	18.681049465982433
O	20.019627086905277	8.744749124045997	18.71330000778419
O	19.29872846271685	6.749469801794609	19.71691159433396
O	21.759944280932945	11.303363497679918	21.536579296964874
O	21.169358301624705	12.274526686919433	22.523492844434085
O	21.96544487130783	10.50782334278253	23.701835836305506
O	21.768226210927214	12.57027579468981	25.02295453374805
O	22.981981425211302	12.058647676190619	21.186364058645186
O	24.409636039138903	12.319179638388974	20.964433315199642
O	25.19842119503273	13.433414078761825	21.66324897774222
O	25.475464805359998	13.277604807709679	23.0927065697565
O	24.076859941554403	13.224249534601588	23.48818361743085
O	23.390966576330587	12.188621253133832	22.7269844655756
O	23.52428412707167	14.569542188997993	23.72742233076038
O	23.36684391465189	14.67491213448627	22.279382629419768
O	24.82856495692144	14.869551707261426	21.853111885469474
O	22.80010136373795	13.641253805023155	21.391898309673763
