85

O	3.7803444016530614	-4.554978250918367	2.7652977586530607
O	5.8989357416530614	-3.2662615909183668	3.199080118653061
O	5.0198652216530615	-1.340242620918367	3.042020358653061
O	4.899659021653061	-3.8688778209183674	2.305460358653061
O	1.2101194416530612	-1.5337759209183672	2.411839308653061
O	0.14062914165306117	3.213551179081633	5.741277718653061
O	4.611599511653061	-3.136886640918367	1.1923063226530608
O	1.475522221653061	1.5243178190816329	4.9346467186530605
O	3.3517696516530613	-3.0542791709183668	0.6015062586530608
O	-0.5314241983469389	2.189700619081633	3.764990808653061
O	2.2661508116530613	-3.4405503409183673	1.3545585876530608
O	-0.7220830203469389	0.5513173420816329	2.2730683486530605
O	2.4958784616530614	-4.2332295509183675	2.447001718653061
O	1.026770611653061	-2.6167276009183675	1.5182702486530608
O	5.606182041653061	-2.036899230918367	3.882612468653061
O	4.9408421716530615	-1.771664200918367	5.20170188865306
O	0.7010436776530611	-0.7470839809183671	5.572490828653061
O	1.2848549916530612	0.4628460534816329	6.00730993865306
O	2.3836772316530612	0.13123630708163286	6.82083018865306
O	2.4967223716530613	-1.1618538409183672	7.3764335186530605
O	2.044704071653061	-2.2662847009183675	6.60145587865306
O	0.8022170016530611	-2.0044334309183673	6.04254802865306
O	2.3296752516530614	-0.12926656491836708	3.958402708653061
O	1.5531766516530612	1.0892954930816328	3.5981602686530607
O	1.989394281653061	0.9614449010816328	2.2916827286530608
O	1.228696331653061	-0.30476252291836714	1.7983201246530607
O	2.2234881516530614	-1.4513904609183672	3.3267044686530607
O	0.056233308653061156	1.082616438081633	3.373686988653061
O	0.5642309356530611	2.6264095190816326	4.658697658653061
O	-2.6705577783469385	-2.4872254109183674	2.2498194786530608
O	-1.919929738346939	-1.272612650918367	1.8084325166530608
O	-1.702485628346939	-0.3324077849183671	2.811049438653061
O	-2.090986648346939	-0.20844212991836708	4.177044608653061
O	-2.4033317583469387	-1.604304430918367	4.620955698653061
O	-2.3490149683469386	-2.7394507309183673	3.6836406386530607
O	0.32980030865306115	-3.069482780918367	5.32069413865306
O	4.893360801653062	-6.391637180918368	-4.877555601346939
O	2.4069156016530613	-3.7487145509183675	-5.92113928134694
O	0.6373299336530611	-2.870087220918367	-9.286890941346938
O	-3.9280301783469387	-4.054623710918367	-6.048641641346939
O	-3.6943139283469386	1.387290948081633	-3.498681691346939
O	-3.9481301283469388	5.210261189081633	-3.189632581346939
O	-2.9259941083469387	4.765132409081633	0.4768248586530608
O	-6.258798598346939	3.2048235990816325	1.5859840226530608
O	-9.933336918346939	3.3524824090816328	1.1942175716530607
O	-11.445445628346938	-0.1434336249183671	1.1916165576530608
O	-11.337937428346939	-5.849016220918367	-0.12523516134693913
O	-7.757401038346939	-4.029311170918367	9.571913228653061
O	-4.361714108346939	-4.374924690918367	11.371843958653061
O	-3.6272021883469385	-7.696084270918368	9.058709728653062
O	-6.865864858346939	-8.910102830918367	7.4155015686530605
O	-14.944369928346939	-6.543688310918367	2.3441122886530605
O	-1.8964488083469389	-12.525783330918367	8.33976453865306
O	0.9567024116530611	-11.554344730918368	6.0873650286530605
O	-1.4533546783469389	-9.695233730918368	3.772276918653061
O	-1.209609278346939	-11.680295730918367	0.5703412646530608
O	2.244394491653061	-11.675959930918367	-1.0740984813469392
O	2.2357008016530613	-10.877232030918368	-6.424435431346939
O	-0.5433718313469389	-12.363479630918368	-8.558017111346938
O	-3.1578171883469386	-10.106610030918368	-6.8798420013469395
O	-7.505853988346939	-8.092525630918367	-3.402128821346939
O	-6.9506618683469386	-4.398645450918368	-2.872535201346939
O	-8.478798218346938	1.6183831390816328	-1.9458671713469393
O	-8.017876868346939	11.278045169081633	4.308278148653061
O	-4.895301748346939	10.040798879081633	2.637879228653061
O	-3.8346306883469388	11.908925069081633	-0.4550593713469393
O	1.1072616816530612	9.798011989081633	-2.2445221613469393
O	0.8100986656530611	6.050547089081633	-1.8789845513469394
O	0.8653263716530611	3.546053399081633	-4.77145603134694
O	0.6271293576530611	0.7949107130816329	-2.163992391346939
O	4.175579801653061	1.662426409081633	-0.8968662613469391
O	7.252000901653061	0.6345391950816328	-2.721878551346939
O	9.75383101165306	3.2128087190816332	-1.4740953613469394
O	10.097984171653062	6.950877589081633	-1.203214101346939
O	9.85216227165306	7.193321389081633	2.577992378653061
O	14.506237171653062	5.385741059081632	-0.13930204134693924
O	13.923905971653062	4.691370179081632	3.516727858653061
O	9.518018971653062	6.7699632290816325	8.12212079865306
O	8.087063981653062	7.445598869081633	11.586915058653062
O	4.711098191653061	8.141055479081633	9.944049598653061
O	5.408071171653061	8.551006389081632	1.639728482653061
O	5.575211651653062	5.402712879081633	-3.0099163713469395
O	5.579445461653061	3.410906759081633	-6.18591795134694
O	8.510836611653062	7.809395049081632	-7.11891205134694
O	5.236596741653061	7.364344819081633	-8.945344771346939
