20

O	18.364130972829198	12.572982403833787	25.487380322390376
O	22.299843746441837	10.155300902237279	23.21583808559777
O	21.59744071173001	9.66004686400197	22.267711950292725
O	20.76773167154339	13.013472725381222	22.03238419435139
O	21.351251941560285	11.911465000689383	22.12309684831481
O	22.466910370309304	11.527540123038792	22.93799322967362
O	21.05855850057988	10.672387381005544	21.39809937353161
O	22.98203954376694	9.514677594727775	24.31033411672304
O	21.54507392455163	10.594514962741838	19.990380481855393
O	19.568408290103385	10.612701189300969	21.218048062344714
O	23.266699150648023	12.458295227549673	23.77477812226576
O	22.284057264352462	12.866782522570414	24.85377458724294
O	22.43569761423295	14.25132295637911	25.040980583673377
O	21.30751821000044	15.071025465757625	24.930369086146104
O	20.184664039170997	14.427433529303144	25.373220871466042
O	20.024512018865792	13.075515852623044	25.461381848874154
O	20.986037665077017	12.30962290978961	24.85121166575398
O	23.798790263732407	11.557029332616107	20.475953837557057
O	23.45468532423051	9.113948630682785	19.955581882641475
O	22.99310882158257	10.526737959078956	19.746114589384998
