26

O	21.79816001712498	11.233910706019184	17.843519310099794
O	25.83218386141682	11.737602131538365	20.977588190337773
O	26.61092359340831	10.738151159767376	21.400878961250775
O	27.67567491199559	11.143594627884525	22.05153800267204
O	28.344197381776574	12.191021760904082	21.305481003175007
O	27.482074471170016	13.248371520754105	21.153525231453468
O	26.441183605847748	12.803755781421359	20.380748059446308
O	22.3799642314995	10.720510641623694	20.46833877554564
O	20.886022967139095	12.100192919759687	21.750399077410464
O	22.034851147723124	12.795351639363018	22.841744465192953
O	21.894396456141852	11.750647587760575	24.26612383215803
O	22.210512174934635	10.42250752768959	23.74166301131711
O	21.550911828215632	9.955190733955126	22.593030425148946
O	21.24922687495401	10.725328375982365	21.38705373404008
O	20.393374681058535	9.952944751906491	20.463247258029497
O	22.52193563538402	9.699875693988648	24.823910556054035
O	21.972377544225957	14.103046281019383	23.411333817344964
O	22.397101665620642	12.325616565554755	25.47602075723941
O	23.51448970529971	12.803711431445777	22.68771550706538
O	23.796495560084367	10.032979959341265	21.054922229089872
O	24.798972098312106	11.042150783633758	20.14903937936608
O	24.042668646889	11.636252775274173	19.19719661463739
O	22.697869104346502	11.355519439240183	19.313435221640255
O	28.747643795873774	10.055899020733989	21.909588234360754
O	29.243567544005288	9.319123058066754	22.70344634648369
O	30.41813172786396	8.858048721023145	23.517654462148734
