102

O	-0.8246135432666677	5.237799003233334	1.4926706794366664
O	-0.35660351726666767	3.968605433233334	1.8383241994366664
O	0.9442022337333325	3.719692353233334	1.8502826294366663
O	1.8538274137333322	4.475224983233334	1.2058834164366665
O	1.2952377837333324	5.339688673233334	0.4654051013366665
O	0.017319536733332308	5.907735133233334	0.5904114204366665
O	1.7877782037333325	3.059649073233334	2.6922951294366664
O	1.6878860437333325	1.855269213233334	2.1794435694366667
O	1.7163869037333324	3.6000190732333337	3.7788181094366666
O	2.049138003733332	0.6221692832333339	2.5859329694366666
O	3.4456735637333322	0.6352968332333337	2.3697031894366667
O	0.7981214237333323	-0.1292511767666662	2.4146107894366664
O	0.5287546137333323	-1.3172575667666662	2.9059069794366663
O	4.090164023733332	2.0116389653333338	2.1134813094366667
O	-0.32461295826666764	0.7445076332333338	2.7024224294366666
O	-1.6803616562666677	0.5917798532333338	2.6662099994366666
O	-2.1632823362666675	1.487095666233334	3.6080242994366665
O	-0.8942119752666676	2.050384519033334	4.314718499436666
O	-0.12349439926666761	0.9076302832333338	4.561986819436667
O	-1.0200105632666676	2.782897669233334	5.311933679436667
O	1.0183511437333324	1.1005456752333338	5.205354109436667
O	-2.9219607462666675	2.7180733812333338	3.5250012994366666
O	2.189924773733332	0.3544233232333338	5.345429979436667
O	3.224985863733332	1.437851032233334	5.632551099436667
O	2.7535048037333327	2.580334074233334	6.411780679436667
O	1.3451025237333323	2.917397341233334	6.687477789436667
O	0.49562411373333237	1.7309680102333338	6.427589659436667
O	4.473921953733333	2.977014969233334	3.0628174794366663
O	4.543221193733332	4.391715853233334	2.8395970494366662
O	4.652053913733333	4.880917083233333	1.5494309294366664
O	5.114252623733333	3.8598740632333337	0.7945178454366666
O	4.918388033733333	2.458367717233334	1.0911951514366667
O	2.0189815237333324	5.171494523233334	-0.7528145205633335
O	1.2286697337333323	4.093801323233334	-1.2815620105633334
O	2.087611413733332	3.003153569233334	-0.5661274585633335
O	3.3131275437333327	3.348050913233334	-1.5546859005633333
O	-1.2824854122666678	5.691642893233334	2.7782365594366665
O	-0.9783318352666677	5.575658203233334	4.215354319436667
O	-1.7469700562666677	6.439930853233333	4.8213431194366665
O	-1.9354581962666677	7.532767313233334	3.8057081694366666
O	-2.2284059362666677	6.646352993233334	2.5861953994366664
O	-3.391938856266668	6.244014893233334	2.3953130894366663
O	4.320165933733333	2.8368477222333337	-8.009867220563333
O	6.483164803733333	5.137113213233334	-5.966501230563333
O	8.437180053733332	2.354310738233334	-4.276389190563333
O	6.115597543733332	-0.5947898567666661	-4.560315350563333
O	5.826848763733333	-3.9371161667666663	-6.343202650563333
O	7.407159883733333	-7.076301336766667	-4.861837120563333
O	8.516348183733331	-9.088572746766667	-0.45209673056333344
O	6.2363526537333325	-6.092965706766666	-1.0092231105633336
O	2.7954850437333327	-7.047797816766666	-2.2654090705633334
O	0.39677207373333245	-5.060543086766666	-0.10292783356333346
O	-3.3744152262666676	-5.347976546766667	-0.3566071645633335
O	-3.684624986266668	-2.426488096766666	2.1976224094366663
O	-2.2560849062666675	-4.164851406766665	5.149611679436667
O	-2.6135681962666677	-7.710937366766666	6.859427789436666
O	0.7561109037333325	-8.701591846766666	8.289120229436666
O	3.506680573733332	-10.829787746766666	6.7927188594366665
O	6.579290073733333	-9.037766546766667	8.185713899436667
O	2.786166363733332	-1.0420886367666662	14.012972699436666
O	2.886353953733332	2.796550937233334	13.881601399436667
O	6.715144033733332	2.446742941233334	12.291238799436666
O	7.986227463733333	-1.108062026766666	12.680970999436667
O	10.78943708373333	5.251932223233334	7.956777839436667
O	9.794983783733331	1.5635378882333337	7.119088179436667
O	12.593062883733332	2.524895501233334	1.4621489194366664
O	13.105595083733332	-0.33788914676666604	-3.1610605405633336
O	12.382219783733332	-5.393993516766667	-0.9909840805633335
O	9.586738583733332	-7.560789586766667	3.8237417594366665
O	5.888964643733333	-7.056596746766667	3.2491837694366663
O	3.0512150537333325	-9.419855646766667	2.4022540194366666
O	-0.20376230326666767	-7.999222546766667	3.8443589794366666
O	-5.909176646266667	-7.859017226766667	3.5028394694366662
O	0.9209658737333324	-4.021298396766666	-11.785941300563334
O	-13.753871116266668	-7.952917046766666	4.992246639436667
O	-11.043818216266668	-5.784936226766666	6.647973869436667
O	-9.413350036266669	-3.707386916766666	3.9596846494366664
O	-10.480431546266669	-4.647549806766666	0.4287218702366665
O	-10.341049096266667	0.5373099132333339	-0.6833240405633335
O	-7.981448956266667	-1.048345246766666	-3.227116970563334
O	-4.472432616266667	-0.7697110867666663	-1.9411488805633335
O	-1.3653877662666676	-1.9452938167666662	-3.9034512705633335
O	0.6101548037333324	-0.6012278567666662	-0.9275133605633336
O	-0.7580472792666677	2.8361697942333337	-1.7366518705633336
O	1.1032111237333324	5.023414183233333	-4.399677090563333
O	-1.5858787052666676	7.4964836732333335	-5.195230470563333
O	-5.228628116266667	7.597180393233334	-6.1235834105633336
O	-6.372575516266667	9.227182853233334	-2.8841422805633337
O	1.5344216937333324	16.354007853233334	-5.773017670563333
O	-3.830545466266668	12.098240753233334	-7.086847400563333
O	-3.9358401662666678	13.436489153233333	-3.5525160705633336
O	-6.240337366266667	14.175442353233333	-0.6668477705633334
O	-7.225484016266668	11.741002983233333	1.9923285094366667
O	-8.895255806266668	12.119586053233334	5.385213449436667
O	-9.293573386266669	8.321104183233334	5.5117219894366665
O	-7.704517146266667	4.7246692232333345	-1.8948200205633334
O	-7.1695059862666675	3.1200235332333337	-5.259723900563333
O	-3.3977775862666677	2.915431492233334	-5.001648830563333
O	-0.7601013342666676	1.5903633902333338	-7.363865270563333
O	-1.0970133132666677	4.281771123233334	-9.990895700563334
O	-4.722240846266668	3.281790473233334	-10.514828400563333
O	-4.0012750462666675	-0.4159267867666663	-10.350069400563333
