48

O	26.36127091049314	15.37684955785806	25.19253708229841
O	27.167459925384392	14.597512517771252	22.03931418973193
O	28.52131978467487	13.348372722132218	23.47709127992627
O	21.26950478338492	13.831483863218262	24.40930580300415
O	26.78231195699957	14.38456561366372	24.391100398910066
O	23.68031539899324	11.246559448307423	23.141419922868362
O	24.54386837622253	12.784515054643023	22.202094237249305
O	25.980437435353238	13.313829650692936	24.196048864884144
O	21.309547250631454	9.681343559618071	25.482575779339754
O	21.235562289679695	8.885455380511292	22.519347766643502
O	24.672623962975827	13.129780096635567	24.59093785623885
O	21.623932186925327	12.281279944587883	24.528166467703176
O	24.45190521953105	14.054414590454904	25.557574858749085
O	27.395747954344465	11.775822873635414	21.745352953720282
O	25.05676118142008	15.29849174842731	25.687277378282023
O	19.853740876061593	14.080434070841367	24.629813406389726
O	27.779882552330058	14.36295229884004	23.300015710089642
O	21.70816897114282	14.923741676423724	25.263372678948734
O	27.86613077338861	14.085309629180701	20.913370582757725
O	25.79022602912333	14.74647813249556	21.53550574817652
O	25.88292131770552	15.406633335869392	20.21078064392582
O	27.21507250806704	14.720690333829127	19.79367227616129
O	28.17243874974505	12.691371780781193	21.12012088574805
O	24.380711244878466	16.607196225005943	25.772067163136324
O	24.270534058033924	12.432514105747678	23.39752852204592
O	22.704006867786145	10.634490967510494	22.355825463550126
O	22.20904322894573	9.52568055759919	23.31850821515728
O	23.226411794526946	9.903076888305277	21.175434356944844
O	23.795378051073286	10.997391886431366	20.319707988887615
O	25.036568159441366	10.913643267890292	19.75585712321436
O	25.671658508950543	11.865554300006256	19.009085812859453
O	24.82537367378517	12.826454722560275	18.53492008967804
O	23.666073420938734	13.114512288377922	19.180781178802167
O	23.01360268849788	12.003005492060844	19.7408679798176
O	20.814930238685275	11.466299220607407	23.608059110134963
O	21.02591137532678	11.960196285585239	25.841893840219058
O	21.740586027597747	10.75304966527105	26.33787993919095
O	21.319501089540903	10.241940692643045	24.228315171923885
O	23.61089258116253	17.1922827114443	22.607363731748688
O	27.937202285374042	10.570542569696782	21.34207731423173
O	20.753731017176232	14.230476681269762	21.899268745724676
O	20.69499031555142	15.521888157953802	21.334426283514613
O	21.35684171716461	16.621451225126552	21.963236309785444
O	22.720596029188265	16.100940509909744	21.891929540650125
O	22.69373471421379	14.983615363774751	22.666481713771816
O	21.793673830103785	13.988360799614103	22.711777912161367
O	26.68114087773061	11.466123805771627	18.207261609748944
O	23.120400484803184	14.323928343731565	19.01497762020511
