35

O	25.478081000473992	13.286116465199482	22.241085844872885
O	24.121183542891757	12.795246275013042	22.652047500313582
O	23.593361500121404	11.531845359099705	22.521921930493185
O	22.382105088362973	10.872592969584087	22.24781574857127
O	22.40898656691024	9.690878326350907	23.155377687028974
O	22.31827268076923	10.482957359182212	24.36655318605718
O	21.035080373493233	10.089496584348792	24.6829677267249
O	20.190076460174673	11.072931022862363	24.102302284219927
O	19.7534815277405	10.846712327346438	22.790174002379075
O	18.23250938491727	10.835524619188057	22.69415803841257
O	17.75186775677015	12.129380115886228	23.284204339974533
O	18.19564322686094	12.307465098682586	24.706485466203667
O	19.162515958650573	11.228777377582524	25.180262070710683
O	20.820198213546814	12.393852532769797	24.031045889258397
O	21.65085416290034	12.452962631457716	25.10641996060025
O	22.144699046039847	13.512589474510495	25.77655589667158
O	21.607343887725097	14.689094761242284	25.229967593321835
O	20.686621320950593	14.722119841358426	24.180003035780256
O	20.288923199819997	13.536232327464937	23.54244438919969
O	22.15916068537128	13.180519602733728	27.20265876149544
O	23.111557216402158	13.505716809540711	27.975774077388223
O	23.133504152463534	12.534255191132008	28.9476029867719
O	21.78361508610226	12.337830798163651	29.214115014191595
O	21.20680708412352	12.589635003889864	27.968599251705232
O	23.305186140787804	13.726271574940728	22.65385230428012
O	22.44748857347158	10.091131668829462	20.974107272854443
O	22.799192419576833	11.358041493957174	20.24725545814131
O	21.899052810456766	12.349699461317527	20.153186606647118
O	22.40605762117423	13.548036752683561	19.62249107464072
O	23.771481194395186	13.629933456987573	19.358349619239792
O	24.54529108200141	12.485370298869965	19.18071690077322
O	24.100443596169548	11.370924371370089	19.832350350395796
O	21.595401384379006	8.663922594235478	22.815071724983593
O	21.88571834794469	14.701457048698144	20.155627385909074
O	25.908412202040257	12.648275189884341	19.147574213296295
