97

O	2.217338396140351	-2.956646676392983	-0.14521593143859715
O	1.366637841140351	-2.3886972763929832	0.9042915455614028
O	1.0616778681403511	-1.0221534763929832	0.4572872565614029
O	2.215543916140351	-0.2967184643929832	0.3455367995614028
O	2.2105569561403513	0.8798495926070168	-0.4004158464385972
O	3.556161026140351	1.2894618416070167	-0.2698275114385972
O	2.291179906140351	-2.422975146392983	1.8367199685614028
O	3.776540036140351	-2.135608586392983	1.280517558561403
O	5.055794216140351	-2.2689655463929834	1.661811678561403
O	6.184998486140351	-2.0261535063929834	0.8689824065614028
O	6.152829576140351	-1.8375241463929832	-0.4676900194385972
O	4.923820706140351	-1.671434026392983	-0.9189366504385972
O	3.9092870861403513	-1.8524482363929833	-0.08468783243859715
O	0.23038838614035106	-0.5270601463929832	1.3676422085614028
O	4.138071696140351	0.8183496726070167	0.9533982775614028
O	5.462022616140351	0.9540736646070168	1.143160038561403
O	5.993515036140351	2.295070703607017	0.9697653595614029
O	4.752679916140352	2.9149837436070167	1.3771129485614029
O	3.987495546140351	2.624833713607017	0.12718809166140285
O	3.093864546140351	0.8513483826070167	1.806324218561403
O	3.509259696140351	0.3733724936070168	3.096572798561403
O	4.761532056140351	0.7715879646070167	3.103704128561403
O	5.869037866140351	0.5375846237070168	2.4381024385614025
O	2.342777306140351	-0.15799935639298324	3.6353294685614026
O	2.507511506140351	-0.8200469163929831	4.925498048561403
O	2.2178109961403507	0.2192005556070168	5.956093318561403
O	3.941096986140351	-1.1824409863929832	5.016404218561403
O	1.477392527140351	-1.8873777563929832	5.032890048561403
O	3.922128076140351	3.5211572836070166	2.3315626085614025
O	5.176540386140351	4.121529553607017	2.8456666885614026
O	5.280063006140351	4.351357803607017	1.280762238561403
O	7.503279556140351	-1.659418666392983	1.200643708561403
O	7.982814696140351	-0.6425848563929832	0.31490564256140285
O	7.183715636140351	-0.9995888163929831	-0.7633641774385972
O	3.143948286140351	-3.9686642663929836	0.3685775365614028
O	2.9841164961403512	-4.450253046392983	1.546167018561403
O	3.509241846140351	-5.1040771163929834	-0.5378447834385972
O	3.604490916140351	-4.439666676392983	-1.849453231438597
O	2.266823396140351	-5.700359886392984	-0.5895994414385972
O	1.177965619140351	-4.8280366663929835	-0.27583579143859716
O	-0.49121033385964896	-9.820694546392982	-6.411160951438597
O	-2.706889083859649	-6.861655886392983	-5.776438841438597
O	-6.325154933859649	-5.9818755963929835	-6.452885941438597
O	-8.96515798385965	-6.863170146392983	-3.8977856014385974
O	-9.538544093859649	-7.449976716392983	0.9628165185614028
O	-6.448266253859649	-5.876245076392983	-0.7070275584385972
O	-7.243285663859648	-2.338742846392983	-1.8747214714385971
O	-4.231165043859649	-0.35029308339298315	-0.6501776614385972
O	-4.089198613859649	3.446016853607017	-1.191013041438597
O	-0.538309503859649	3.235440673607017	0.2903291475614028
O	-1.462802073859649	2.3899333636070166	3.848837568561403
O	-4.046773093859649	3.3701841236070167	6.439266938561403
O	-5.019184823859649	0.2855762266070168	8.399401588561403
O	-7.926170763859648	-2.0728986063929833	7.911743938561403
O	-6.301089803859649	-5.373431536392983	8.893472408561403
O	2.923590646140351	-3.815562856392983	15.144451298561403
O	3.515117056140351	-3.1737394563929833	11.492338998561403
O	6.933703766140351	-4.137842326392983	10.287513098561403
O	5.385554346140351	-7.746053106392984	8.988714758561404
O	2.077592876140351	-8.280922386392984	10.656829098561403
O	5.682688256140351	-12.704702046392985	4.479663078561403
O	2.3835261361403512	-10.785849746392984	4.625312068561403
O	0.701006230140351	-14.004159546392984	-0.7182056644385972
O	-7.114899883859649	-11.980791246392982	-0.4095452984385971
O	-6.849114663859649	-8.728983836392985	4.554912618561403
O	-5.836309123859649	-5.209476316392983	3.5822359385614027
O	-7.922127863859648	-2.043805326392983	3.2962001085614028
O	-5.793188023859649	1.0196602046070167	3.9129687885614026
O	-4.796067333859649	6.587709283607016	3.0185834685614026
O	-4.921569703859649	9.081375983607018	5.9148804085614035
O	-4.652320433859649	8.653335383607018	9.682496768561403
O	0.34410709314035104	7.089759483607017	8.584998538561402
O	-1.9284735338596488	4.713873533607017	10.483576198561403
O	-2.970426063859649	14.341540553607018	3.6420502685614027
O	-0.893699343859649	11.304886453607018	4.802555628561403
O	-0.1520739278596489	9.197086113607018	1.742710518561403
O	-1.967386433859649	10.329648333607018	-1.402579141438597
O	2.536452226140351	9.035531133607016	-4.085319831438597
O	-0.21407684485964895	7.007639013607017	-5.724706701438597
O	-0.136460999859649	3.5239247936070166	-4.2979161714385965
O	-2.264067803859649	0.5678752750070168	-5.379573681438597
O	-0.3403025238596489	-1.5312735063929832	-2.8323087014385973
O	2.909321206140351	-1.2188932663929832	-4.669466921438596
O	3.233555226140351	-3.184617026392983	-8.121163351438597
O	5.852977666140351	-1.1370447763929832	-9.837870731438597
O	6.316056396140351	2.401008603607017	-10.998522601438596
O	9.118531056140352	3.2446346436070166	-8.620113441438598
O	12.292834906140351	-0.06526784039298317	-10.355544401438596
O	14.41255810614035	2.192640363607017	-8.206931451438598
O	13.25184280614035	3.796559563607017	-5.022988381438597
O	15.055257006140351	5.178533493607016	-1.975538101438597
O	11.676015906140352	6.273311073607017	-0.6098040714385972
O	5.5916921461403515	5.493888043607017	-6.283968001438597
O	2.871692996140351	5.2658112636070165	-8.879857741438597
O	2.076430756140351	1.6390493536070168	-8.260096401438597
O	-0.39953225385964886	-0.6974449563929832	-9.756377001438597
O	-2.656805983859649	2.768980423607017	-12.229250901438597
