41

O	18.80605615344104	12.451345454071049	27.25083224175556
O	23.166819051116534	11.933232119308062	23.077245347701353
O	17.974937195652192	12.50743633395776	26.120568954830045
O	18.206869336511723	12.126027210605338	28.55877361667347
O	21.351655555577352	10.124920041519026	25.76827102892633
O	22.152121903302806	8.639877854976145	23.35083955776855
O	17.399184836530733	13.40260530121208	28.14303738357176
O	25.2364586297252	14.393492809184544	23.084697318827388
O	22.207245939638078	13.46059807694887	24.703553940231917
O	18.868232835240505	13.871411440422051	27.84857194542092
O	25.196298026030426	16.576726650824796	23.27871244162203
O	23.817100725399065	12.88225307771862	20.720816513198816
O	23.08049520354989	14.008253859677302	20.937224316850727
O	21.73174374772843	13.897704510776759	20.766723936577048
O	21.2868743703426	12.610389046086375	20.385420344359492
O	22.028844445846318	11.470661751570866	20.45048795444584
O	23.293090439238085	11.747105741823056	20.045578794101928
O	22.13013257784127	10.311570208594578	21.31870669234404
O	22.89434834063944	10.74140589415386	22.48086466706164
O	25.153169193951666	12.430474635177962	20.426339555763697
O	26.054689747795237	12.136032801735444	21.525864598104885
O	26.866554745239814	13.44793278585799	21.597408615491336
O	22.555625342154688	9.904804362092989	23.631294277202315
O	22.003410649053272	10.694014744378816	24.726031360735494
O	20.122876454090246	10.708887205393747	26.19118339361932
O	20.12940278321024	11.884104087489472	27.12051686654513
O	19.66288507121359	11.44375936477361	24.969771724598818
O	18.872460216081862	12.6139838594708	25.082269935008842
O	19.11823663311427	13.546391155519789	24.084805510258725
O	19.639271740966127	12.904828004221073	23.00327140387524
O	19.16835950880681	11.583607386589907	22.74601755198246
O	19.893933464241016	10.847974332206157	23.731020700347166
O	18.5074487160209	11.12625938154451	21.535089512332092
O	18.948622877877256	9.908284496177238	20.857231041281544
O	23.178249666019617	12.828316377955728	24.129564099061596
O	24.465426576248294	13.133556752199055	24.767820220449106
O	24.67617593777734	14.186221226858809	25.68622842392028
O	25.415433655562104	15.347191947887392	25.252127843525848
O	25.078445393003065	15.458099198928196	23.8681204064203
O	25.46238566895981	13.233823994923071	23.748732398393294
O	25.72044799544438	14.436841350979174	21.78124455392312
