35

O	21.787273008295006	10.421131232591762	25.46193023821366
O	21.16313961733436	12.525950029374751	26.094788142727612
O	24.97986773704077	17.45553294958494	25.61714538499617
O	18.959710551184646	14.007020023915931	23.233364134583287
O	22.376930236100215	13.190754509095683	25.849669151673744
O	22.068948986657748	14.549230347709736	25.494873330628238
O	21.34278929305704	11.177392975049138	26.533522930950156
O	25.81233004153778	15.267450795005924	24.449145555917916
O	21.241555695676574	14.567915919882353	24.41697233752852
O	27.33616547026754	17.291411004413085	25.32454898075209
O	24.068812363255876	13.299180648046224	22.25391049664632
O	19.996746010335777	12.832872416594192	25.35427904883064
O	23.052579288942702	13.268377804140073	27.082690139455092
O	23.128405805334385	12.456816895885913	22.7524461997975
O	19.96584517590678	14.031780171675384	24.6340459554651
O	26.225428904846243	15.688641092739058	26.973381337556805
O	23.058033461348106	11.00981662803597	25.192070807468717
O	20.846731897208194	10.767027395261302	24.596492567023976
O	23.58491806243983	14.376694145716726	22.52112813237343
O	25.30985513208799	14.150007153200184	25.15408301254307
O	27.11238010022682	14.819625586878267	24.13317893795262
O	23.259261488674838	10.449018140119296	23.871604812620024
O	21.196186912354992	11.332351200503375	23.449818469780737
O	22.48717644522321	11.39135707402956	22.989553923670957
O	25.995797842393653	12.012727904662764	22.411327769505714
O	25.208448449820974	12.823198217011448	21.492525997421257
O	26.165660638647882	12.696206532199941	23.558244268992734
O	22.78139422739941	15.618023072356678	26.05561358634347
O	25.148170374169514	13.089385405795468	24.345874878632976
O	27.248928560015123	13.496572190053936	23.67536807501665
O	23.902256631512465	12.897093679753414	27.98077574656781
O	23.042554028033745	15.642124001247723	27.42205023500585
O	24.00837866984989	11.4063137398464	28.021437583187165
O	25.275837308087816	13.32367618672679	28.26872849722713
O	26.040529721629074	16.547030800669738	25.57349894820251
