104

O	-0.791862116215384	3.788972209638462	4.184560428723076
O	-2.150384138215384	4.138709879638462	3.801304678723076
O	-2.049792478215384	4.270212399638462	2.418095538723076
O	-1.011563135215384	4.673663449638462	1.523888138723076
O	-1.1442385042153842	5.717942369638462	0.616437629723076
O	0.04334716278461592	5.986266869638461	-0.05928834427692403
O	0.9546143217846159	4.943288729638462	-0.272677899276924
O	0.42134977578461597	3.696277159638462	-0.174962828276924
O	-0.6033753632153841	3.519844899638462	0.7826510747230759
O	1.2397319717846158	2.499749459638462	-0.29542261827692406
O	1.6288737017846158	2.069727993638462	1.0312833797230758
O	1.086554701784616	0.7280914496384618	1.578111628723076
O	1.714838481784616	0.8358568396384618	3.008341428723076
O	3.0875906417846157	0.9730576866384619	2.3504799287230758
O	3.6704657017846163	2.555892764638462	2.404235238723076
O	2.132226181784616	2.869403182638462	1.939291578723076
O	4.583208931784616	2.4974163996384617	1.162389985723076
O	0.669302711784616	-0.021115130361538004	3.296673218723076
O	0.37554554978461596	0.11208351963846197	4.693723258723076
O	1.6582931217846157	0.4022543796384619	5.318450968723075
O	2.610788791784616	-0.4042345103615381	4.689919838723076
O	3.8073348217846164	0.0975069396384618	4.799393148723076
O	4.1315062117846155	1.259801510638462	5.426173428723076
O	3.120307711784616	2.2149710196384618	5.573754638723076
O	1.825703061784616	1.665894006638462	5.759385818723076
O	4.826803721784616	-0.740027350361538	4.210886898723076
O	5.921278311784616	-0.012253750361538085	3.6632285187230758
O	5.188212451784616	-1.8167253803615382	5.093169368723076
O	4.349086361784616	-1.4400071103615382	2.998589018723076
O	1.8844860917846158	-0.33314244036153795	1.1112793057230759
O	-2.220519808215384	6.534491409638463	0.301144375123076
O	-2.144505408215384	5.618618799638462	3.980559408723076
O	-0.35400825001538405	2.909216649638462	3.334209768723076
O	0.13003589578461594	4.328876989638462	4.965431278723075
O	0.07131417678461593	4.751496099638462	3.362396388723076
O	0.690300611784616	7.1656933296384615	0.24998948272307597
O	-1.1247296522153842	6.2864832496384615	3.068690988723076
O	-2.970738838215384	6.108769339638462	3.0753282587230757
O	-1.035877577215384	5.970525589638461	4.646258598723076
O	-9.482543068215383	3.030356119638462	-2.955968311276924
O	-8.614028398215384	6.540605429638461	-1.8163733812769243
O	-5.612338598215384	7.046143149638462	-4.118255471276924
O	-4.678777918215384	3.460148999638462	-4.877357311276924
O	-4.763234468215384	0.9768912026384619	-7.673622031276924
O	-1.969064268215384	0.9078714856384619	-10.205837891276925
O	2.1763534517846157	3.695827709638462	-13.608294991276924
O	2.888840911784616	1.7085965786384618	-10.487204391276924
O	0.898859491784616	1.3122958096384618	-7.321404321276924
O	-0.0026432752153841	-2.2908174103615377	-6.4909993312769245
O	0.8614064417846159	-2.7007009703615377	-2.835961791276924
O	0.4708035147846159	-6.005014750361537	-1.0063088412769239
O	1.407983661784616	-4.3370757903615385	2.134039798723076
O	5.104552451784616	-3.6833435803615378	1.109192179723076
O	8.069526521784615	-5.271274110361539	-0.362879605276924
O	10.004651831784615	-2.6891583303615385	-2.3752473612769243
O	9.745937131784617	-1.8203378103615382	-6.035805871276924
O	10.428760731784616	1.903822986638462	-5.978368771276924
O	11.860870131784615	4.2705833596384615	4.095482258723076
O	10.116033931784616	6.466874829638462	6.705271408723076
O	8.915701761784616	8.942202909638462	3.658030138723076
O	11.000906631784616	8.240501319638462	0.5712713527230759
O	14.868327531784615	1.7808594886384619	-5.752120961276924
O	8.045722221784615	13.612023369638463	1.6897021987230758
O	4.349206391784616	13.202007669638462	1.291692718723076
O	5.062580191784616	10.072016319638463	-0.877971531276924
O	3.4796983317846157	10.953708049638463	-4.1873421412769245
O	-0.2531841112153841	11.759929549638462	-4.231770081276924
O	-3.1523738082153843	9.549756959638461	-8.333801821276925
O	-1.5491185982153841	9.144388459638462	-11.767566591276925
O	1.037856861784616	6.702276029638462	-10.302292491276924
O	6.067537101784616	4.298260789638462	-8.299069331276923
O	5.079059301784616	1.4918520156384618	-5.956158101276924
O	5.180746911784616	-2.270213870361538	-6.444352541276924
O	5.650634731784616	-4.012251680361539	-3.1135877312769242
O	4.868489171784616	-8.799870530361538	0.091210004723076
O	7.847217061784615	-10.848848030361538	1.325351837723076
O	9.865318831784617	-6.603765210361537	5.354285398723076
O	11.906233831784617	-5.258324740361537	2.4571301787230757
O	-9.840326938215384	-4.289237180361537	-7.094130171276924
O	5.559594601784616	-14.861368230361537	5.2452468687230756
O	6.370025461784616	-11.202333330361538	5.822948808723076
O	3.146183121784616	-9.244231830361537	5.327688678723076
O	0.3101393677846159	-11.286782330361538	3.955108938723076
O	-4.295812928215384	-7.952287600361538	3.675118348723076
O	-3.044837018215384	-4.652908730361538	2.305524338723076
O	-3.9866241682153842	-3.108056960361538	-1.0344010912769241
O	-1.9978474382153841	-0.2535213903615383	-0.302268103276924
O	-4.412443188215384	0.7250566496384618	2.584601928723076
O	-7.727208488215384	2.435854711638462	1.817249198723076
O	-9.602330138215384	1.548410901638462	4.972680578723076
O	-10.642713368215384	-1.524048730361538	6.897448518723076
O	-8.533544408215384	-0.7456276003615381	9.952425698723076
O	-13.410716368215384	1.924778719138462	8.802857148723076
O	-10.869339568215384	3.3930720096384617	11.182729908723076
O	-5.546571078215384	0.8798464996384618	14.273875908723076
O	-2.753919448215384	0.5609070396384619	16.832971608723078
O	-0.9384019532153841	-1.8516663503615383	14.448260808723075
O	-5.722974578215384	-4.172285410361539	8.064325728723077
O	-7.917580578215384	-5.377923010361538	5.297294568723076
O	-7.380957168215384	-2.413665140361538	3.017489798723076
O	-8.676960188215384	-1.602934700361538	-0.440214665276924
O	-12.268620968215384	-0.9604389303615379	0.5498777217230759
O	-12.485817068215384	-4.498215730361538	1.8392823287230762
O	-10.512906068215385	-5.9491971203615375	-1.0607298812769241
