85

O	2.570571593981818	-1.8336005908963628	1.281572746050909
O	0.5111614099818181	-1.0098393408963628	0.8736401060509089
O	3.5497016939818185	2.4422134791036374	1.8865181560509088
O	1.7806582439818182	-1.1025516608963628	0.3839503540509089
O	-0.7492725160181819	-0.23645127089636286	2.847381186050909
O	0.35426519298181813	-0.6721504508963629	2.141335216050909
O	1.3525129569818182	1.8505656901036371	1.682455266050909
O	1.490486607981818	-0.626448280896363	2.933565766050909
O	5.873211463981818	0.8840781841036371	1.542958036050909
O	2.4848179739818184	-1.4993729608963628	2.687429166050909
O	3.801455953981818	-1.9414050208963627	0.639933728050909
O	4.4309171339818185	-0.768512710896363	0.10323912905090887
O	3.5529219739818183	0.10681170910363713	-0.3566787206490911
O	2.286005103981818	-0.29100628089636293	-0.6466382319490911
O	5.552751203981818	-0.23355109089636295	0.9216086260509089
O	1.654709723981818	0.4754130061036371	3.851054486050909
O	2.6959166539818185	1.335555316103637	3.535019896050909
O	2.696326793981818	1.5733795051036372	2.1465628460509087
O	1.4887461429818183	3.129544139103637	1.061337536050909
O	2.578811523981818	2.991654559103637	0.0785167250509089
O	3.604772873981818	3.8601158991036373	-0.4057536239490911
O	2.0281572139818183	2.2331517291036374	4.5850573960509085
O	4.9597008539818175	3.181223149103637	-0.6359487599490912
O	3.8969361839818184	5.177092899103637	0.2004455820509089
O	3.1463154839818177	4.118549659103637	-1.829839563949091
O	6.375584533981818	-1.2767961408963628	1.496306926050909
O	6.475183333981818	-1.2969112308963628	2.926097606050909
O	5.543173233981818	-0.39928499089636293	3.560775986050909
O	5.870683843981818	0.8102169711036371	2.922440156050909
O	6.263633273981818	-2.563617110896363	0.7051897370509088
O	-2.560273576018182	-9.743064080896362	2.067086716050909
O	-6.834590686018182	-9.922789680896361	-3.020928123949091
O	-4.904825166018182	-7.904978770896363	-7.120707473949092
O	-3.976307516018182	-6.908427710896363	-3.492389563949091
O	-6.767051716018182	-4.763091950896363	-1.912731373949091
O	-4.835669136018182	-1.9164705508963629	-0.3133271397490911
O	-6.268318486018182	1.0109998171036372	1.5636562960509088
O	-2.7263935760181814	2.301488119103637	2.445407906050909
O	-1.644397186018182	3.228092159103637	-1.0025093339490911
O	-3.118996696018182	4.994240759103637	-4.108301353949091
O	-1.6144820860181819	3.2877316291036367	-7.159426823949092
O	-3.051263466018182	0.5564912111036371	-9.322665143949092
O	0.15291098398181813	-1.333244430896363	-10.191208853949092
O	7.204488843981818	5.667621969103637	-11.761287373949092
O	9.440665283981819	4.898310649103637	-8.772139083949092
O	8.027818953981818	3.6591689791036375	-5.515855753949092
O	10.332521523981818	2.799112599103637	-2.543424343949091
O	10.372263433981818	-1.0706320408963628	-3.830436213949091
O	8.921553553981818	-1.3211501208963627	-7.355869423949091
O	1.6406054319818182	1.2329941094036372	-13.495965573949091
O	12.704070103981818	-5.609025680896363	-4.817792563949092
O	10.961841503981818	-7.443538920896363	-1.974118173949091
O	7.573350393981818	-6.393320290896363	-3.373080443949091
O	6.020656473981818	-9.624993480896363	-4.589559623949092
O	5.439724473981818	-12.253696280896362	-1.908222453949091
O	-1.4063511360181817	-11.845222380896363	-6.100166103949092
O	-0.5951509560181818	-6.509537500896363	-8.45886783394909
O	-1.871763766018182	-3.9557838208963627	-5.951328993949091
O	-5.106859526018182	-1.846582800896363	-5.959165773949091
O	-4.456063306018182	1.394412950103637	-4.045948423949091
O	-6.502942556018182	5.698411219103637	-0.826630180949091
O	-6.562424826018182	9.277378239103637	-2.153669603949091
O	-4.649851306018182	10.962000119103637	-4.976455873949091
O	-2.690689346018182	13.039446219103638	-2.481408323949091
O	-0.40475156601818196	10.061977349103637	-1.8866277639490912
O	-0.39325204601818187	8.673056959103638	-5.426684913949091
O	2.993675163981818	8.357525569103638	-7.218585513949091
O	-4.698521066018182	11.222111419103637	1.7798806260509088
O	-4.238431446018182	7.9688870191036365	3.716561586050909
O	-7.493510906018182	6.953626899103637	5.4177388360509084
O	-6.4880744560181824	2.239919409103637	8.352789566050909
O	-4.339915856018182	0.06932012910363716	6.1087322260509085
O	-5.453019496018182	-3.306899550896363	4.677991666050908
O	-2.0018775260181823	-3.5100114508963633	3.145445326050909
O	-0.22571118601818185	-3.6992982008963633	6.561370226050909
O	-0.560009076018182	-7.004627570896363	8.529524156050908
O	-0.21691173801818187	-5.814681180896363	12.108050526050908
O	-1.7961080260181819	-3.3255782108963627	14.443746026050908
O	1.166062008981818	-0.9142800308963628	14.505049426050908
O	4.301226163981818	-3.9971292208963627	16.597975426050912
O	5.7407734339818175	2.1796855161036373	14.488970426050908
O	7.747040163981818	5.341502429103637	13.85296252605091
O	5.046798503981818	6.535879269103637	11.421062826050909
O	-1.6332093460181818	1.593344270103637	11.59365352605091
O	-3.700076646018182	-3.2666810708963627	9.689829676050909
