102

O	3.06535644680375	4.537431073667188	-2.3745713092531253
O	1.67491396680375	4.665105493667188	-2.8238807492531253
O	1.58951015680375	3.919114293667188	-1.7645849202531254
O	1.10963580680375	4.715269473667187	-0.6942780842531253
O	1.6012148168037499	5.855833233667187	-0.2707037192531253
O	2.02574003680375	5.790282093667187	1.0704038007468748
O	1.71727845680375	4.673579713667188	1.8655806607468746
O	0.9934441368037499	3.5931129836671873	1.3540156407468746
O	0.4486310098037499	3.800712903667187	0.04726579174687473
O	1.46990295680375	2.1774239156671875	1.5509794207468746
O	2.4054729368037497	1.6457142066671875	0.5842564007468747
O	1.88685971680375	0.4452474736671874	-0.2754566302531253
O	3.2294275268037502	0.1522142036671874	-1.0132812642531253
O	3.9066971868037497	-0.11464702633281254	0.37213747074687475
O	4.7885289568037495	1.2997547416671875	0.7969295707468746
O	3.55738931680375	2.0622283766671874	-0.02391656925312524
O	4.59373178680375	1.3536908856671874	2.292622490746875
O	2.4247313368037497	-0.5311077163328124	-1.9298026092531253
O	3.11151899680375	-0.2741830163328125	-3.201573009253125
O	4.52840459680375	-0.3174633463328125	-2.914918149253125
O	4.74661197680375	-1.3014452563328127	-1.9494903292531254
O	5.86113157680375	-1.1058086463328125	-1.3281120942531253
O	6.71218055680375	-0.022436566332812546	-1.5195443692531252
O	6.221373306803749	1.1163874566671874	-2.1642891792531254
O	5.31154700680375	0.7521929276671875	-3.190614939253125
O	6.1923493268037495	-2.1187863363328123	-0.3485031882531253
O	6.59091506680375	-3.3021998263328127	-1.0907873082531254
O	5.27447833680375	-2.7437071263328123	0.6112306707468746
O	6.95999601680375	-1.4585530263328124	0.6809989407468746
O	1.83378194680375	-0.7252951463328123	0.4594868807468746
O	1.88977018680375	6.975295993667188	-1.0178276792531253
O	0.69397809080375	5.760835913667187	-2.998126579253125
O	-0.33995018119625003	5.411368963667187	-2.0571872992531253
O	-1.44981273319625	6.210629663667188	-2.206607629253125
O	3.7466305368037496	4.724374673667188	-1.2597293052531253
O	3.60432334680375	5.624102943667188	-3.0920836192531254
O	3.6232911468037496	3.4230906936671874	-2.9111321492531252
O	3.2947675168037502	6.367808073667188	1.203227170746875
O	-8.11977634319625	5.847133843667188	-3.1275029892531254
O	-5.875235693196251	8.894627993667187	-3.0324392392531254
O	-5.009683813196251	8.733641363667187	0.6813359207468748
O	-5.64973977319625	5.089443403667188	1.3793047307468749
O	-8.159542633196251	2.930730133667187	3.1976274407468748
O	-7.75902450319625	2.2652989566671877	6.884926060746874
O	-6.18995877319625	4.008016753667188	12.453151740746875
O	-4.1768754031962505	1.7172510116671875	10.234337540746875
O	-3.7419089631962503	1.6571571976671875	6.519892370746875
O	-4.78504274319625	-1.6231991963328125	4.8868597807468745
O	-1.95883417319625	-2.529618706332813	2.5655652007468746
O	-1.88173999319625	-5.703227096332812	0.4887455607468747
O	1.25262337680375	-4.498974746332812	-1.1589805292531252
O	3.43133843680375	-4.815770446332812	1.9838442007468746
O	4.288797726803749	-7.068773966332812	4.802299550746875
O	5.080090526803749	-4.972722826332812	7.871653720746876
O	2.78034138680375	-3.881811786332812	10.682789940746876
O	4.2652280968037495	-0.46042236633281264	11.473893640746875
O	12.181209406803749	0.8284216366671875	4.776798670746874
O	13.14866830680375	3.2257514136671874	1.997368790746875
O	10.98886030680375	6.111380053667188	3.9543458307468744
O	10.40879830680375	5.045861713667187	7.552712930746875
O	7.64955353680375	-1.7720630863328124	14.047609540746874
O	10.26867480680375	10.965500053667187	5.522315660746875
O	7.18787427680375	11.578935243667187	3.4522704807468743
O	5.56405883680375	8.552747233667187	5.275146100746875
O	2.5121913868037495	10.046337683667186	6.9738059507468755
O	-0.04933497333625006	11.816662943667186	4.715527240746875
O	-5.3108545631962505	10.734061153667186	5.774861760746875
O	-4.20094473319625	6.992859683667188	9.584485240746876
O	0.17357754780374995	3.155274843667187	10.898085040746874
O	0.20531931680374993	0.5384830006671875	8.160847390746875
O	-0.96049071719625	-3.0790174663328127	8.110811900746874
O	1.07860522680375	-5.061674476332812	5.590267750746875
O	1.37491970680375	-9.606379356332813	2.0050919107468745
O	3.84788739680375	-12.446235056332814	2.6529907307468745
O	8.90965043680375	-9.120967756332814	1.3041782007468745
O	8.91280578680375	-8.197877866332814	4.9726412007468745
O	-12.87541279319625	-0.7964666163328127	-1.0050294682531253
O	3.64439778680375	-15.941514156332815	-2.2832974192531252
O	5.50806890680375	-12.671678056332814	-1.7806342062531253
O	3.31091516680375	-9.882726056332814	-3.1479744492531254
O	-0.14945170849625006	-11.011853956332812	-4.107064669253125
O	-2.90303813319625	-6.552368436332812	-6.323928959253125
O	-2.0484222231962503	-3.640717616332812	-4.090016329253125
O	-4.43546315319625	-1.6824508463328127	-1.9107482392531252
O	-1.8161189731962502	0.48082969666718745	-0.8901686010531253
O	-1.4177097531962501	1.9035089796671874	-4.501305379253125
O	-3.9971090031962504	4.459521183667188	-5.791574329253125
O	-3.6613677631962505	3.888691143667187	-9.490595349253125
O	-3.98045067319625	1.0923560716671874	-11.988427459253124
O	-0.3157391781962501	1.0596262946671875	-12.974410959253126
O	-3.95225551319625	5.015675803667188	-14.781250759253124
O	-0.20845696419625007	5.581266563667188	-14.864798959253125
O	5.0465701668037495	1.5249876369671875	-14.224343359253124
O	8.64721367680375	0.30053754366718755	-14.460467459253126
O	7.881713696803749	-2.3706138463328124	-11.800224959253125
O	-0.24896178419625006	-2.8026386963328127	-10.121605349253125
O	-3.9134685531962496	-3.2141907863328125	-9.511497779253125
O	-4.25700338319625	-0.3865610863328126	-7.064860389253125
O	-7.190169123196251	0.9685889586671874	-5.103819449253125
O	-9.07362377319625	2.4575490976671874	-8.034429749253125
O	-9.29239363319625	-0.9904393663328126	-9.588011489253125
O	-9.98434966319625	-2.685760566332812	-6.2689814492531255
