33

O	25.93918139207954	14.656955720169462	18.23686118925515
O	25.988873285667662	13.108417676086852	18.9707543620607
O	24.815599587740373	12.416182190291067	19.082310706765877
O	24.676148454109917	11.257154457354517	19.90763477642858
O	25.518305990065862	11.51940752657555	21.053030879901286
O	26.826043826120326	11.819086447458062	20.638129579997337
O	27.074563488132316	12.324787764407109	19.34349371217594
O	24.002221676949794	14.621999775477436	22.95750696156419
O	25.362575616073137	15.274451998855127	25.233788318925402
O	24.37045666228505	15.822889790795887	23.27963201002635
O	23.291425093744532	10.913886291333903	20.365127938435638
O	22.681952479283996	11.992357446832923	21.107083187454247
O	23.620729703021315	12.407320643916965	22.092444388968648
O	24.877373758518093	12.279297948277884	22.224077952906544
O	25.59839061627928	13.470337084466319	22.327182789465542
O	24.85241726275023	14.601838901587328	21.703856128038986
O	25.953251935512302	15.475389221103281	21.32793998488102
O	24.79483338459889	16.331298432398462	24.489728959950934
O	25.795615997796432	17.31593070826873	24.282788928844624
O	26.853592738956404	17.568189299904073	25.0959928824468
O	25.00252001641697	13.926118582102799	24.984107110706578
O	27.014393014435257	16.662732986673355	26.076239587977735
O	26.599085082592463	15.4067233178403	25.73639541134524
O	24.08003387181958	13.762111799864648	24.037589588764078
O	24.683111511359108	13.472317978519396	26.101172135834577
O	27.203883142922944	14.739766452954159	21.610967217696402
O	21.349250523757902	12.06089814468665	21.714728408161527
O	22.6402709429186	13.240456277848674	20.19879040863513
O	28.23280225549782	14.85344298501927	20.73688583391707
O	29.561214714888287	14.701950437112826	21.021566096594576
O	29.865261669954098	14.753093916671762	22.37896292633921
O	28.82661296163702	14.785177449126852	23.259619910098774
O	27.619982666472836	14.253308661731467	22.812761681416205
