105

O	-1.859679974446	4.876122759516667	-4.41722124215
O	1.276921348554	4.3429190495166665	-5.14362178215
O	-0.637103944446	3.179115927516667	-6.020562012150001
O	-0.919146580546	3.921515889516667	-4.14592483215
O	-0.04341745444599998	3.014366302516667	-0.29801304215000046
O	-0.43910148144600003	5.171902569516667	-0.5395332931500004
O	-0.788607204446	3.423336363516667	-2.9257525521500005
O	-2.300436201446	1.387760569516667	2.2162920378499997
O	0.5180113685540001	1.792470719516667	2.91215033785
O	-1.7123170744460001	3.820158429516667	-1.9551520721500004
O	-1.079097785446	3.249665597516667	3.676156097849999
O	0.10353408855400004	4.2336005895166675	2.1671626778499995
O	-2.853760141446	4.356766279516667	-2.4494443521500004
O	-3.032057541446	5.049662639516667	-3.6438365721500006
O	0.17937867855400003	3.513846079516667	-5.10692124215
O	2.6954601785539998	4.364459229516667	-5.31069352215
O	1.0354036685539998	5.795935889516667	-4.961535862150001
O	0.710229758554	5.668364329516667	-3.5318029921500003
O	0.5184776285539999	7.002940999516667	-2.98006013215
O	3.214140628554	2.986249714516667	-5.509795012150001
O	2.426494628554	2.071058017516667	-4.61982450215
O	-3.979534001446	4.780854599516667	-4.7822352521500004
O	-0.846473453446	4.034881029516667	-0.8250214918500004
O	0.684552568554	2.720633979516667	0.8353918078499996
O	-0.09715968744600001	1.655953173516667	1.6369207278499995
O	2.0787988685539998	2.194495389516667	0.7312052278499996
O	2.689752568554	3.109176331516667	-0.2525900481500004
O	3.3582522185539996	2.810064436516667	-1.4033356711500005
O	4.015382618554001	3.7318977095166668	-2.1721395821500007
O	3.535395748554	5.006731999516667	-2.1426342621500005
O	2.765671278554	5.317380039516667	-1.0944346991500005
O	2.605664338554	4.449923169516667	-0.012974837150000473
O	-1.486730418446	2.359597535516667	1.5869632278499994
O	-0.978605302646	3.555458769516667	2.2710433278499993
O	-1.251418324446	4.620798669516667	4.2224414778499995
O	-2.286124961446	2.598544243516667	4.195115877849999
O	-3.152832031446	2.027516458516667	3.155799567849999
O	-2.406593341446	5.077511699516667	3.3756094978499993
O	-3.605052691446	4.676782079516666	3.8996444078499994
O	-4.7036317214459995	5.027852159516668	3.1166625778499997
O	-4.358172051446	6.109560969516667	2.2430473378499993
O	-3.480904631446	5.466949949516668	1.3271845678499996
O	-2.283361161446	5.430415779516667	2.06665963785
O	5.023281278554	3.562036429516667	-3.0302186321500004
O	2.641001928554	6.634720529516667	-0.7317119421500005
O	1.2819342985539999	-2.414806340483333	-9.79307223215
O	2.208441298554	1.170486739516667	-10.45091311215
O	5.278604008554001	1.422421369516667	-8.225350422150001
O	4.640571008554001	-1.491674890483333	-5.917940112150001
O	5.850848878554	-5.054037120483333	-5.342936012150001
O	8.858672778554	-5.798540170483333	-3.1431092721500002
O	11.180387508554	-3.936973290483333	0.8265870478499995
O	7.652790398554001	-2.9778925804833327	-0.3834426511500004
O	5.074567968554001	-5.640196020483334	0.5374255178499996
O	2.181909618554	-3.5712234404833327	1.9566509278499995
O	-0.961707333686	-5.225110350483334	3.355108657849999
O	-2.432974731446	-1.7376194304833326	3.824982187849999
O	-0.12700656544599997	-0.6265713704833331	6.6835525878499995
O	1.466257408554	-1.9654858304833334	9.82136413785
O	4.957300068554001	-0.49219504048333285	10.14213333785
O	8.279730908553999	-1.9304768604833327	9.06272154785
O	10.115506508553999	1.223888699516667	7.952626537849999
O	3.3892588885539996	9.197569599516667	9.16534773785
O	1.5363739985539997	11.605459169516667	6.79544660785
O	4.819946718554	11.463433439516667	4.3547429178499995
O	7.784961168554001	9.944475839516667	6.1955944678499995
O	11.361020908554	2.770741335516667	11.933825337850001
O	6.953275558554	12.006622529516667	-1.8102877821500005
O	7.476672718554	8.599400189516667	-0.11474539915000048
O	10.257419608553999	6.9741999595166675	-2.07523912215
O	9.453821608554	6.413922419516667	-5.733131672150001
O	10.730222508554	1.592923103516667	-7.801160692150001
O	12.630585308554	-0.49985517048333294	-3.0741069121500004
O	11.617525908553999	0.3676433895166671	2.6932107278499995
O	8.129828828553999	-0.8841567704833331	3.4384296978499993
O	6.849183308554	-4.036159930483333	5.197868327849999
O	3.4482913885540003	-3.286336630483333	6.780489157849999
O	-1.656377148446	-5.351471180483333	8.58978929785
O	-3.257340211446	0.8921601195166671	12.66367943785
O	-8.424733341446	-6.840374810483333	12.553126937850001
O	-6.944913371446	-3.4409006504833326	11.68805483785
O	-6.708549731445999	-3.158700620483333	7.8991903578499985
O	-7.521696951446	-6.433512450483333	6.150154677849999
O	-7.294583071446	-5.621513820483333	0.5253102378499996
O	-4.258514651446	-3.421277730483333	0.014853133849999534
O	-1.135119761446	-4.447721440483333	-1.9478324721500004
O	0.24392043855400003	-0.8991964304833329	-1.3641422721500005
O	-2.513512031446	0.5910244295166669	-3.33361836215
O	-2.261897381446	0.34093585951666716	-7.263732352150001
O	-5.881628711446	0.6684121095166671	-8.25004443215
O	-9.203011691446001	-0.9683846704833332	-7.575524692150001
O	-10.738499391446	1.930763683516667	-5.7078165621500005
O	-10.185968491446001	1.8486993045166669	-11.34929526215
O	-10.620972581446	5.096203569516668	-9.46516278215
O	-12.838420891446	6.791342819516666	-6.962419902150001
O	-12.506448991446	6.543610569516668	-3.2811677721500008
O	-13.738350291446	8.653370399516668	-0.36972535215000046
O	-12.265628791446	6.043662449516667	2.0235794678499994
O	-9.647390971446	-0.7482562504833332	-1.9058181731500006
O	-8.690249841446	-3.937757030483333	-3.654427782150001
O	-5.272619931446	-2.7134395204833326	-4.75371596215
O	-2.566221961446	-4.486694170483332	-6.6997261021500005
O	-4.331305581446	-4.610502930483333	-10.05970877215
O	-7.059799941445999	-6.688019870483334	-8.50452965215
O	-4.664387181446	-8.816338280483333	-6.51200180215
