29

O	25.4905389727787	12.579975712823785	21.374948790950256
O	26.65590639073894	11.889409987261702	21.454861274901404
O	26.69813095138861	10.623589443320586	20.93878658149558
O	25.66163660560568	10.35354380924882	20.010959224600658
O	24.322263766149554	10.66446538511048	20.292159323646075
O	24.36411010840018	11.976811787636237	20.746683205281556
O	23.305149373081388	9.629208547818825	20.84184586872404
O	22.686632287520435	10.268394541580015	22.008176993639974
O	22.438103313267508	9.55381449573227	23.272982430452416
O	21.80555866546891	10.474652628960289	24.18228362914725
O	22.354915385921885	11.592324303048061	24.92817631635608
O	22.803539831449402	12.500174354574117	23.437779239905023
O	23.704093383237527	11.145362614953923	22.753404802179972
O	21.859901222396513	12.895408046374794	22.415130139675615
O	23.437387344616234	13.809088911037705	23.56981059257218
O	21.366172511959906	9.633289631123604	25.249660936612845
O	20.323000101472505	10.39931096467388	25.831389215105766
O	19.65191174065599	10.851075034820948	24.61326655372802
O	19.76940429816899	10.320768306322282	23.390791467523115
O	19.396296291897656	11.043277259853214	22.291790309075402
O	18.73224765015236	12.201941757188028	22.496709395474433
O	19.06866828006958	12.856981466505225	23.63205178985361
O	19.73706237365927	12.242660997907421	24.689871905100095
O	19.52016491588819	10.515053911607511	20.98623767958941
O	20.302056269814464	11.444534599987339	19.9981022998202
O	18.87688731185093	11.175812776896416	19.88801198389596
O	21.889310473673383	8.356560357948329	23.063980996447725
O	27.761705331469464	12.297150004652334	22.204499410324136
O	25.735385962694238	14.474149334249041	21.294915591464907
