33

O	24.70407634179415	11.826732367434785	22.589459672264805
O	25.64738662824583	12.848623910862631	22.784895607952777
O	26.77882233333162	12.530203341365297	22.608501719483588
O	25.36494501607613	13.51399282434597	24.023042035267785
O	26.40530830629617	14.166907362444483	24.706037884717116
O	26.086603153442432	15.122376307835424	25.624236854515196
O	24.822164683820105	15.365185857503134	25.62553375055848
O	23.71317873152641	14.697670884560983	25.156681435816196
O	24.019762648349527	13.501448751702323	24.394157970178924
O	22.553975502149537	15.368158582143337	24.63720161214108
O	22.766523881695385	16.18177095153878	23.413357551509414
O	22.040446618475862	15.565212696372585	22.20261686533609
O	24.244682883621174	16.049380785768182	22.982859632060535
O	24.458296005960115	15.51956085519944	21.566570870258097
O	27.00229502203372	15.943869886945421	26.885544458291267
O	28.26897471995069	16.557711207743665	26.310500103128096
O	27.660615999944074	15.111271047744177	27.91912445669886
O	26.15267360585021	17.375204404037916	27.41296963165588
O	23.987286991816724	10.901070843488272	21.989654927806292
O	23.19666772868984	10.028690630686322	22.90291799807953
O	22.666615156772636	8.892585564475178	22.254606889661858
O	21.994235579983325	10.47814934328885	23.564152768975603
O	21.624960196327663	11.4609394111268	22.80186263484287
O	20.961840997925286	12.71717864487307	23.589814710370078
O	21.247204982656093	12.213652374610167	24.955982996415955
O	21.60228889751679	10.6723107652711	24.820028543356884
O	24.60281459272425	10.318160057472477	20.802624894158416
O	25.65080833722848	11.29225704493118	20.31003419469303
O	25.437391787370046	12.622601509092448	19.966680277829134
O	26.491253103160567	13.507280986983787	19.69314779260451
O	27.813136559503874	13.070865107665128	19.724516538677186
O	27.9767744633556	11.721477695498935	19.749358103546975
O	26.85982565614881	10.896436408079069	19.810723369184814
