30

O	17.542764480702775	9.381902847332054	21.413235782423733
O	16.13071902757773	8.825522876889922	19.710544732804937
O	16.916403462034648	7.27251403359541	18.20586163576412
O	16.468115452034056	8.710080736321702	21.013599247317146
O	18.251388808598648	9.077029336917512	19.265075712624295
O	22.422448832936585	13.592069460712825	22.209143859650315
O	18.38910371921209	9.73407873892258	20.44999459400689
O	19.497441195091934	10.428142449418903	20.977012978005796
O	17.151453897033814	8.482988663964502	18.8027852507845
O	21.728425593520726	9.743650301652218	22.21753441244058
O	16.99570219990789	6.6425882743635585	17.02914388491894
O	20.872860478750706	9.787134125690429	24.491084923531265
O	20.602735854741926	9.881807623818785	20.350349618307305
O	21.665602620518154	11.756246155167894	23.472863867289743
O	21.8151329635371	10.460248064638936	20.983502103284962
O	21.45942604059308	10.339143743004417	23.33723778796213
O	22.126352247748553	12.450853526052715	24.602919404536983
O	22.144074796280456	12.350261355623715	22.28667403745243
O	21.210908747537413	11.868294660283073	21.250694302730967
O	19.78767397572512	11.704657017800763	21.496655893767812
O	22.869622894495965	10.509968290220936	20.00879725302097
O	23.493101952692022	9.811958180978376	18.950159918182116
O	23.217335200878964	9.840860842504512	17.558240544317535
O	22.05484208629946	10.596005723071137	17.429878515174344
O	22.337169443853504	11.836769786254752	17.891327136751006
O	22.908409290787844	11.714676820461126	19.222769897487385
O	15.290599365333067	8.743382097029244	21.95391913274412
O	14.867291599429219	8.38216314256887	19.401102138942978
O	24.44139935613768	9.128108977213987	19.527186625228165
O	23.786044705317806	12.587779145813297	19.709018931204543
