95

O	3.09657022274	-0.6642953175185425	5.14821549198
O	3.51428887274	0.4785494494814575	4.388995681979999
O	3.5433019027399997	-1.8229616765185426	5.09763437198
O	-0.37088395926000023	-4.232020106518542	2.7745447119799995
O	2.1314799227399996	-0.9130784245185425	1.3736752819799993
O	-1.41994345726	-6.021942676518543	1.9706913219799995
O	-0.29405740326000024	-5.545074366518542	2.0331579019799992
O	2.60804900274	2.7211341034814573	2.6948341619799994
O	3.2066641527399997	-2.4475400865185426	2.4688194119799993
O	2.15990793274	-1.7934350565185426	2.4180679119799993
O	0.6656415517399998	-6.353921966518542	2.7007084619799993
O	3.6741755127399998	1.8852430734814574	0.10970529397999942
O	2.90554930274	1.3995500434814574	2.3585474219799996
O	3.30476644274	-0.27034103151854255	0.8507158859799995
O	0.9874096697399999	-2.3272182665185426	3.0633407919799995
O	2.80343483274	1.1805836834814574	0.8978859809799994
O	3.95323116274	0.5956721834814575	3.0339982619799994
O	0.5961079857399998	-3.4103850365185426	2.2654956319799995
O	3.2892819527399997	-2.2132204565185427	-0.4671807180200006
O	3.3644453727399997	-0.6938678365185426	-0.5595205790200006
O	-0.6374759512600001	-4.295157546518542	4.150998211979999
O	0.5455794487399999	-2.365113036518543	4.354720861979999
O	2.41076557274	-0.44214325751854255	6.382423341979999
O	4.19913891274	-4.711985156518542	-1.0859361280200006
O	4.502043532739999	-4.092914566518543	0.11085286797999944
O	3.28524477274	-4.136668446518542	-1.9629163980200004
O	0.020203803739999804	-3.4275557965185426	5.054782921979999
O	4.5465959827399995	-2.701982866518543	-0.11098826002000056
O	2.6493951827399997	-3.0303403465185426	-1.3995438680200005
O	3.3572243027399997	1.8422006534814575	4.9280167519799996
O	2.50203244274	2.7777148234814573	4.151548151979999
O	1.2830543107399999	-7.275159246518542	1.7223590119799994
O	1.70107481274	-6.0259579665185425	3.6438774719799993
O	2.0074970627399997	-1.4313517365185426	7.23787651198
O	2.35437892274	0.8043037624814575	6.939427261979999
O	0.6708086617399998	-4.2024940465185425	6.199167641979999
O	2.07657140274	-6.171519136518542	0.9964465159799994
O	2.91238986274	-5.387627066518542	3.0489403119799996
O	1.4124162327399998	-6.1922817365185425	-0.30811297602000054
O	3.6820214827399997	-4.932726826518542	4.293120721979999
O	1.06992992574	1.1498057534814574	7.43150492198
O	0.7112508707399998	-1.2238446265185425	7.77511301198
O	0.5403365297399998	0.10681173048145745	8.13829833198
O	5.27830222274	-4.739453276518542	0.9966512489799995
O	2.74535872274	-4.965481506518542	-2.872513808020001
O	-3.95264454726	-8.225135086518542	-5.11543343802
O	-0.5927188382600002	-7.320782456518542	-6.732384528020001
O	-1.10236024726	-3.588236066518543	-7.11270909802
O	-1.9727027972600002	-1.0368644915185425	-9.832544748020002
O	3.32218944274	0.8226440864814575	-8.629666748020002
O	0.9723769867399998	3.711170483481457	-7.7149071880200015
O	1.31204708274	3.806021243481457	-3.8548236080200007
O	-0.5395284032600003	6.532430163481457	-1.9164049580200007
O	0.7892173667399998	4.916496983481458	1.2725132079799995
O	4.469555092739999	5.8762326134814575	0.8432060339799994
O	6.57185718274	8.833262933481457	-0.3310739850200006
O	9.584158192739999	7.517380923481458	-2.247845698020001
O	12.14997547274	3.920447373481457	-6.110216258020001
O	13.42314197274	0.8766826814814574	3.9440150419799993
O	12.288030272739999	-2.108605516518543	6.074369061979999
O	12.54625787274	-4.469775166518542	2.7335332319799996
O	14.518084072739999	-2.649299486518543	0.042602281979999435
O	10.398318672739999	-9.804137796518543	-0.6411588900200006
O	9.67886839274	-6.447044116518542	-2.2355358480200005
O	6.10493850274	-9.565682456518543	-6.6527297480200005
O	2.96751144274	-8.105506526518543	-10.88467174802
O	5.8847845227399995	-3.638999046518543	-12.005402548020001
O	9.30811348274	0.20047366348145743	-9.065444648020001
O	7.081022602739999	2.197038543481457	-6.77107281802
O	5.14865957274	6.977996303481458	-3.3825298780200006
O	1.96498362274	12.931039163481458	5.80915740198
O	-0.0626771972600002	9.891154073481458	4.80129219198
O	-3.3758891072600004	10.711930763481458	3.2233796619799993
O	-5.3044045872600005	6.376809913481457	5.802089261979999
O	-6.067983397260001	5.8619125234814575	2.1198320719799995
O	-3.4737668472600003	3.4495506434814573	0.7864091299799995
O	-3.4570732472600003	2.137121553481457	-2.8021342480200007
O	-0.44965892526000023	0.09026728648145743	-1.8023397780200008
O	-2.4840274572600003	-2.077572546518543	0.5415798339799994
O	-4.952220947260001	-4.689037206518543	-0.8906217980200006
O	-7.555591397260001	-4.941638816518543	1.8863415419799994
O	-9.70956332726	-2.739387276518543	3.9634981419799993
O	-7.731732017260001	-3.0356132165185428	7.20211533198
O	-11.035885227260001	-7.204893676518543	5.247356371979999
O	-8.291446287260001	-7.838443156518542	7.812643941979999
O	-7.29532097726	-6.548261006518542	11.241262551979998
O	-4.755080497260001	-3.8331933165185426	11.78197835198
O	-2.70034597726	-2.6484015565185426	14.771520151979999
O	-2.0926413372600003	0.7039978464814575	13.001211351979999
O	-6.28415523726	1.3350652834814574	5.933922991979999
O	-8.54897519726	1.9660919534814576	3.0178163019799995
O	-6.71072901726	-0.25128177651854255	0.6210228439799994
O	-7.205389027260001	-1.0429521045185426	-2.9873686580200007
O	-12.125619827260001	-0.10386652459140257	-1.1078289680200006
O	-10.65395992726	2.271391393481457	-3.6478184580200006
