85

O	2.8433478968644073	2.025928543101695	5.265954125588134
O	1.3226148068644075	2.996465356201695	0.9348010355881351
O	1.835353636864407	2.204877291201695	-0.05494130141186504
O	1.2959993868644073	2.453675676201695	-1.251876156411865
O	0.012385043864407197	2.976561248201695	-1.321001015411865
O	-0.5739603998755928	3.6229125932016952	-0.211730554411865
O	0.14638601286440722	3.666600523201695	0.950004795588135
O	-0.5880490786655928	3.6173364532016947	-2.459134854411865
O	-1.3529255361355927	4.739269553201694	-2.1380106444118647
O	-2.7060566231355927	4.649839893201695	-1.3742184154118648
O	-1.9354854331355926	4.164623663201695	-0.210012570411865
O	2.373404376864407	3.530187943201695	1.764081305588135
O	-0.17564838013559275	5.4257804232016955	-1.254646644411865
O	-1.2801849581355929	6.038306713201695	-2.589247204411865
O	-1.9285743131355928	5.5649120032016945	0.32285209658813496
O	-3.1913372631355927	5.478055303201694	1.029966975588135
O	-3.826820933135593	4.230435803201695	0.7559505955881349
O	-2.964124713135593	3.3636045532016947	0.31699479958813503
O	-4.823895753135592	3.721193093201695	1.6967574055881351
O	-1.5759247101355927	6.713767953201694	-0.04326891641186503
O	-3.364239813135593	6.2880645532016946	2.216016565588135
O	2.9044560168644074	2.531989852201695	2.5042762855881353
O	3.0218511868644073	2.953969390201695	3.8356396655881344
O	2.977690766864407	4.287489163201695	4.1633124755881346
O	3.3601330368644073	5.111943483201695	3.0652882455881354
O	2.916329086864407	4.743775203201695	1.7768360855881349
O	2.783968896864407	0.2793781732016949	10.760166295588135
O	5.237741176864407	2.804839261201695	9.371085295588134
O	6.196970576864407	0.8358497532016949	6.259993145588135
O	3.148363146864407	-1.409877706798305	5.830649805588135
O	2.189339376864407	-4.9937410967983045	6.179864265588135
O	2.7296178468644072	-7.333858876798306	3.247596875588135
O	6.011783166864408	-9.195967046798305	-1.466495473411865
O	2.806087526864407	-7.235381526798305	-1.680024934411865
O	1.461035316864407	-4.456782686798306	0.5487098855881349
O	-1.9790165031355929	-5.361285196798304	1.999999805588135
O	-4.055315513135593	-2.2122098067983047	1.3972245755881352
O	-7.700759843135592	-1.9085119167983051	2.3297303855881353
O	-7.658036883135592	1.7265032372016949	1.217202355588135
O	-7.205771673135592	1.154090622201695	-2.538275084411865
O	-8.519811803135592	-1.1808682967983053	-5.245376044411866
O	-5.653620163135592	-1.905993106798305	-7.643527584411865
O	-3.283540693135593	-4.829309386798306	-7.725276584411866
O	-0.0688677721355927	-3.1087264167983055	-8.885000954411865
O	3.4859326968644075	-4.4047085667983055	-8.907231014411865
O	-2.2809078731355927	6.938041993201695	-10.124719054411866
O	-1.2450942471355928	10.219738093201695	-8.467740644411865
O	2.529647136864407	8.610233743201695	-7.771018134411865
O	2.9540198968644074	5.504774753201695	-9.908722044411865
O	2.4233573368644072	4.916349343201695	-13.642629704411865
O	-2.163375013135593	-6.438482346798306	-12.808529904411865
O	-0.8901299501355928	-2.915216526798305	-13.245331304411865
O	7.017929876864407	5.814218953201695	-9.718177354411866
O	7.723263546864407	8.813831743201694	-7.520040374411865
O	7.849282756864408	8.431980233201696	-3.729460484411865
O	5.893624456864408	5.179380403201694	-3.854819234411865
O	8.344531376864408	2.456574919201695	-3.0814541244118647
O	9.678119026864408	2.726604384201695	0.48024071558813497
O	13.359909426864407	1.9131440052016948	0.9637488755881349
O	13.560223826864407	-1.135762106798305	3.2194856655881354
O	9.811050526864408	-1.9208823667983053	3.295442575588135
O	10.667784226864407	-5.190551446798304	1.5409810255881349
O	7.4609669168644075	-4.899679586798305	-0.570516141111865
O	7.410654506864407	-4.723792446798305	-4.368293764411865
O	3.742375516864407	-4.1176882767983045	-5.027927004411866
O	0.3596020838644073	-3.255420486798305	-3.5423741144118646
O	-2.8168429331355926	-5.294616196798305	-3.1493665344118646
O	-5.869298763135593	-3.058232116798305	-3.1772476544118646
O	-8.604641213135592	-4.812646016798306	-1.2917179544118649
O	-11.330274273135592	-2.173878986798305	-1.530645918411865
O	-14.147925573135593	-2.006565516798305	-4.097374794411865
O	-1.9268603431355928	-6.6256404667983055	12.050276395588135
O	-16.101098373135592	1.973989824301695	-2.393862604411865
O	-13.635759473135593	2.428546155201695	0.4549079755881349
O	-7.271981743135592	1.7064487842016949	5.777928485588135
O	-4.336214913135593	-0.690366596798305	6.372545215588135
O	-2.3650728831355927	1.373732345201695	3.878321875588135
O	-2.2391865231355927	4.418012463201695	6.142629715588135
O	-0.01823273513559276	4.366576603201695	9.238988935588134
O	-1.8839053031355926	6.755603113201694	11.579736695588135
O	3.5118451568644073	13.782487453201695	14.612612795588134
O	-4.928116683135593	3.262077743201695	9.857059495588135
O	-2.4779105931355927	0.5523641332016949	10.796782895588136
O	-1.8425906531355927	1.729540588201695	14.357936895588134
O	-5.8488664231355925	-1.8782696967983052	13.351327595588135
