86

O	0.48447327460357137	-4.539846566696428	3.4999332952482147
O	-0.1437963853964288	-3.2975865766964283	3.3374221952482146
O	0.8694040146035713	-4.8856336066964285	2.1969845552482146
O	0.1238217646035713	-4.034432866696429	1.1697821752482145
O	-0.050739025396428605	-2.9916885966964286	2.1018733952482145
O	-1.7212068883964287	-6.6361271366964285	1.5649569652482145
O	-2.300635177396429	-5.7287084266964285	2.4608413052482145
O	-0.8278673433964288	-2.7244389366964286	4.456897385248214
O	-1.3265590778964287	-3.9690970966964283	1.0833908552482143
O	-0.36776720839642874	-6.330263516696429	1.7055613752482144
O	1.7976669146035713	-5.648038396696429	1.6975186752482143
O	0.6827553646035713	-3.8560395666964284	-0.20713459895178557
O	-2.6225663953964284	-4.671294716696429	1.5542759952482144
O	-1.3718369406964288	-6.8697734666964285	0.20871117524821445
O	-2.1928143173964285	-6.093418796696429	3.607536515248215
O	-0.8238442293964288	-5.121136336696429	0.7074932402482144
O	0.8641655846035714	-5.262159676696429	4.676515635248214
O	-0.18461827539642872	-5.936996736696429	-0.14191148195178557
O	-0.5385909083964288	-3.0336142166964284	-0.36005057575178556
O	-3.580063025396429	-5.302600106696429	0.6437672962482144
O	-1.1676762403964287	-3.1166570566964285	-1.5964134047517855
O	-4.827656815396429	-4.552644746696429	0.6812679632482144
O	-3.853592885396429	-6.173451356696429	-0.3242236202517856
O	-0.6595725463964287	-4.041163146696428	-2.5309914947517855
O	-2.5722661453964286	-3.2048698266964286	-1.3657907447517856
O	-3.593510175396429	-3.9803431366964284	-2.0592712447517854
O	-1.7599379773964288	-5.110142686696429	-2.6075120147517854
O	-5.326998885396429	-6.439330366696429	-0.43405316575178554
O	-5.991053035396429	-5.193434496696429	0.01889007224821443
O	-2.9003540253964286	-4.299684026696429	-3.2484811747517854
O	10.685275824603572	0.25173380630357145	0.16070961524821445
O	7.944150554603571	2.6639764633035714	1.1370154852482144
O	7.173397054603571	6.387756643303571	0.9737114852482145
O	5.557239114603571	7.74578794330357	-2.1549328647517854
O	5.006878244603571	8.01446258330357	-8.177878824751785
O	2.5221997046035716	6.432521713303571	-5.7933214147517855
O	3.037240554603571	4.392298613303571	-2.5698748147517856
O	1.2886497046035712	5.978114063303571	0.41134352624821435
O	-0.46237730139642874	2.9585215933035713	2.067132795248215
O	-2.6328964553964287	3.4706258833035712	5.127199655248214
O	-3.0783917753964287	-0.1805050286964286	5.371588945248214
O	-5.156874805396429	-0.4827480846964286	2.2258108252482147
O	-8.089765095396428	1.2922726533035713	0.39474608024821445
O	-7.472450065396429	0.9947838933035714	-3.3870942047517856
O	-5.861145195396429	3.478217273303571	-5.771478834751786
O	-4.000112985396429	0.9387167933035715	-8.069456194751785
O	-1.3877149724964286	1.9035172033035717	-10.767207114751786
O	-5.636301635396429	-8.79731026669643	-5.042498574751786
O	-3.518213795396429	-11.71302083669643	-3.5944342247517853
O	-0.3358018153964286	-10.498323556696429	-5.910191984751786
O	-1.5687732443964286	-8.039418726696429	-8.559942224751786
O	-4.467576645396429	-8.224123306696429	-11.004153514751787
O	-8.350120585396429	3.384708603303572	-10.585858414751787
O	-7.360194125396429	-0.23164057869642857	-10.727097214751787
O	3.901562334603571	-11.094831636696428	-8.811549674751786
O	6.145401864603571	-9.765161346696429	-6.003018474751785
O	4.244100094603571	-6.509678646696429	-5.824967864751786
O	6.553325294603571	-3.9484809066964286	-7.5791478847517855
O	9.83879812460357	-3.4298527366964287	-5.737875314751786
O	11.46954452460357	1.7719665233035715	-5.0717176947517855
O	10.787537224603572	4.365492673303571	-7.779724424751786
O	6.984322664603571	3.9246069633035714	-7.253844444751786
O	1.3095729946035715	2.5114973233035713	-8.007442764751785
O	-0.3247646253964287	2.4610609933035716	-4.574012254751786
O	-2.6288627653964287	4.945545513303571	-2.818371804751785
O	-4.858367415396429	3.2792663333035716	-0.28341573765178557
O	-5.798629455396429	5.709028393303571	2.3620875752482147
O	-7.896413335396429	3.4870186733035715	4.594493535248215
O	-11.67716497539643	2.9897845133035714	4.510067845248214
O	-11.585835275396429	-3.0178250466964287	3.1171714052482145
O	-11.467486175396429	-2.0237385166964286	-0.5420795517517856
O	-11.85443497539643	-0.07259185269642854	8.117124755248215
O	-8.147466845396428	-0.02847097269642862	8.816103175248214
O	-6.891281595396429	2.8154859633035714	10.931397085248214
O	-1.3226917310964288	2.0639628833035717	11.797857685248214
O	0.10492662460357138	0.9145250633035714	8.424156685248214
O	2.5517313746035715	3.0709686933035716	6.375407335248214
O	2.617532514603571	0.06530093230357137	3.838047355248215
O	4.446133734603571	-2.0865618666964285	6.386948815248214
O	8.098810564603571	-1.4781289396964286	7.220229865248214
O	8.259353514603571	-3.0289411666964283	10.682901685248215
O	8.773499724603571	-8.867541646696429	13.791683385248215
O	-2.6756079353964286	-10.67405726669643	12.210069285248213
O	4.615777074603571	0.32137059330357143	10.411775285248215
O	6.861721014603571	2.9122658033035713	8.858914555248214
O	5.729035584603571	6.295789373303571	12.086892585248215
