105

O	6.129410318241379	-3.830407428293103	-4.553677025812069
O	5.090559738241379	-4.997711698293102	-4.40477431581207
O	4.330454558241379	-6.031717638293102	-5.272884875812069
O	5.185495258241379	-5.632972798293103	-6.35230842581207
O	3.1561546382413788	-5.515897938293103	-6.25293687581207
O	3.5324799382413787	-6.611037648293102	-4.2660941958120695
O	3.4944413882413787	-6.0849180982931035	-2.8613258058120694
O	3.144398168241379	-6.868342468293102	-1.8144969798120696
O	3.300898328241379	-5.998347728293103	-0.7875340368120696
O	3.979056158241379	-6.242377418293103	0.5652030841879305
O	5.318701018241379	-5.5108475582931025	0.38865852418793034
O	2.665393488241379	-4.979006958293104	-2.57690721581207
O	2.800177068241379	-4.814302868293103	-1.1865241611120696
O	3.029634278241379	-3.552086758293103	-0.7686202478120696
O	3.0582207282413787	-2.4920778082931028	-1.6138750518120695
O	3.012466978241379	-1.1956300702931029	-1.0474292708120696
O	2.929313278241379	-0.9547109862931029	0.3683128141879304
O	3.280158218241379	-0.044458956293102925	1.3730565841879303
O	3.5907590382413788	1.336548131706897	0.9259122141879306
O	3.655009268241379	1.878650701706897	-0.4843886168120696
O	2.7461460682413787	2.444847071706897	-1.4309777178120695
O	2.8879307282413786	2.404076171706897	-2.8608783558120696
O	4.147023658241379	2.259044911706897	-3.338934135812069
O	5.084177368241379	2.5899535117068972	-2.40114423581207
O	4.797246528241379	2.557295091706897	-0.9889224638120696
O	2.363811638241379	-0.5191361869731029	2.5516845841879308
O	2.119946118241379	0.0432180547068971	3.70058619418793
O	3.0242823682413786	-1.858919068293103	2.94827178418793
O	3.1116017782413787	-3.169061068293103	2.1753196141879307
O	3.888979268241379	-3.844781598293103	3.24369042418793
O	5.300820598241379	-3.5338268582931027	2.7649466741879305
O	5.317955648241379	-2.244992408293103	1.9663027541879303
O	5.501526048241379	-2.150187758293103	0.6321638941879304
O	5.954898528241379	-1.6182954882931029	-0.5583208618120695
O	6.074053798241379	-2.434821798293103	-1.6483532718120695
O	6.009009468241379	-1.9890680582931028	-2.9352488758120696
O	5.712875738241379	-0.7620510942931029	-3.3745320058120694
O	6.278325198241379	-0.024017670293102922	-2.3874698358120696
O	6.095374908241379	-0.32261394829310297	-1.0197895788120697
O	4.522337618241378	-1.446900101293103	2.9124617441879304
O	4.930739298241379	-0.24833280429310295	2.7392396141879303
O	3.275541608241379	-0.34340380229310297	-1.8027237488120695
O	2.8635822382413787	-2.566749468293103	-2.99429913581207
O	3.056591368241379	-3.856999998293103	-3.33480240581207
O	3.8595396982413788	-3.795857648293103	-4.47541326581207
O	3.742631648241379	-3.319962058293103	-5.64720167581207
O	5.488357108241379	-5.029972658293103	-2.8864785858120694
O	-1.893128531758621	11.997517671706898	-3.7182949758120696
O	-2.4219158517586212	5.494290501706898	-6.58523241581207
O	1.125147570241379	5.331742161706897	-7.85471038581207
O	2.877449928241379	7.157101871706898	-5.00008329581207
O	0.17352061624137882	6.983558041706898	-2.3264351058120694
O	-2.4801095317586213	9.027876321706897	-0.5757408478120696
O	-1.5088113217586212	11.091697971706898	2.4238007841879305
O	0.9359705352413789	8.146330491706898	4.0077928441879305
O	-2.390819981758621	6.4543126117068965	4.84805508418793
O	-1.456254551758621	2.742157731706897	4.97310998418793
O	-4.072548381758621	0.125301627706897	5.91532286418793
O	-1.280228491758621	-2.447027078293103	5.18482209418793
O	0.9514772312413788	-1.722885318293103	8.14206073418793
O	0.6858293852413788	-0.8865518742931029	11.84128524418793
O	3.417092578241379	1.6120554217068972	12.69641784418793
O	6.7254601082413785	6.289395601706897	11.54595704418793
O	11.55341873824138	-2.715164248293103	9.19890694418793
O	12.997912738241379	-4.4805011382931035	6.19213524418793
O	13.87235503824138	-0.720787125293103	4.55275726418793
O	13.587131738241379	1.883099571706897	7.184434494187931
O	14.05292953824138	2.963963811706897	-1.0964654967120695
O	11.54756193824138	4.238699001706896	1.5858515641879303
O	9.42060143824138	8.407388611706898	-2.8408744558120693
O	5.2639770582413785	11.914665971706897	-3.2403847358120696
O	4.773021008241379	12.653341771706897	2.20916885418793
O	5.908149568241379	9.518489871706898	7.1488166841879295
O	3.383897568241379	6.718209311706897	7.36891922418793
O	-0.0988895567586211	2.254563581706897	9.75702174418793
O	-3.788753491758621	-2.0711878782931032	10.72552254418793
O	-3.753690661758621	-8.351199458293102	11.87608094418793
O	-3.878410921758621	-7.045105368293102	8.30808338418793
O	-7.427737951758622	-6.103059278293102	7.244388434187931
O	-5.966829071758621	-8.039448218293103	2.36445534418793
O	-7.174206131758621	-4.458518878293103	1.7767008841879306
O	-3.974456091758621	-2.3439093582931028	1.4472209741879303
O	-4.115864451758621	1.4137314017068972	0.6526096641879304
O	-0.3947759217586211	1.188146261706897	0.6972456841879304
O	-0.31929247275862116	-1.024211494293103	-2.4392795458120693
O	-0.9416746917586212	0.5389445117068972	-5.888993695812069
O	-2.1492857017586213	-2.5149398782931027	-7.75396278581207
O	-4.786466531758621	-5.136644408293103	-7.41288984581207
O	-2.269955691758621	-7.947524378293103	-6.738414035812069
O	2.267636958241379	-4.108047898293103	-15.84868675581207
O	-2.634200461758621	-2.1011786682931026	-12.63460035581207
O	-3.2455018717586213	-5.753241918293103	-11.90503985581207
O	-0.34772097175862116	-7.9498966582931025	-11.110468465812069
O	0.30190583024137885	-11.463776428293102	-9.69583013581207
O	1.2218269672413788	-12.036771328293103	-6.02195821581207
O	3.0126516482413788	-14.827667528293102	-4.138032255812069
O	1.7992741382413788	-13.229273128293103	-0.9337064658120695
O	-3.8862511317586215	-7.376004548293103	-2.2831861058120695
O	-6.764390511758621	-4.951639038293102	-2.8896297458120697
O	-4.714120411758621	-1.8762870582931028	-3.45696345581207
O	-5.278568471758621	1.7413162117068972	-4.17082061581207
O	-6.634999961758621	1.279707031706897	-7.71580753581207
O	-9.36290166175862	-0.9798924542931029	-6.37370664581207
O	-9.982075161758623	1.278332591706897	-3.3998266558120696
O	-10.46136326175862	4.216404491706896	-5.81891950581207
