86

O	-2.3668432642598174	3.8264595685163636	0.04549239929090865
O	-0.9467751462598174	3.9825891285163637	-0.03127386070909122
O	-0.3881925572598175	2.7947095545163636	0.18775580929090863
O	-0.6958767222598174	2.038256397616364	-0.8778511057090913
O	-1.9573254052598175	1.9224884071163637	-1.5002917207090913
O	-2.748888537259817	2.7571447635163637	-0.8133477807090913
O	0.22552472274018265	1.0774608635163636	-1.3363022593190914
O	0.19814175274018253	1.0258150975163638	-2.7517049207090913
O	-1.0490056942598174	1.1153382855163638	-3.496974490709091
O	-2.4282948302598175	1.3130213375163637	-2.7962923307090914
O	1.4479825027401827	1.3375970565163637	-3.3325687407090916
O	1.3566592027401827	2.7352622705163636	-3.495383390709091
O	0.1072591527401825	3.2436611885163638	-3.2739794907090913
O	-0.7552886582598174	2.4049469515163637	-4.0923068307090915
O	-3.4683878872598175	4.6615156885163636	0.42144966929090866
O	-0.5575516172598174	4.223309628516364	-2.6728370607090914
O	-3.4606287072598176	2.005640085116364	-3.6093630007090916
O	-4.762486577259818	1.5989039375163638	-3.075155860709091
O	-4.4414691272598175	0.35229833851636383	-2.5910697007090913
O	-3.1838920972598173	0.13631708851636382	-2.6557814507090916
O	-5.522466637259817	-0.6403530414836363	-2.752822790709091
O	-1.7822762382598174	4.673203388516364	-3.217181490709091
O	-2.568022591259817	5.754561498516363	-2.923666530709091
O	-3.925308127259817	5.044765718516364	-2.7942974707090915
O	-3.862538807259817	5.836362928516364	0.9309671892909088
O	-5.012174837259818	6.483759718516364	0.45603749929090864
O	-5.945004037259817	5.857379688516364	-0.30072997070909135
O	-5.7664331972598175	4.564617558516364	-0.4534478117090913
O	-4.717150557259817	4.041158618516364	0.29602592929090865
O	-1.9459890082598175	6.372516688516364	-1.6585841547090914
O	-3.4921601272598175	6.704700368516364	-2.3289255367090913
O	-2.8763800872598173	7.008241728516364	7.095061739290909
O	-2.8119174372598175	3.241472368516364	6.985719279290908
O	-1.6476967689698174	0.3456423085163638	9.26157162929091
O	1.9316597227401824	-0.7822064014836361	8.985228729290908
O	7.814056342740183	0.2850622185163638	8.482260309290908
O	5.5983208727401825	-1.1037332314836363	5.751745659290909
O	1.9994755127401824	-0.3854171314836363	4.897102539290908
O	-0.10217035725981738	-3.547267871483636	5.018268349290908
O	-2.1126824322598172	-3.686223201483636	1.9040835192909087
O	-4.505440937259817	-6.182807991483637	0.6680108892909087
O	-5.532152727259818	-4.199450601483636	-2.3579833107090913
O	-2.2336533032598176	-4.532405131483636	-4.211717290709092
O	0.45146502274018263	-7.072784441483636	-5.000573070709091
O	3.7271730327401826	-5.097253941483636	-4.978467380709091
O	6.276093552740182	-5.038121361483636	-2.1910502417090916
O	7.736509272740183	-1.6105462814836362	-2.7450371007090912
O	9.998495882740183	0.3643429185163638	-0.4527186177090913
O	2.7986044627401823	2.2297515705163637	-10.958967050709091
O	0.4405735527401824	5.180893478516364	-11.544949170709092
O	2.5316457327401825	7.313834178516363	-8.681034660709091
O	5.662145052740183	5.461524688516364	-7.779075350709092
O	8.498395682740183	4.379615638516364	-10.094664170709091
O	11.435333882740183	-5.697791251483636	-3.900664480709091
O	10.652437482740183	-2.6800338314836365	-5.972884340709092
O	5.011718452740182	11.534642708516364	-6.636916440709092
O	2.5855346627401827	11.958679908516364	-3.756889980709091
O	3.3295095627401823	8.269919628516364	-2.634170940709091
O	4.702595562740182	8.730994238516363	0.8075938992909089
O	2.4294562527401826	10.361706648516364	3.4378664892909088
O	4.072240742740182	12.872654658516364	5.786176069290908
O	2.3359930427401823	8.039893948516363	8.352394559290909
O	5.640330122740182	6.630987908516364	9.727951129290908
O	5.686991522740183	4.056309258516364	6.873552139290908
O	8.510976782740183	3.706471718516364	4.295743319290908
O	7.020280322740182	1.1404510405163637	1.9569055792909087
O	4.0536387527401825	-0.9726397214836364	1.0852765292909086
O	3.3208751127401825	-4.6195695914836366	1.2997153592909088
O	0.9727267527401826	-5.889941061483636	-1.3668803737090913
O	-0.7313964492598174	-8.997854641483636	-0.10728753070909125
O	-3.0552078872598174	-9.633010941483636	-3.0632665207090914
O	-2.4036923762598175	-12.040835341483636	-5.965462760709092
O	-2.5035230742598173	-7.681210671483637	-10.373985800709091
O	1.2251368227401824	-7.334955671483636	-9.703277790709091
O	-6.529330817259818	-11.226235041483637	-8.175745630709091
O	-7.843989077259818	-8.705414841483636	-5.661664840709092
O	-8.697578917259817	-3.5394035714836365	0.7738079992909086
O	-6.678875057259818	-2.4439344914836365	3.866543529290908
O	-5.032435057259818	0.16353887851636384	1.7711638892909087
O	-8.358105167259817	1.8691421361163638	1.5541984792909085
O	-9.789479797259817	3.830450688516364	4.7203521692909085
O	-13.568526317259817	3.804591818516364	3.8495252492909087
O	-18.10498431725982	6.925544468516364	-0.11455225070909125
O	-11.589672097259816	-0.7160645814836362	3.561567539290908
O	-9.860291957259816	-0.1827281114836361	6.920441099290908
O	-11.881207117259816	-4.106519801483636	8.740059429290909
