46

O	24.14212778456134	9.7984313559433	19.310967001534447
O	22.416976352757896	9.006725792876036	22.672690589294668
O	22.997166172594827	14.101114212109291	22.850094997293077
O	22.836206776198335	9.276174268461046	19.48998494624375
O	22.37172023514678	12.058464979763869	23.28171347566665
O	26.6838264087744	13.544380130126438	19.268913669999744
O	21.870451442021043	9.357886901253384	20.535069236320005
O	21.977693962784116	9.20464583376391	24.95799999263688
O	22.85736467934895	9.615345887564601	21.507446067636582
O	24.190573086938908	13.9904948167523	20.05143563739985
O	24.134158975674115	9.96568890334137	21.522696285176412
O	26.738893703488074	11.82512329574729	20.716936296239183
O	24.890167916742598	9.759007231815938	20.397654284898778
O	22.773712356785698	9.446212950409956	23.834383060127944
O	23.404412340116423	10.63574711178594	23.69843842316799
O	24.53139949482922	10.551658051109166	22.78769700985106
O	23.504971058422534	11.707685204762264	24.729341578092956
O	24.347291324426067	12.80430490724351	23.928569522734563
O	23.30895100636154	12.900301595244438	22.914692618851696
O	20.99879811189092	12.04174082555428	23.94262357068208
O	20.925867716777965	11.878885499041846	22.482923271693075
O	20.836577046457485	13.196414146853236	21.938517735389517
O	21.200583896859484	14.446183407226293	21.317355511319928
O	19.610852303500394	12.845875277885316	21.257117064750013
O	20.118385713191365	13.965117445094048	23.133232053273993
O	24.190883938903866	10.84947124017076	18.344616104790948
O	22.918967824934956	11.298460877735643	18.367668509047505
O	22.03448319821218	11.668279002056877	17.317266935807524
O	22.488494036329882	10.806694264012528	16.253328599396387
O	23.87764913821281	10.646187718739542	16.095303982828263
O	24.542527167103938	11.22946750999622	17.098468516701125
O	21.757447565507306	11.260107235575004	19.39892977965967
O	22.373286303518523	12.549061184467615	19.531727265748486
O	23.977304229891946	12.759622944638085	19.339737790516274
O	23.4730948508803	12.33047388720885	20.50576598496245
O	24.64511771690268	12.571564963887138	21.275743895505
O	25.9487768649736	12.815476478411675	21.439154139997566
O	25.283793470180644	13.899999924464016	20.966145122688825
O	26.548486176644637	12.249126858423198	19.470084211867444
O	26.678753249415173	11.354001076928121	18.364233833343278
O	27.192894163878428	10.120031595783619	18.29137947654506
O	28.536510188054503	9.996434721236893	18.152169340691934
O	29.27897685371834	11.01108173384332	18.831611021865346
O	28.943207161811962	12.050474420211616	17.953662177796488
O	27.548140412524717	12.108139605574333	17.807083726220785
O	30.59529680536491	10.739929188003288	18.67368061579529
