86

O	-3.332092188568965	-2.102230389062931	0.20187935479310348
O	-4.482093718568965	-0.22571376906293095	-6.414137345206896
O	-5.6872035585689655	-0.045171495062930944	-3.0298432552068966
O	-3.505244268568965	-0.9639826490629311	0.9794501447931037
O	-2.279171717568965	0.593847820637069	-3.4126356852068964
O	-3.215567738568965	-2.0117808990629307	-1.1888101972068965
O	-4.175740738568965	1.516131270937069	-4.143356695206897
O	-6.307267468568965	1.007642646937069	0.9526844647931036
O	-2.0700417980689654	2.3673385209370688	-5.146445725206897
O	-5.841432068568965	1.741230860937069	2.1109965547931036
O	-2.8974003675689652	-1.6117755390629311	-5.207808355206897
O	-4.797376528568965	-1.5710047790629311	-4.437697755206896
O	-2.8050907865689654	0.272491587937069	-0.8765170962068966
O	-4.6443654685689655	2.1096687109370693	-0.05729811520689654
O	-3.458168598568965	-1.045263699062931	-6.3991870352068965
O	-5.380808368568966	-0.784442179062931	-5.560704905206896
O	-2.9743500875689652	0.23647807793706904	0.5041725747931034
O	-3.7879330585689654	1.467704476937069	0.8813597347931035
O	-3.356455258568965	-0.7538669790629309	-1.6789145462068966
O	-3.4782002285689653	-1.298473839062931	-4.019243975206896
O	-5.962928398568965	1.613481038937069	-0.2700020352068966
O	-4.4538254085689655	1.402131050937069	2.1328509047931035
O	-4.615217188568965	0.691437652237069	-3.0453121652068966
O	-2.7591436045689655	1.366702460937069	-4.352909715206897
O	-3.400476038568965	-0.193676721062931	-2.9938988152068964
O	-4.995159078568966	2.487357060937069	-4.791332195206897
O	-6.899948538568966	1.8945771309370691	-1.1556727532068964
O	-3.9289400685689655	0.428524098937069	2.9607673047931033
O	-2.680625384568965	10.33995992093707	3.8891253247931035
O	-5.827659098568965	8.500933170937069	4.908374834793103
O	-4.033955838568965	5.414859480937069	6.210415284793103
O	-0.7491982385689653	5.589011110937069	4.332956994793103
O	2.906276981431035	6.125254020937069	4.971069554793104
O	5.057333601431035	3.1661488109370692	5.953284884793104
O	5.864762161431035	-1.993844629062931	8.937966544793102
O	5.322693431431035	-1.710602999062931	5.215302414793103
O	3.1950661814310344	0.6588223385870691	3.212793764793103
O	5.218749951431035	2.6943542109370693	0.6872092547931032
O	3.1124921214310346	2.348441750937069	-2.5656895152068966
O	4.3896326014310345	3.954013380937069	-5.7794401252068965
O	1.1766449814310347	2.8514562209370693	-7.442745955206896
O	1.8069654414310348	-0.956740959062931	-7.393067865206897
O	4.588840501431035	-3.4146017090629313	-7.987839325206896
O	4.206588071431034	-6.235688349062931	-5.462536095206897
O	6.051473361431034	-6.656721959062931	-2.1899228982068966
O	3.378406821431035	-8.40004258906293	-0.12151340520689646
O	3.221878751431035	-8.98476142906293	3.6213992347931034
O	-4.680935258568965	-9.75795319906293	-6.323596865206897
O	-8.270614358568965	-8.42865456906293	-6.492255215206897
O	-8.297694678568966	-8.21770425906293	-2.3664239402068965
O	-5.453475168568965	-10.379848399062931	-0.9745054972068965
O	-4.299050748568965	-13.936961299062931	-1.7053106722068965
O	7.714200481431035	-11.75872289906293	-1.2343185612068965
O	4.056556181431035	-12.55493519906293	-1.5564907252068965
O	-7.380480778568965	-10.83112169906293	2.5506333647931037
O	-10.628492358568964	-8.898247779062931	2.2051092047931036
O	-10.751504918568966	-5.239593399062931	3.1114991947931037
O	-7.008508628568965	-4.954240659062931	2.580337264793103
O	-5.547611088568965	-4.4142056190629315	6.085711394793104
O	-6.681375478568965	-1.066080009062931	7.622724234793103
O	-7.476721378568965	-1.163401549062931	11.328953544793105
O	-4.991328608568965	1.086960996937069	13.126574044793102
O	-2.765231063568965	1.847051200937069	10.104887844793105
O	0.04816174143103469	0.07514300893706904	11.956111944793104
O	1.332019311431035	-1.4655983990629309	8.699756744793103
O	1.4902124014310347	-5.196252229062932	7.955104484793103
O	2.411638431431035	-5.225249859062931	4.281672304793103
O	2.745987791431035	-3.201076679062931	1.0966803447931035
O	5.863690031431035	-2.2472338790629314	-0.8781902022068966
O	4.940127381431035	-1.7986963790629311	-4.534112495206896
O	7.6400590514310345	0.5331260249370691	-5.946803485206897
O	6.391859241431035	0.751796039937069	-9.516760785206898
O	7.553625091431035	-1.321890659062931	-12.503075155206897
O	5.449594211431035	12.64122410093707	2.7581131247931037
O	4.708360011431035	0.728211381937069	-15.665764655206896
O	3.045644181431035	3.114089990937069	-13.203663055206896
O	0.5427993614310349	7.179422650937068	-6.404688675206897
O	1.5680682014310348	7.329379570937069	-2.6949663052068966
O	-0.9257212585689651	4.501445250937069	-2.0643130802068965
O	-3.860753938568965	6.716845370937069	-3.0360536052068965
O	-5.103925698568965	9.23614713093707	-0.48633328620689653
O	-6.752477168568965	11.817259300937069	-2.793080455206897
O	-2.168553469568965	10.76114090093707	-4.338286105206897
O	-0.7367631485689652	11.34005590093707	-0.9097585572068966
O	-2.483705029568965	14.638811700937069	-0.3063115452068965
O	2.5559547214310347	14.469308300937069	-2.525949025206897
