103

O	-0.3465238156949155	-6.174116928838981	2.531628204259322
O	-1.2915828566949155	-3.768925058838981	5.131400574259322
O	-1.7966516966949155	-5.801179128838982	4.498190534259322
O	-0.8330804396949155	-4.9390258188389815	2.890426924259322
O	1.6159377133050845	-1.415421748838981	1.787917067259322
O	1.4954246233050845	-2.540634278838981	3.5645421142593223
O	-0.23674430695491552	-3.840471788838981	2.458436704259322
O	3.6684747333050844	0.32674130516101874	-1.097613605740678
O	2.5577076033050847	1.9223592011610187	0.666945400259322
O	1.0184586433050846	-3.894627878838981	1.832985304259322
O	1.4631633633050845	-5.1449199388389815	1.6540058232593222
O	0.9853273133050845	-6.3532958488389815	2.064022844259322
O	-1.7903914966949155	-4.619557488838981	4.024903654259322
O	-2.1665371866949155	-3.787305008838981	6.320603694259322
O	-0.07472079369491552	-4.0324866088389815	5.922519844259321
O	0.2617466703050845	-5.1160424088389815	5.080924614259322
O	1.7414519133050845	-5.208475398838981	5.128141604259322
O	-3.4562919066949154	-3.163512418838981	5.970705954259322
O	-3.4919866066949155	-2.842768888838981	4.525534474259322
O	0.8203598333050844	-7.574107008838982	1.278399812259322
O	1.6154226533050846	-2.6905053388389812	2.345653804259322
O	1.8454005833050844	-0.07535170483898122	1.967190074259322
O	2.1868456433050847	0.5585391591610187	0.6722872352593221
O	1.0439512133050846	0.8400057311610188	2.763297494259322
O	0.49961862230508447	0.09433586816101877	3.9462655142593217
O	1.1314748033050845	0.045316936161018784	5.1579748242593215
O	0.7046191893050845	-1.0378283078389812	5.969789794259322
O	-0.5869566466949155	-0.9877589768389813	6.318349614259322
O	-1.4204455566949155	-0.45292568683898127	5.421162204259322
O	-0.8585678966949155	-0.08756146493898123	4.194811244259322
O	3.3965913233050844	-0.13309984643898123	0.27348585425932204
O	4.146387053305084	0.7813083731610188	1.304315323259322
O	5.534860693305084	0.3995422321610187	0.991088312259322
O	5.453546013305084	-0.7142275948389812	-0.00460982074067795
O	4.966726703305084	-0.23608228493898123	-1.367320555740678
O	5.585111613305084	-0.019458725838981228	2.464094524259322
O	4.566269473305084	-1.1030628318389812	2.783277334259322
O	4.541258113305084	-2.428330088838981	2.603192854259322
O	4.493402953305084	-3.369049348838981	3.630274854259322
O	4.223528153305084	-2.989296678838981	4.901245434259322
O	3.9477033933050847	-1.665885538838981	5.077125794259322
O	3.9124365033050847	-0.8343970898389813	3.982498794259322
O	1.5477115333050846	-1.5402180188389811	6.939760194259322
O	-2.6198446066949153	-0.16726064543898123	5.9310899442593215
O	-8.974712096694915	-4.224230948838982	0.888154145359322
O	-7.832127466694915	-5.5824313388389815	4.229540954259322
O	-7.300550816694916	-2.249069068838981	5.977591304259322
O	-6.691497516694916	0.003332338161018772	3.0129909442593217
O	-8.787586116694916	2.691295461161019	1.080263338259322
O	-8.668205346694917	6.3829819311610185	2.086731814259322
O	-5.4429197566949155	9.530201621161018	4.262210794259322
O	-4.5883291766949155	6.100393461161018	2.829422564259322
O	-4.372116716694916	6.169501181161018	-0.9960966957406778
O	-1.0900668646949154	4.275926931161019	-1.6681152257406777
O	0.26491785330508444	3.814301041161019	-5.210546395740678
O	3.0740728933050847	1.6461523811610188	-3.6928274757406783
O	4.960002303305084	4.450113861161018	-1.872973135740678
O	6.000640113305084	8.081331501161019	-2.4417325657406783
O	5.720250323305084	9.946396351161019	0.8634098508593221
O	2.8804512133050846	11.973966851161018	2.276522744259322
O	3.0664692533050846	11.081566251161018	5.979767634259322
O	10.698332443305084	4.139001191161018	7.177280924259322
O	10.967823843305084	0.48758887716101873	8.319191024259322
O	7.682384123305084	1.0503971811610189	10.687665634259321
O	7.1589986033050845	4.780364211161018	11.154704324259322
O	6.392802163305084	13.794248151161018	7.173756804259322
O	2.5406015733050844	-1.660647158838981	13.607135824259322
O	1.7896041533050844	1.175509991161019	11.151270524259322
O	-1.5934400866949154	2.484528751161019	12.161920124259321
O	-4.440587566694916	-0.0032363568389812136	11.960855424259321
O	-9.012833806694916	1.5425877611610188	9.567701914259322
O	-7.169508106694916	6.614845901161019	8.416308004259323
O	-1.8803866266949154	9.07161794116102	7.315379564259322
O	-0.6875128466949155	7.838011471161018	3.962708314259322
O	-0.5979475106949155	9.509864281161018	0.511705733259322
O	2.2456200333050846	8.029778321161018	-1.539986785740678
O	4.437821103305084	6.668135181161018	-6.691718345740679
O	9.199799193305084	5.403471701161019	-12.963284475740679
O	9.813392443305084	4.400562801161018	-9.354417075740677
O	6.991222423305084	2.060006801161019	-8.338641355740679
O	4.215601173305084	1.813243561161019	-10.926984875740677
O	0.35627256930508444	-1.9547849188389812	-9.089725585740679
O	-0.06208621769491551	-1.2173478588389812	-5.417724565740678
O	-3.2392957966949156	0.023510708161018773	-3.7094139257406784
O	-1.4322554966949155	-0.22441835933898124	-0.380930975740678
O	-1.3685401366949155	-3.879567318838981	-0.7332543457406779
O	-4.392156306694916	-6.132807388838982	0.012813372259322109
O	-3.5280890166949153	-9.24984179883898	-1.8944946657406778
O	-2.4928515966949156	-10.255282448838981	-5.351319595740678
O	1.0613472433050846	-11.264964748838981	-4.5063874157406785
O	-3.4495267766949156	-14.49817794883898	-3.3162179557406786
O	-0.13874588469491553	-14.933240048838982	-1.512357955740678
O	3.5395786633050847	-15.452362048838982	-2.118537435740678
O	6.060688643305084	-12.782108448838981	-2.7740582557406777
O	9.849391343305085	-12.607591148838981	-2.5737899257406776
O	9.662510533305085	-9.093354508838981	-4.018964935740678
O	2.0745602233050846	-7.045288048838982	-6.524637145740678
O	-1.3357002966949154	-6.212608918838981	-7.9436034557406785
O	-2.8377203166949156	-5.183541028838982	-4.578019995740678
O	-6.312557216694916	-3.876508118838981	-3.7998656457406783
O	-8.236059116694916	-7.104530298838982	-4.4099508657406785
O	-7.090924756694916	-7.034900468838981	-7.986372475740678
O	-7.658319086694916	-3.311895198838981	-8.330052065740679
