79

O	3.0762776620000007	-4.093047923017242	-3.9084548333913793
O	2.8523021320000006	-3.2018962030172413	4.516040556608621
O	1.8008309820000004	-3.094290823017241	3.844414506608621
O	-0.8498557309999997	-4.8046005630172415	0.4064522106086207
O	3.385666712000001	-4.487449813017241	3.560842936608621
O	2.4148825320000005	-5.477168343017241	2.326640616608621
O	3.7753427220000004	-2.1333269730172413	4.73795552660862
O	1.0510644420000004	-4.929789023017241	2.2204994266086207
O	0.1994321720000004	-2.7422945030172414	0.17620662760862074
O	0.8255944920000003	-4.238574233017242	3.6087105766086207
O	-0.5653030469999996	-3.7955343430172412	3.405460386608621
O	-0.8722595439999996	-3.5168793730172414	2.0221456066086207
O	0.4605028120000004	-2.801159913017241	1.667387376608621
O	-0.1140297849999996	-4.028400333017242	-0.23377933439137927
O	0.8351276120000003	-4.3839277230172415	-1.3054931733913793
O	2.1336351320000007	-3.8426571130172413	-1.293393973391379
O	2.6951943220000003	-4.650369213017242	-2.3111463333913793
O	2.7915723120000004	-5.951101183017241	-1.9064002733913792
O	1.6191813820000007	-6.626370333017241	-1.665797123391379
O	0.5192299820000005	-5.716087053017241	-1.587555503391379
O	1.6039507520000007	-3.8011860930172414	1.4748325266086209
O	0.03114620200000029	6.898690296982759	-9.636572863391379
O	1.3526388520000006	3.353565586982759	-9.447628513391379
O	6.899940252	-0.28097386501724136	-6.74696298339138
O	5.460757682000001	-3.7690005730172413	-7.264550893391379
O	1.7784968320000005	-2.859465543017241	-6.84273250339138
O	2.0957392520000004	0.3138818979827586	-4.82417711339138
O	1.6016627020000005	4.024271756982759	-5.160816873391379
O	-1.8333210109999996	5.512773626982759	-4.61517436339138
O	-7.830434038	5.251576196982759	-5.141970423391379
O	-5.920837307999999	4.727025926982758	-1.9502818633913792
O	-2.559560338	3.1196850269827587	-1.3709967033913792
O	-0.053547316999999595	5.473698986982758	0.3576285286086207
O	1.4381087820000005	3.2186039669827586	3.1686902766086207
O	3.9666796920000005	4.657768006982759	5.611745226608621
O	4.281064522	1.2256405869827585	7.173116276608621
O	0.7842713920000003	1.1028316169827586	8.79969959660862
O	-1.6760173049999996	3.315106876982759	10.63639217660862
O	-5.219828477999999	2.469058416982759	9.46845505660862
O	-7.3152678579999995	4.099120836982759	6.809654126608621
O	-9.184664188	1.1076044869827586	5.339905516608621
O	-11.266765158	0.8856740469827586	2.1828035066086207
O	-3.8633840779999993	-10.427837973017242	9.56834863660862
O	-5.578158857999999	-10.370913193017243	5.806274096608621
O	-8.578193928	-8.048859513017241	5.780637736608621
O	-12.574349858	4.411482876982759	8.26944208660862
O	-12.332747057999999	0.6411357469827585	8.43152538660862
O	-7.697837008	-12.596967873017242	1.6542594666086208
O	-4.868807758	-11.826809673017243	-0.6976836283913793
O	-5.025450508	-8.139835443017242	0.06945850860862074
O	-6.505512577999999	-6.495480203017241	-3.059782293391379
O	-4.058225348	-6.751599903017241	-5.99987138339138
O	-5.622796898	-7.368322483017241	-9.42355302339138
O	-4.849667428	-4.350641573017241	-11.633232923391379
O	-3.2546234779999996	-2.2056084430172413	-8.81782626339138
O	-6.154435188	0.2181976789827586	-9.453163983391379
O	-6.376859538	0.9427114869827586	-5.6809466933913795
O	-9.423883648	0.24483870998275864	-3.495342873391379
O	-8.063274588	1.0235217169827586	-0.06918765169137926
O	-5.013859028	1.8213611269827588	2.053224086608621
O	-3.8946101179999997	4.968504586982759	3.844094726608621
O	-1.7805387149999996	4.139971256982759	6.885973356608621
O	0.4363585720000004	7.117397866982759	7.527466586608621
O	2.3807598020000005	5.847319196982759	10.538956876608621
O	7.780146162000001	8.016753296982758	-5.516166503391379
O	6.592541312000001	2.8273602569827587	12.51196307660862
O	7.845708762000001	1.7615773869827585	4.350625816608621
O	6.1764477620000005	2.809347686982759	1.0848160266086209
O	3.851735712000001	-0.25405191401724136	1.292031076608621
O	6.6166666020000005	-2.7206010930172413	0.8660170226086207
O	8.273860322	-3.081143573017241	-2.5770814433913793
O	11.816337642	-4.178754943017242	-1.641285253391379
O	14.577143342000001	-6.067359873017241	-5.30527337339138
O	15.434896542	-9.418194523017242	0.22570911160862075
O	10.622481442	-0.03600784101724136	0.6884453316086208
O	9.422474242	1.6009679969827586	-2.4908823633913793
O	12.439014842	0.7348528369827585	-4.62429557339138
O	12.224510842	5.484029306982759	-1.8537160633913792
O	12.195868542000001	5.880520846982758	-5.65620291339138
