85

O	-5.105565499709804	3.032414883862744	1.6644885519568628
O	-4.445227079709804	2.012288092862744	0.6671381719568629
O	-3.6640771347098036	2.896945203862744	-0.13344956704313715
O	-3.7929679977098036	4.122902643862744	0.15295555595686283
O	-5.064358919709804	4.153810023862744	0.8247986919568627
O	-5.850907879709803	2.663930573862744	2.6489875719568627
O	-5.724927539709803	1.8181451588627442	0.2502046219568629
O	-2.5022133617098037	0.794480135862744	1.439194411956863
O	-6.557098619709803	2.893298423862744	-0.3135455150431372
O	-6.699475289709804	2.242470833862744	-1.6414326970431372
O	-3.3355247637098038	-0.36739504613725593	0.8755211619568629
O	-3.980048249709804	-0.02001777613725597	-0.47472499404313717
O	-3.0033484547098035	0.003082563862744081	-1.572302831043137
O	-1.7807156297098037	-0.08384029613725597	-0.46181023804313714
O	-2.2229202217098036	1.316487606862744	-0.006271180043137203
O	-7.3207995997098045	0.9528485958627441	-1.741417357043137
O	-7.252284049709804	0.474689538862744	-3.146942558043137
O	-5.824941929709803	0.11473957386274414	-3.437322908043137
O	-5.166625789709803	1.447010054862744	-3.479797608043137
O	-5.346250269709804	2.099656973862744	-2.164880258043137
O	-3.2319477557098035	5.232073293862745	-0.5685438700431371
O	-5.065919159709804	-0.8153113761372561	-0.48536797004313714
O	-3.8926865697098036	1.161231875962744	1.698206071956863
O	-5.8118608097098035	5.341800933862745	1.000097511956863
O	-5.6563219397098035	-0.9984683461372559	0.8420754619568628
O	-5.213522929709804	-1.2017854061372562	2.0964065019568627
O	-5.767892229709804	-0.6343610561372559	3.2883598819568634
O	-6.868748079709803	-0.6745383361372559	1.015192881956863
O	-7.383389679709804	0.22272213186274403	1.920238661956863
O	-7.0036000897098045	-0.062683676137256	3.2306420919568626
O	-8.069200899709804	0.03426695386274403	4.077425581956862
O	-9.353871069709804	0.360937900862744	3.5797330119568627
O	-9.587282599709804	0.3764680768627441	2.172042901956863
O	-8.526345549709804	0.7048235328627441	1.315607381956863
O	1.5739239302901962	0.904340839862744	9.952489421956862
O	3.533010700290196	2.5887104938627443	7.173429861956862
O	7.062531640290196	3.227781493862744	5.962707381956863
O	8.829666550290195	0.6043301368627441	3.8870221419568627
O	7.832486450290196	-2.9357397661372557	0.5923449419568628
O	5.433736330290197	-0.18485931613725604	1.679183621956863
O	6.128831370290197	3.187119553862744	0.056426832956862794
O	2.621595850290196	4.357852533862744	-1.1309713960431371
O	2.212318800290196	7.613269963862744	-3.044244638043137
O	-1.4554222997098036	7.221464023862744	-3.0523833480431373
O	-1.6312504697098036	4.223025193862744	-5.432240868043137
O	-0.1144215997098037	2.914459163862744	-8.575530698043137
O	0.15372176029019613	-0.8539844161372561	-8.161866698043138
O	3.419189740290196	-2.692224196137256	-7.305598408043138
O	1.970077110290196	-5.674296206137256	-5.457295718043137
O	3.7743436302901965	-8.248586146137256	-3.2915850080431373
O	-7.994636539709804	-4.684137246137256	-6.235526528043137
O	-10.960456339709804	-4.353682186137256	-3.921847118043137
O	-8.929981529709803	-6.5784774461372555	-0.9395410258431371
O	-6.073963259709804	-8.307366216137256	-2.533951428043137
O	-6.109965669709803	-10.516457366137256	-5.593064518043137
O	-3.1054682237098037	-11.380372166137256	-7.660390738043137
O	1.2069369302901962	-8.161016256137255	-9.087981568043137
O	-5.888381409709804	-10.989946066137255	0.5300261519568629
O	-8.450076469709805	-9.928920666137255	3.0881031819568627
O	-7.405587019709804	-7.466349066137255	5.808621601956863
O	-4.584159729709803	-6.193606076137256	3.560220851956863
O	-1.5451919597098036	-7.094987506137256	5.474921621956862
O	-1.0594156797098038	-5.480277366137256	8.861484511956862
O	0.22818922029019628	-7.799023596137255	11.667002021956863
O	4.008045930290196	-3.9076971861372556	9.964591621956863
O	7.008267600290196	-5.980385276137255	8.814309791956862
O	6.082348620290196	-5.196365076137256	5.151736211956862
O	5.119595370290195	-7.801541896137255	2.563389771956863
O	4.074669970290197	-5.6683909061372555	-0.35671209904313717
O	3.3636856302901967	-2.2271499261372556	-1.633716722043137
O	2.3516091202901968	2.377426453862744	-5.671227468043138
O	1.3805147302901966	7.433696083862745	-8.249664728043138
O	-4.959369649709804	5.114888963862744	-11.478638778043138
O	-3.2578172307098034	1.735889407862744	-11.922756978043138
O	-3.0643047507098036	10.595573473862745	-11.445814778043138
O	-2.8176547045098035	10.904334023862745	-7.648453138043138
O	-0.4480686197098036	10.137406703862744	0.3286943019568628
O	2.282806670290196	8.295442473862744	2.2763481419568627
O	-0.02045638970980379	5.329592083862744	2.487886821956863
O	-2.4599889317098036	7.149356263862744	4.773298311956863
O	-1.6677663797098037	7.646911353862745	8.355827471956863
O	-3.6519369617098034	10.799270563862745	9.183886221956863
O	-0.9044491597098037	11.500438233862745	5.089947631956862
O	2.181437660290196	10.261031923862744	6.863747451956862
O	4.726649660290196	14.182228133862745	5.683356491956863
