91

O	-2.2461967176557374	-5.257008830983606	-3.0411702992967213
O	-2.8385850976557374	-3.9320560409836065	-3.3000738692967215
O	-1.2314573266557374	-5.556656550983607	-2.156546964296721
O	-1.0557600726557372	-4.671828880983607	-1.0814870982967215
O	-1.5725928256557373	-3.6051024709836064	-1.3112114292967214
O	-2.3675254676557373	-3.0176315709836063	-2.3123359542967217
O	-1.8206355876557372	-1.8077929209836063	-2.8745334892967214
O	-0.9464972586557372	-1.2112959309836062	-2.1274525072967214
O	-0.5523337216557372	0.06221547531639368	-2.6144948092967213
O	-0.8714913296557373	0.7768821520163937	-3.7176992592967215
O	-2.1764910876557373	0.30800572201639365	-3.8670429492967213
O	-2.3288923276557374	-1.0456134209836063	-3.9495692892967216
O	-0.0843865426557373	-5.487917820983607	-0.4701856292967215
O	-3.7835854576557373	-2.5866007709836065	-1.8658517261967213
O	0.8767648323442628	-0.1657922559836063	-2.9963419692967213
O	0.7892348823442626	-0.9161853549836063	-4.182354449296721
O	1.0247252623442629	-2.3263997309836064	-3.7747652592967214
O	0.014228816344262762	-0.6143660589836063	-5.209323079296722
O	1.090464072344263	-2.9212765409836066	-2.5707555612967212
O	1.4241949723442624	-4.193218910983607	-2.8374819302967214
O	2.6953910423442626	-3.8981222309836063	-3.366063739296721
O	2.8379286223442626	-3.0620829909836065	-4.510388359296721
O	1.5428630523442628	-2.7319123009836064	-4.945103349296721
O	3.778718892344263	-4.8606884609836065	-3.389038849296721
O	3.3403328923442626	-6.052441890983607	-3.5878950692967218
O	-1.6816154176557374	-5.284564340983606	-4.369985689296721
O	-3.6211033876557375	-1.1812178409836063	-4.189254289296722
O	-1.1731135366557373	-4.2415400209836065	-5.042350359296721
O	-2.6222566776557374	-5.9154671509836065	-5.084691679296721
O	-0.5661141837557373	-6.1359160609836065	-4.322659109296721
O	6.389711232344262	10.397530369016394	3.0889047707032784
O	6.870720212344263	8.609139589016394	-0.18296317929672146
O	9.411504762344263	2.3455604790163935	-2.5990524802967214
O	8.015411652344264	2.5777233690163937	-6.105154069296722
O	4.816205262344263	4.463718339016394	-5.266261749296722
O	4.564543192344263	3.8636217390163936	-1.5361423452967213
O	4.832176392344262	5.310179959016393	1.8601310907032786
O	1.9111975723442627	7.149877119016393	3.2837142307032785
O	-2.7652028476557375	10.910813569016394	2.822162730703279
O	-3.0069839376557375	7.151855059016394	3.2296074607032788
O	-0.8229392466557373	4.462434519016393	2.1263609907032786
O	0.6387303923442628	2.2728566990163936	4.829849990703279
O	-0.006662347655737255	-1.2883295709836062	3.6918573907032783
O	0.8883077823442628	-4.348704130983607	5.6896270707032786
O	-0.21342322265573727	-6.596318190983607	2.8712448707032783
O	-3.9892756176557373	-5.9030422409836065	3.1793753207032784
O	-6.682800127655737	-5.3870352209836065	5.8243169307032785
O	-9.088411257655736	-2.6738141209836064	4.653764970703278
O	-9.051629397655736	0.9984610090163936	5.312753480703279
O	-10.313725097655736	2.4354571390163935	2.0428162807032786
O	-10.299367217655737	5.997395189016394	0.8063971707032787
O	-10.174907907655736	-6.942548600983606	-7.612312539296721
O	-9.433565177655737	-3.0053367709836065	-8.717351159296722
O	-11.515690937655737	-0.6353606459836063	-6.537760629296722
O	-15.230166937655737	-0.6792137749836064	-5.655600819296721
O	-14.120188637655737	2.9477325190163937	6.053499590703279
O	-14.670066737655736	1.7153397190163937	2.5302130607032787
O	-9.112957287655737	0.8174057450163936	-12.14118705929672
O	-5.384888177655737	1.2810907590163938	-11.99338205929672
O	-5.682902507655737	1.8896865390163937	-8.221069499296721
O	-4.628549827655737	5.487732789016394	-7.6840987092967215
O	-1.0736118046557372	6.307728109016393	-8.787874599296721
O	1.7554167823442626	11.791626669016393	-8.281507719296721
O	1.8885686223442626	9.300914759016393	-5.333796709296721
O	0.18748758034426272	12.075691869016394	-3.2878733092967214
O	-1.9403708376557374	9.473286149016394	-1.4221493762967214
O	-6.426730507655737	5.992229749016394	0.35252300070327847
O	-4.914970117655737	2.8100123290163936	1.7483194707032785
O	-4.478695477655737	1.5461325490163937	5.2255255807032785
O	-4.5588592876557374	-2.1910418309836066	5.412780440703279
O	-2.6570974176557374	-3.2062896909836063	8.523151440703279
O	-2.9038416976557375	-6.9883374509836065	8.22013134070328
O	-5.460396667655737	-9.266294350983607	9.906386140703278
O	10.618520862344264	3.1479471990163934	5.739997790703279
O	-0.9614270476557373	-11.691817230983606	6.071565740703279
O	2.1045521123442628	-11.028704030983606	8.200374140703278
O	6.181336832344263	-8.767057020983607	5.001114920703278
O	4.382033252344263	-6.277239950983606	2.7683377907032787
O	4.965299962344263	-2.4700638809836066	2.8151565407032786
O	2.4294188223442625	-2.1328398809836067	-0.05223151929672154
O	5.135751932344262	-3.5480427809836064	-1.8722100481967214
O	7.887868632344262	-2.3788850109836064	-3.8895201392967214
O	10.331049562344264	-5.272543820983606	-4.495701689296721
O	14.234655062344263	-4.433701260983606	-7.340623439296722
O	11.636703162344263	-10.070129330983606	-9.00801226929672
O	2.4326775223442625	-16.348030730983606	-4.623663679296722
O	8.584042612344264	-5.422911060983607	0.23102411070327866
O	9.465036162344264	-1.8571654109836062	0.6702101507032787
O	13.000952962344263	-2.0684843709836063	-0.6847436092967214
O	11.951552962344264	-2.8808542209836063	4.6654547807032785
O	14.058871462344264	0.2289549920163937	3.8835936207032784
