29

O	27.152013340273925	10.81520866636054	22.08636423869616
O	22.134600474000997	10.755493718577883	20.607676808167174
O	21.310444253940307	13.637406616571269	23.30070114830569
O	22.854438180691815	11.87498154346505	20.702993902645904
O	21.2565984893782	9.592188633300063	22.676748931024346
O	16.601061548954206	12.167762563722643	24.584584953433332
O	24.170386735177996	11.843857665369654	20.72919750225286
O	21.671383590761558	9.530704259614197	24.97457589543938
O	24.946710961106984	10.73453754335926	20.72478637182533
O	22.262071125050372	11.493694170615704	23.760365177514302
O	26.282522939264545	10.846027177480556	21.31068042611535
O	19.376812003779737	10.926644747095843	21.058851709217443
O	21.131383530415725	10.53195911392657	21.624839524412433
O	17.931427282103936	9.202439209538417	21.498857034940478
O	21.804099959701293	10.166578790355825	23.725055453598923
O	18.449492116483132	10.816679277739677	22.90610244237038
O	22.63395543856435	12.06422990344118	25.01051815095201
O	21.652011976269453	12.44278484734407	22.950588100143232
O	20.559944138495663	11.872527576305462	22.196221221512445
O	19.759612159162213	12.2935121082857	21.20132504642387
O	20.240388440683795	10.06482378220234	20.465112926123943
O	18.89091038521436	9.96378942903507	22.118294039812028
O	16.591646586883318	9.46173096178771	21.510344699825286
O	15.844582510362926	8.1756919808699	21.378162979623916
O	16.184085354395297	10.431232811036988	22.38594787690246
O	17.09684843679299	11.037098001327706	23.25276533707839
O	14.928554137865994	11.62107201618118	24.981028000544256
O	15.087174699771154	10.175529392914683	23.078557116419375
O	23.58297146194156	9.706001995295072	20.94318234415035
