28

O	25.847227103787343	12.369141039288289	23.78285156033
O	26.660706706338285	13.102183175798551	22.989896351628758
O	27.377177227136873	12.28766278804002	22.1817504384544
O	26.80329486960375	11.083256108322137	22.009046815001746
O	22.958873395198502	10.968317611205938	21.13522946331388
O	26.09304605731978	10.324949260754888	22.833410661207814
O	25.446469002629836	11.114056155101018	23.610077323487864
O	27.051685364283838	11.074769434969381	20.588104611090454
O	26.882600097647217	12.009841825341972	19.697044893947215
O	26.979172734220626	9.716120102014317	20.31739425073374
O	25.861330585100795	12.65882910836649	25.198265299798898
O	24.91813992337215	13.384030009743157	25.66581326330961
O	25.739450083232068	9.567824527188655	19.536367945552925
O	25.948036036666657	10.446711510478222	18.49503455343733
O	24.71079352735436	10.843490363741388	18.084758091010606
O	24.12058256714706	11.557895430545283	19.13292221974169
O	24.17465500484007	10.952877576062022	20.349831760086666
O	24.710152641554323	9.71885130262005	20.533359208672767
O	22.026166004631687	10.35106428721149	20.053738695507217
O	22.905604115982044	11.45827695819854	24.104604454841574
O	22.754210401940064	10.20531226038144	23.437464426423784
O	22.720214305809336	9.425567196100205	24.64570624136944
O	22.913982541544463	12.246386558487066	21.67817738093325
O	22.81075583041533	9.985110775175244	22.22548625614799
O	22.61288511353005	12.541011142446145	23.184009623988864
O	22.913008337319386	11.981779886774259	18.628055440532307
O	23.731000559197515	13.31133942714871	21.34961517715723
O	21.674507687775744	12.787336026700842	21.305429564695576
