84

O	4.315814046972131	5.465071550163934	-1.4107275481704917
O	1.6215097669721308	0.9307436501639336	3.995426761829508
O	2.786168726972131	1.5440083866639336	4.737392361829508
O	2.1813202269721312	2.1872318571639333	5.821015481829509
O	2.151143526972131	1.2442107361639336	6.9726294418295085
O	2.041972006972131	-0.07274625983606642	6.366425851829509
O	1.2341299969721309	0.01577446016393358	5.112501831829508
O	2.428713826972131	0.14547586016393366	3.079537461829508
O	3.621557246972131	0.005901130163933566	3.4641526418295085
O	3.9649285269721313	0.9343522811639335	4.4858983218295085
O	0.7300409939721308	1.9027728981639336	3.3662632918295086
O	-0.06930472802786913	2.8169029601639335	3.983250301829508
O	-0.7176604930278692	3.8154647101639334	3.2576251218295083
O	-0.48521475902786915	3.9802523601639335	1.8928296418295085
O	0.3511685119721309	3.1240293701639335	1.2262062518295083
O	0.9742032569721308	2.1560287601639336	2.0069201018295084
O	0.9690765869721307	3.6271043201639337	0.0001407478295082365
O	4.774344046972131	-0.7428362898360665	3.1322273918295083
O	0.3983073599721309	3.9406001501639336	-1.2278823161704917
O	1.2242896369721308	4.321070270163934	-2.3038096981704914
O	2.547952376972131	3.820991900163934	-2.133558858170492
O	2.890087756972131	4.564189420163934	-0.9671190911704918
O	2.2917082869721312	4.050324030163933	0.12212130282950823
O	4.3211064769721315	5.351762420163934	-7.966065738170491
O	2.735148586972131	8.233350330163933	-6.078930368170492
O	-0.6236996220278691	6.585955390163933	-5.382391018170492
O	0.3274565129721309	2.9618638601639335	-5.619682278170492
O	-0.18387743722786914	0.008691500163933608	-7.968623918170492
O	-3.2823293930278687	-2.150210679836066	-7.620019138170492
O	-9.218216033027868	-2.7962988798360664	-6.590035648170492
O	-6.463369473027869	-3.6901993498360666	-4.160700598170492
O	-3.136875223027869	-2.0945435198360665	-3.5047240581704915
O	-0.16795867712786913	-4.424788919836066	-4.0113027481704915
O	1.974646516972131	-3.8816788498360664	-0.8732355341704917
O	5.149347786972131	-5.866262069836067	-0.24931943977049176
O	5.8005161269721315	-3.8260649198360666	2.8416168718295083
O	2.870449046972131	-5.081274279836066	4.976583201829508
O	1.1451865069721308	-8.357866159836066	5.7677520418295085
O	-2.603195133027869	-7.759898829836066	6.058959791829508
O	-5.315823853027869	-8.136452599836066	3.489515931829508
O	-7.593411323027869	-5.215756049836067	4.433594651829508
O	-10.51156177302787	-3.7402972598360664	2.5107188518295085
O	-3.209512623027869	-0.42140352983606655	12.518049021829508
O	-1.6190558830278692	3.0029496501639334	13.152296821829509
O	-4.308141843027869	4.6494421301639335	10.485732421829509
O	-7.109537603027869	2.1838869281639335	9.824469521829508
O	-9.328431763027869	0.21806903016393364	12.193003021829508
O	-9.918362183027869	-10.153595009836065	5.644306841829509
O	-9.753101693027869	-7.076831879836066	7.838944591829508
O	-7.545489203027869	8.359779470163934	8.883474021829509
O	-5.345075083027869	9.413121260163933	5.949571101829508
O	-5.353062893027869	5.8239704901639335	4.642531581829508
O	-7.465056873027869	5.998776480163934	1.4702481818295081
O	-5.984581153027869	8.227522640163933	-1.2535251541704917
O	-8.53999576302787	10.331467950163933	-3.2353459481704916
O	-8.366480093027869	9.204618240163933	-6.870180618170491
O	-6.046332493027869	6.185844230163934	-6.320778078170491
O	-8.987558793027869	4.017229800163934	-7.511656468170492
O	-8.11078968302787	1.3272982891639336	-4.897839038170492
O	-10.38804077302787	0.18306540016393358	-2.0633947081704918
O	-8.11707223302787	-2.110655109836067	-0.10058366617049175
O	-4.547507393027869	-3.296673809836066	0.47102221482950823
O	-2.872708723027869	-6.658505299836067	-0.13112317117049174
O	-0.010229957027869135	-7.164827659836066	2.295780231829508
O	2.395537936972131	-9.595142609836067	0.6844798898295082
O	5.053351286972131	-9.711985109836066	3.4110191718295084
O	5.382926436972131	-12.270116709836067	6.214755281829508
O	5.683623756972131	-2.002576819836066	-11.883327778170491
O	9.240738856972131	-10.349591909836066	8.198528101829508
O	9.578057936972131	-7.523120459836067	5.708045911829508
O	11.755599226972132	-3.9204083898360667	-0.8608675121704917
O	8.419214396972132	-2.0969011098360664	-0.5025656611704917
O	5.873709036972131	-1.4003461198360665	-3.2676806681704917
O	3.765137766972131	0.4539728901639335	-0.8278208931704918
O	6.582750356972131	3.0751673301639335	-0.4679157141704917
O	6.853154806972131	5.646802740163934	-3.4342266881704915
O	10.491762426972132	6.732896570163934	-2.9967903181704916
O	11.300347426972131	16.056272290163932	-2.181875408170492
O	11.932538426972132	10.751919010163935	-5.415288568170491
O	14.107666326972131	10.892427400163934	0.7170953818295082
O	10.080907926972131	1.7882322191639335	-3.1254879281704917
O	8.017668986972131	1.9211348041639336	-6.267804958170491
O	10.26155802697213	4.315516220163934	-8.185737338170492
O	10.926333726972132	-1.1287330598360665	-8.555247888170491
