104

O	1.0291637015133333	-5.439240573399999	1.1969907047566666
O	-0.8373866594866669	-6.626244423399999	0.7547326317566666
O	-0.9698584194866667	-7.7636961234	-1.1592106722433333
O	1.8679595205133332	-4.4401295934	0.9365886947566666
O	0.9371847675133332	-3.5618363634000003	0.34676632975666666
O	0.7089796975133331	-4.0293885134	-0.8894683462433334
O	0.5733926745133332	-5.3614909034	-0.9423636812433334
O	-0.06566997048666678	-5.6959290234	0.3133239167566666
O	0.5242975525133332	-2.7813890334	1.5019683647566666
O	4.8558177105133336	-4.4814964634	0.05181056575666659
O	1.5962688005133332	-1.9299883843999999	1.5916009447566666
O	1.6713276905133334	-6.4854606234	1.6389766647566666
O	0.07584547051333321	-3.2938906033999995	2.4514358347566665
O	2.8330067305133335	-1.4470171334	1.7332650747566667
O	2.8838536705133335	-1.3497080983999998	3.1541254847566664
O	3.218198860513333	-0.8249718423999999	0.4829418167566666
O	0.7089739605133332	-7.204057263399999	2.351453374756667
O	3.445861750513333	0.45907382660000007	0.2359489237566666
O	2.1877298105133334	-2.5029172533999997	3.8860696447566663
O	2.9792942905133333	-1.5488479903999999	-0.7576815832433333
O	3.2324923905133334	-0.8421784093999999	-1.9686815152433335
O	3.441568060513333	-1.5927313524	-3.1832019452433333
O	1.2849573805133332	-2.5853588933999996	4.943858814756666
O	0.5822752635133333	-3.8106648234	5.270155424756666
O	0.9210006445133332	-5.0260655834	4.751007764756666
O	2.183970550513333	-4.9204708734	4.283792524756667
O	2.8032827205133333	-3.7499616633999997	3.8233953347566665
O	2.4381902305133334	-8.1880406134	-1.6732012052433334
O	1.1063372695133333	-8.8468602134	-1.4846427952433334
O	0.1449783185133332	-7.670242903399999	-1.6497555252433334
O	0.8118492625133332	-6.446443653399999	-1.8164006652433333
O	2.149504660513333	-7.0355916734	-2.1383954552433333
O	-0.6264194644866669	-7.2278679234	1.9793416047566668
O	3.377200070513333	-7.725575903399999	1.2426759147566666
O	3.1453510905133335	-6.5265296334	2.0594542547566665
O	3.9935304105133334	-4.4886271434	-1.1198247102433334
O	4.590381170513333	-5.3004023834	-2.101379795243333
O	4.243053430513333	-5.2501121434	-3.4518455052433334
O	3.428717520513333	-4.1325683234	-3.7441171552433334
O	3.8209779505133334	-2.9746136834	-3.0576890252433335
O	3.8301497605133332	-3.2673091534000003	-1.6716796952433335
O	5.346434300513334	-5.7363593033999996	0.22791811475666662
O	6.010906430513334	-3.8528949434	-0.41526206324333337
O	4.647980660513333	-3.9775584133999997	1.2327743547566665
O	-8.248603539486668	0.27729270660000016	4.5232514147566665
O	-7.106643409486667	-2.4910189534	6.763446324756666
O	-4.598341559486666	-0.32281382439999984	8.621383834756665
O	-3.861465519486667	2.4480948166000003	6.169995194756666
O	-4.485129099486667	6.1501071066	5.724303044756667
O	-2.0685112794866667	8.7030603166	7.148199404756667
O	2.761280880513333	9.1969058266	8.209948074756666
O	1.214728661513333	6.5031900866	6.026837854756666
O	0.3492443567133332	7.6538114966	2.5443474647566666
O	1.7895328905133332	4.7882923866	0.3064562357566666
O	1.5200050805133332	5.283690426600001	-3.484582545243333
O	2.9789159105133334	1.8626492066000002	-3.8133973952433333
O	6.566245340513333	2.5896815666000004	-2.6139218352433335
O	9.138224690513333	5.3942337266000004	-2.9415623052433335
O	10.872772250513332	5.857077336600001	0.42237059775666663
O	10.162326630513332	8.249832806599999	3.2202822547566665
O	10.886583050513332	6.075443866600001	6.286980124756667
O	13.786175750513332	-3.3119289334	2.7047634347566665
O	12.419478150513333	-6.8973344033999995	2.9219450047566666
O	10.852739350513332	-6.0238341734	6.680262364756667
O	12.370133150513333	-2.8179219933999997	7.818433964756666
O	5.816752550513334	-7.0937590533999995	10.948689624756666
O	6.342679800513333	-3.3635043334	9.903076224756667
O	0.7170540245133332	-2.0879420734	12.922297424756666
O	-2.7400097694866665	2.1947615966000003	13.231650024756666
O	1.0453954105133332	6.0715506966	12.209713524756665
O	6.287516850513334	6.3352178366	9.338205994756667
O	5.575784740513333	5.9394814866	5.636295454756667
O	5.5381176605133335	8.4354125366	2.7555233347566666
O	6.430273240513333	6.4735304866000005	-0.4397899462433334
O	5.9049763505133335	6.5438225766	-6.212026275243334
O	7.025678830513334	6.0051858066	-14.092536975243334
O	8.036153290513333	3.4909541866000007	-11.387326175243334
O	4.857987620513334	2.3903421666	-9.639073735243334
O	1.7663319105133333	4.348192416600001	-10.655111075243333
O	-0.8676058494866669	-0.35913797739999986	-10.232898875243334
O	-2.6647408694866668	2.0134879066	-7.897935685243333
O	-1.5247352294866667	1.3238863966	-4.392459515243333
O	-2.8466091194866667	3.0530556766000005	-1.2867403152433334
O	-0.5451410794866668	0.7666682766000001	0.7034146097566666
O	-2.4583487194866667	-2.3492979234	-0.2114384496433334
O	-5.766599759486667	-3.0517209233999996	1.4122425047566667
O	-7.483562599486667	-5.129899293399999	-1.2347626052433334
O	-8.502604119486667	-4.9089977134	-4.914573535243333
O	-6.043075769486666	-7.5759427634	-6.068367475243333
O	-11.137205249486668	-13.1282546734	2.0508958647566664
O	-11.735543249486668	-7.3762483034	0.030418711756666605
O	-10.888255549486667	-8.7986240234	-3.3757476652433334
O	-7.973619419486666	-11.2682621734	-3.4447757552433336
O	-5.766901539486667	-13.0013074734	-5.967250375243333
O	-2.4471677794866666	-11.6753936734	-7.122401255243334
O	0.5496495385133332	-13.1978648734	-8.930020785243334
O	1.996041570513333	-9.678191893400001	-9.475822085243333
O	-3.467653599486667	-3.7683471733999996	-7.482490995243333
O	-6.075788989486667	-1.0757370263	-6.983038595243334
O	-5.677921059486667	-0.9549052704999998	-3.2135544952433333
O	-7.295087429486666	1.0861945066000003	-0.6147066142433334
O	-10.762991049486667	-0.4244049943999999	-0.8182015022433334
O	-10.991600349486667	0.6169105066	-4.447547455243333
O	-9.527316979486667	4.0105771466	-3.8415675952433332
