16

O	27.037982247304715	12.189764615705126	20.167167408733583
O	27.280031797472546	13.491371428608893	19.680425039075146
O	25.763824195626686	11.931549262866945	20.695100088449557
O	27.58528589976751	11.121700349926341	19.465186835704976
O	26.50573573494477	14.513079191929009	20.328509163819998
O	26.850889276970182	13.917111090993629	18.272802634313855
O	24.78809342951292	11.551002618937897	19.7287438259254
O	26.70149292302979	10.307736302200173	18.756046534797996
O	28.951309676018738	11.064247446607421	19.51537923597277
O	25.05703589614728	14.604848583413421	20.46463582646627
O	25.357783271493467	13.922238555171981	18.277080931541263
O	25.389617318267135	10.806546966059646	18.758232124183202
O	23.437637803977136	11.854932790343561	20.21388968872948
O	24.48116187174384	14.831468864359874	19.14758166240527
O	23.352325451602695	11.322176988884863	21.649282651690264
O	24.18301236325429	12.281136668735869	22.33093030982292
