47

O	25.364512362888846	17.883343133171284	24.096929149591446
O	24.950563845907954	17.692576486351562	25.59900654943554
O	25.31563793128838	18.219133172373628	27.009681239642582
O	26.103533564836283	19.21554296394001	26.345124812930372
O	26.730679317480387	17.794260956329616	27.659830194207416
O	24.46965375814747	17.3900078921344	27.77313699471207
O	23.664801155897617	16.278151849727237	27.1668273614917
O	22.53628067816735	15.812434870749357	27.751364629044055
O	22.149927716630565	14.882907261044611	26.844311242571543
O	20.746066151334123	14.635997251419449	26.2807915861677
O	20.85271836799293	15.247908302220308	24.875393977214568
O	24.297799089456998	15.040146609640779	26.926181468038013
O	23.255655661070435	14.22319959287007	26.451846421939386
O	23.533138807033126	13.511362537161734	25.339742600282836
O	24.75401788151546	13.516749660837828	24.74955863974303
O	25.0207212163476	12.523238288004865	23.777172168704865
O	24.068575265528853	11.514102846149754	23.397243303743814
O	23.65970898035096	10.703264899260907	22.33116115018976
O	24.652056945642435	10.498607258463027	21.246286825690134
O	26.02594134254275	11.112791402889751	21.097386781823037
O	27.357837533771846	10.814450591444151	21.521281660139365
O	28.409869971533162	11.772676991435482	21.72477836013366
O	28.307724313198936	12.936320232135962	21.038930655172756
O	27.45497047875517	12.823210253257367	19.977222359649797
O	26.42330756863182	11.817668139784903	19.929025777198532
O	22.772862384420602	9.645439139269925	23.07189137582793
O	22.252762864279557	8.535197592960905	22.63308869529902
O	21.534930598482	10.484844375168164	23.461050603880118
O	21.409301949031875	11.634095325520372	24.45351797976022
O	19.96497681897697	11.828773375192196	24.17359734824104
O	20.059630826714873	12.870064123904402	23.066376247893768
O	21.37040703849633	12.729544042759095	22.317150120599045
O	22.40701660629803	13.592194926397152	22.379492466403022
O	23.480318047571462	14.331439863467281	21.92424430775542
O	23.85747853069141	15.449771826231697	22.61429317499137
O	25.124037720958945	15.95435434252833	22.598426260349097
O	26.219608790914496	15.429319454038406	22.041382383410383
O	25.664296112058928	14.850513840037616	20.94807087971897
O	24.491933050570967	14.067174836717783	21.01965781407574
O	21.30996286918341	11.270167976647308	22.13898105884129
O	21.959186410343438	11.054567116876502	21.059450389125892
O	25.98556619696365	12.726910424003023	23.149829004468494
O	25.855601391972076	14.245643271126308	25.201508332357793
O	25.36885088312668	15.197017982840674	26.023640640054364
O	26.040011479789097	16.359817514756134	25.640367573392766
O	27.249088199055585	16.74821753087428	25.617760119892
O	23.619469087397047	17.064536291160906	25.05287680482814
