42

O	24.802391516038934	14.05824836469895	26.03990080092107
O	24.346114081544968	13.04797764560766	25.19106275077686
O	24.786553420648584	12.97747606986772	23.94397051534839
O	25.91582141170534	13.574258291880252	23.51723564137605
O	26.57449944380577	14.062140809822623	24.48457316257525
O	26.108198765748018	14.479579198990503	25.741429270266508
O	24.206725054877584	12.749268346434121	22.732367073621916
O	24.295400000306138	11.439691805676606	22.7064431204446
O	23.36900619956115	13.612981836030743	22.55958175011348
O	23.75290120000927	10.470771738658389	21.9427933291868
O	24.501708447484962	10.579023820465888	20.749139939971748
O	23.204917976633915	9.560005612547368	22.957310914509666
O	22.34918260725376	8.585456293684885	22.749320025249084
O	25.35063888361786	11.854422429945561	20.581775753361104
O	22.739113995761613	10.3366526576624	24.091625028595633
O	22.19081451676437	10.017549900892398	25.30002593845629
O	21.41123382161112	11.113498677075984	25.63613184972545
O	21.44622883217449	12.032360552443535	24.37846782129705
O	21.230493795575363	11.143407169055564	23.318159034378624
O	20.71658501143652	13.038480368290104	24.33175886925445
O	21.17152485290869	11.679833680677643	22.108316762092205
O	21.511162459544163	12.14188342892292	26.651134782058808
O	21.31528251375222	11.17319575297067	20.815429942150402
O	21.764415277266227	12.40678545522251	20.03816434697233
O	21.198118394917977	13.67962619207148	20.478556137544878
O	20.485943888234694	13.916811321081607	21.747322550774335
O	20.059212634768112	12.618847105671698	22.321743389061307
O	24.927916049947935	13.123340455018242	20.144039996364032
O	25.529329704317803	14.375988816266444	20.497850730548315
O	26.835723498524267	14.408376261193183	20.95389604566724
O	27.409426014636356	13.255952681392545	20.54299998054016
O	26.696717064633372	12.025166603649598	20.28259264037991
O	27.886725260160553	13.58010678170162	24.19846143074475
O	27.748562771226442	12.299650379536825	24.83637349030097
O	27.170916969289273	11.62866181572074	23.549812335176856
O	28.618221664819053	11.763986763265422	22.853329720241366
O	23.6131193298904	14.86184008683377	26.13030305809385
O	22.441718161638054	15.277518782700504	25.338911986850764
O	21.834957303435846	16.196063936054134	26.041130198128272
O	22.94337347542511	16.848629596947962	26.820171472248177
O	23.660454428540614	15.572829566112063	27.285885235479757
O	23.257691895450844	14.991727814504648	28.31166491705089
