28

O	27.467438509063065	10.540587481544456	16.340541159248588
O	25.46844060395522	11.700466393014981	17.87446234575318
O	24.43518695139558	11.095615781966208	18.61911303356154
O	24.96402850367014	10.625418976256366	19.81999924087806
O	26.01819101732016	9.823646405621798	19.616460090684836
O	26.92797206868948	10.101763083912543	18.68298231672855
O	26.592273875092335	10.997621819603008	17.72188143096122
O	23.381242391158786	11.913781729874799	19.178678480675575
O	23.88879665791386	12.96988771979923	20.075260460841523
O	23.83360866641588	12.278747540397369	21.242341553781117
O	24.370597341709612	11.077221000383265	21.121370847889505
O	24.26581001253291	14.010022635970174	19.19887527255664
O	22.49152028090476	13.603201823399994	20.456729996705107
O	25.12784075177903	11.258955900858396	22.228956214791193
O	26.01649660581743	12.364310160661693	22.129465540968916
O	26.571007343935502	12.345561741435327	20.831729402769945
O	27.503092561563122	13.13804665055733	20.16308019124686
O	27.24393211763109	14.01476464293907	19.185072980078495
O	27.769188941903458	14.098812456851922	17.952085963128518
O	28.902961736346246	13.375790619355326	17.718594268182088
O	29.376673617010624	12.594302005504437	18.70057484606839
O	28.692840684311925	12.559253031576597	19.88459398890294
O	26.288066821601078	14.543464314463707	22.482563355886292
O	25.307906849967964	13.574216604888907	22.454099761068207
O	24.628583123904047	15.398530869247509	21.8288924553136
O	24.41447200264073	14.46359766429477	22.74282668792194
O	26.531616800916463	16.530713674471247	21.15839369812756
O	25.989415962345134	15.410132059912662	21.48181921114649
