35

O	21.726335023323752	12.524130104208046	18.390494425116103
O	23.800602944157028	12.622945882821247	23.13685187417845
O	21.650603626722603	10.151349347070333	20.181702870074155
O	23.203702989734126	13.571797836272731	21.16333538156439
O	23.73298633829374	12.61130384007212	21.589062612348
O	22.900356404241673	9.934283795085065	23.406437092553524
O	27.117610084846007	9.881832461866985	18.93470196216264
O	24.527799651000233	11.857094487714082	20.86199487548332
O	23.845688846435888	10.653403552844367	25.553086998159294
O	21.47733320665542	12.03098792102237	23.159170171817145
O	25.546303725041522	12.614611205751327	20.1385543225172
O	23.575869583417578	8.488637794128437	25.160285088208795
O	25.773439418769176	11.639169336137783	19.136094610412744
O	26.351790479811804	10.555855221530862	19.84902715407984
O	25.290766476371036	9.976203896247654	20.545134564099715
O	25.32278805547863	10.997263098607352	21.566015505250572
O	25.969040828089327	9.347193322759235	18.245401611661336
O	25.286040900216072	10.234223467639357	17.4688160695526
O	24.117821980271405	10.667473261087087	17.88503640785786
O	23.64509982566793	10.273071752381924	19.078480105705673
O	23.9654380923598	8.984003616487609	19.22890698636652
O	25.076818949967564	8.533653912772369	18.78720773777369
O	22.16257654565101	10.123234791199048	19.00342519953101
O	21.145684152094567	9.681840145815173	18.129079810792213
O	19.914102635640955	9.76678372824491	18.67768523412302
O	20.29007048380986	10.340311596147284	19.84801114668133
O	21.663915589409676	10.448178095511832	21.50655976600781
O	21.96027786008797	10.85951642414208	22.80958234614221
O	23.331769437779585	9.769799699084338	24.55860788540502
O	19.497370608100823	11.573434196523888	20.124122936432354
O	18.7803322626475	11.88685705231043	21.19255010454351
O	18.90443013522742	13.168362173430841	21.61465087787603
O	19.99371124131269	13.97627316954371	21.43185609373364
O	20.840615757241217	13.661663731062003	20.42328749754532
O	20.34514895941932	12.463342130737203	19.6702858265387
