40

O	25.71471830346468	14.800010545828092	21.666838166006947
O	24.307475932309238	14.95562411950851	21.854631531705245
O	24.250209074992814	16.45231840224433	22.164388500742778
O	24.577991822419733	16.617893558004248	20.71527721286086
O	25.866191750107127	15.76564260607978	20.670213586853357
O	23.356428268720343	14.264289897144414	20.991669149190713
O	24.009150619541415	13.097716299685722	21.615915965309085
O	24.389852642681383	13.60132584356382	22.9688706258851
O	23.350147713664192	14.506940700259038	22.829074671053714
O	22.301566603312796	14.927207173200287	23.295223206816246
O	24.20035223722304	13.018383571059493	24.3124680174942
O	23.20152346164369	12.166014214964616	23.654684784920054
O	23.928747876498864	11.230318011073138	22.75917261547165
O	22.262718772414736	12.608672241536222	22.862423480447195
O	26.484170682323985	13.916819299048424	22.244611333678595
O	28.015433492607464	13.860350115546687	22.121055912511036
O	28.400567441378513	15.136914557064351	21.37941616788169
O	24.22657324835154	14.253799230378894	25.151248400184247
O	23.050376982289094	10.42471639033764	21.96808984420651
O	22.472376822077646	9.751108696261252	23.12657293123676
O	22.092718952750857	10.433546647910234	24.385204836689542
O	21.66921876050934	9.503532467019491	25.37665697975614
O	21.6267315742053	10.317983982965368	26.573907517512563
O	23.886635280376048	9.960656745907924	20.85053324128286
O	24.96672069836667	10.781863634384298	20.190292756277646
O	26.326069795404532	10.836529138537305	20.232515403170787
O	27.219334384438067	11.859357571419578	19.90012007654901
O	26.781659151442668	12.978467290521976	19.313761356744603
O	25.46015491911569	12.915455443648206	19.01658319044226
O	24.702045953127275	11.727255333821052	19.200657620385105
O	21.875102525292764	8.608859793516444	23.152660848151285
O	21.311691987392177	11.70927451226324	26.4054894988809
O	21.722661746006203	12.930940269252655	26.838430943968113
O	21.186979888914674	14.062290210689003	26.137709913877234
O	20.338289611622365	13.942770246631468	25.09996954826885
O	20.322838699329715	12.706119263016532	24.62214313309049
O	20.37296637601365	11.647778982031387	25.471099221067593
O	19.249988467921405	12.488839171207522	23.749499713627337
O	19.436671084441265	11.222979798926616	23.041749309585725
O	18.15696922861221	11.87854038336969	24.681052493966433
