29

O	28.23926369191052	8.358945347860804	18.879516082907074
O	27.03526437344566	9.69994697861199	18.770038736918664
O	27.78896547640567	10.810837019972308	18.678457694384548
O	27.435453293136526	11.58370534721615	19.679424884245442
O	26.268268650274496	11.56038300004996	20.383041681457964
O	25.33380971408773	10.594790894454984	20.290287383102722
O	25.8159288390527	9.72569525556677	19.3903611706896
O	26.10448494711498	12.788452641016187	21.004755822786155
O	25.120803223093738	13.305171094774817	21.506575677633812
O	24.20807274175517	12.282544289927138	21.858620337404226
O	24.320586403176062	11.038704533385125	21.238377866097327
O	27.280554710976634	13.74961080737255	21.1059581634563
O	26.82388345339658	15.123448454932031	20.891651627550864
O	25.527535984891546	14.879213822058755	20.178186926823297
O	25.58653007711164	13.790686402110069	19.130554862540404
O	26.75792545925242	14.021643549259608	18.399384856189066
O	26.729206152083282	13.478613805133639	16.857918007027447
O	25.51496705089727	12.345892678307882	17.306085177549498
O	24.84381566818091	13.062547116782387	18.30076274741043
O	23.700937538128407	12.301210791418246	18.697189884735096
O	23.116747058376472	11.211756207610055	18.10793495797254
O	22.048266805158935	10.756836268495347	18.90924834831006
O	21.667530335036325	11.762315497035512	19.548120306344366
O	22.41501409033792	12.913520242968906	19.010061500410867
O	26.91083010200991	15.659997509875907	22.219154526865896
O	28.13320775142376	15.904214341257635	22.553529044251334
O	26.126986895654987	15.458470470983396	23.32765727719025
O	23.16756566404106	13.319933516367662	21.844461508616195
O	24.60378401684876	12.676832350759366	23.280882853282698
