100

O	2.4212235588387094	2.7641391911612896	0.7126744255806456
O	1.4012120588387096	3.6633136151612895	-0.32472992841935433
O	-0.03418936316129034	3.4974347051612895	0.08281647758064564
O	-0.5152244379612904	2.40346546216129	0.9233260375806456
O	0.1571046378387096	1.9372552871612898	2.1144397295806456
O	1.5290425788387096	1.7225878861612898	1.5759254495806454
O	0.005863846838709608	0.9674260151612897	3.1834608295806457
O	1.3979956088387095	0.49053199516128965	3.6067883295806458
O	2.5196024088387095	1.0885060551612897	3.028878209580646
O	3.84293011883871	1.0444662051612896	3.221573529580646
O	4.21150790883871	-0.2016682148387101	3.6821815095806456
O	3.2574173588387096	-0.6463914248387104	4.655751479580646
O	1.9358392688387096	-0.33529061483871025	4.497991399580646
O	5.57150445883871	-0.3256450548387102	3.7201878095806458
O	4.55830984883871	2.3430074401612897	3.3057368095806456
O	3.7806911888387096	3.6369946151612895	3.5280900295806457
O	2.3708001688387097	3.71858676516129	3.3388972695806456
O	1.3172712988387096	4.53992701516129	2.547851279580646
O	2.6167954088387098	5.23788436516129	1.9790889495806456
O	3.0469438188387095	4.60781236516129	2.9174352595806456
O	2.1090655588387097	5.22612241516129	1.7373624195806454
O	1.8127150288387095	3.6632979551612896	4.726696709580645
O	2.9072648788387094	2.49392101516129	5.337673719580645
O	4.13288222883871	3.0972710681612896	5.795824969580646
O	-1.7744262111612905	2.0693565535612897	0.5704939865806457
O	-0.4762537795612904	3.3227169551612894	-1.2697321804193544
O	-0.21244717516129036	4.53703699516129	-1.9870532104193543
O	-0.23906985416129037	5.61088928516129	-1.0458062604193543
O	-1.2858675911612905	5.358518145161289	-0.21329250241935438
O	-1.1219104241612903	5.757565085161289	1.0832613615806457
O	-0.48540614536129034	6.93266129516129	1.3379642775806455
O	0.4439698348387096	7.27120860516129	0.4023091535806456
O	0.7594419088387097	6.44469345516129	-0.7103635304193544
O	-2.37385270116129	5.71003352516129	1.7103224795806455
O	-2.8560202311612906	4.43770319516129	2.126971219580646
O	-3.4317687811612902	6.27219025516129	0.8058591385806456
O	3.8718265388387096	3.00086964016129	0.7781457815806456
O	3.8704398488387093	2.9934408001612898	0.7777312675806456
O	7.73328023883871	-6.17082207483871	0.37256250558064563
O	8.99531239883871	-4.282630624838711	3.4021672995806456
O	6.05747140883871	-5.08743077483871	5.656383689580646
O	3.3582518588387096	-5.92746915483871	3.071343199580646
O	1.3395908988387095	-8.775088964838709	1.7412735195806457
O	-1.8656204711612905	-9.91418756483871	3.4284363595806457
O	-5.09301509116129	-10.89940116483871	8.448855449580645
O	-5.58535657116129	-8.010008764838709	6.069841819580645
O	-3.0533404611612904	-6.01428724483871	4.046904569580645
O	-3.7656894611612906	-6.046935624838711	0.33925359058064564
O	-3.52343216116129	-2.4656795948387105	-0.8009571404193544
O	-4.24342599116129	-1.4010855148387105	-4.4108685304193544
O	-2.9815318711612906	2.1901294871612897	-3.3344138104193544
O	-5.89654128116129	3.0714299101612896	-0.9513314204193545
O	-9.69435943116129	2.6635083831612896	-0.8564012804193545
O	-10.79769805116129	1.8796094531612897	2.6977293595806455
O	-11.416625751161291	-1.4375137248387104	4.396555219580645
O	-10.12689330116129	-0.6791826848387101	7.910629309580646
O	-6.72949159116129	9.31032385516129	7.659960289580646
O	-3.3364883611612903	11.116097115161288	8.108277669580644
O	-2.2422301511612903	8.117562125161289	10.681046199580646
O	-5.34981672116129	6.18066712516129	11.777636999580645
O	-13.668954051161291	1.4852584731612897	9.503090969580645
O	2.7410419988387096	4.48807431516129	13.280253599580647
O	0.019102462838709644	2.5606386541612896	11.370789099580646
O	0.48676728783870965	-1.0296637748387103	12.565772199580646
O	3.9283013788387096	-2.55073767483871	11.781872899580646
O	3.8461761288387097	-7.71150744483871	9.957343409580647
O	-1.6159905411612905	-8.117238364838709	9.672109889580646
O	-6.18888823116129	-4.38849767483871	8.961905339580646
O	-6.00089089116129	-3.0429115248387104	5.419161539580646
O	-8.08249556116129	-3.8310980648387103	2.3000383395806456
O	-8.083957621161291	-0.7146954548387101	0.05898377858064563
O	-8.63883741116129	1.3891012741612898	-5.309333910419355
O	-11.52077425116129	3.7017937751612897	-6.201212000419354
O	3.18133774883871	-11.129836264838712	-4.9662614504193545
O	-10.31286195116129	5.784509985161289	-11.742559100419355
O	-8.95353344116129	6.994935095161289	-8.398234010419355
O	-5.63856581116129	5.23597968516129	-7.8850110604193535
O	-4.89909808116129	2.5052299341612896	-10.457938700419355
O	0.35577402383870965	0.4249427851612897	-9.388648370419354
O	0.4345843528387096	0.020107115161289713	-5.704948750419354
O	0.8742945388387096	-3.0633678448387105	-3.580415660419354
O	0.8889212688387096	-1.0667347848387103	-0.5093927604193543
O	4.25453230883871	0.5691453451612898	-1.4049663604193543
O	7.46825458883871	-1.1278171848387104	-0.8816294104193544
O	9.614894348838709	0.5846592951612897	-3.407050960419354
O	9.70212454883871	1.3680669721612897	-7.128898280419354
O	9.384141738838709	5.11961584516129	-6.689572080419354
O	14.227658948838709	2.2989114801612898	-5.7573152904193545
O	13.60231484883871	5.6884912451612895	-4.176701390419354
O	12.61792964883871	9.19626986516129	-5.044621170419354
O	9.13718948883871	10.45990428516129	-5.255368200419355
O	7.633454808838709	13.94463703516129	-5.196142020419354
O	4.20232920883871	12.33293553516129	-5.8524745404193546
O	4.83467396883871	4.19073871516129	-8.018256290419354
O	5.11836520883871	0.6063648151612897	-9.025140690419354
O	5.32903072883871	-0.8022502948387102	-5.505146580419354
O	5.65974447883871	-4.32415866483871	-4.183727710419355
O	9.220219838838709	-4.87620625483871	-5.273311310419354
O	8.14209413883871	-4.33632441483871	-8.892511560419354
O	4.91724371883871	-6.2548698148387105	-8.489416310419355
