11

O	24.31530004320915	12.84601213910257	23.128261974398487
O	23.284193443956017	11.939070250248292	22.911929882276567
O	25.595338057428506	12.247805529678914	22.8273799090112
O	23.56867349914007	10.823592146563167	23.62859442351121
O	25.853529612521395	10.96358546458477	23.091412862530955
O	24.80812465473765	10.414445152495539	23.78154664341879
O	25.179724192049587	9.982409182045473	25.073408995828444
O	22.107726659965486	11.806000911445038	21.95243488833886
O	20.93908960288276	11.765042541098964	22.96750658559767
O	20.736626644313404	13.239484479208276	23.318449891439208
O	26.681090763971675	12.946536622467615	23.101438301226416
