37

O	23.529713318882614	12.587369444107498	23.81290494126105
O	24.764538093437082	13.081916519373458	23.344598704203197
O	24.867456479433528	12.05810445238445	22.281464159913526
O	23.462067381595816	11.61649788760869	21.90086787804837
O	22.797546729632465	12.479517062204977	22.613738837668954
O	23.34714943058327	12.728951970679747	25.183318287861177
O	22.16144979229619	12.011961198997088	25.71299090535618
O	21.563701055282632	10.988332868992996	25.002737112850163
O	22.281388679378097	10.55409516084087	23.961645165415423
O	23.67293817130188	11.083606575393263	24.0518893599701
O	25.82883423966905	12.231353900686738	21.434637050863337
O	21.5267405636913	12.0067335045659	22.641785756974365
O	24.76240861803499	14.425839766109789	22.7412406255775
O	20.64398158742666	11.137969826985811	21.929458127138567
O	21.511268822979122	11.066224371143749	20.77132216507381
O	21.57164927420437	12.486931943931456	20.204577588878287
O	20.880394569846512	13.544635176402448	20.986722994084918
O	19.644183227214242	13.244347588116668	21.730437453123884
O	19.384245557323972	11.81366793534546	22.10577072102822
O	25.778030450239452	15.29603176706059	22.947806932921306
O	26.436210120236456	15.848846309016084	21.842389285626126
O	26.05395599945303	15.319281718182372	20.601564360711514
O	24.66741383201304	15.230124664198712	20.454448406956473
O	24.014871198383066	14.806561083465757	21.615985097137578
O	20.17211478905461	11.06425354252937	25.13038642549118
O	19.870217601653493	12.525059778659429	25.192368435576775
O	18.870532061588914	13.117567677034364	25.89489492187466
O	18.898366173607265	14.498727460185092	26.057069424704054
O	19.712911717290382	15.244883317074516	25.19139210213729
O	20.801762947666525	14.651583455090464	24.54799242338603
O	20.77665329661162	13.35253249775457	24.79650478248461
O	21.918789623101276	15.210561487749352	24.022618471744295
O	22.900985230202515	16.01503392873552	24.5557435718982
O	23.225324596324867	15.935574794186355	26.034000361971735
O	23.44376127837397	17.19702608177613	23.87796313192025
O	22.09538936565418	15.025077439799503	26.385202565403485
O	24.279856267771443	14.631019477960574	19.271080347527388
