30

O	21.15434190485179	11.849915915257835	22.622265024222514
O	21.404321927122286	11.597128117316174	21.21053536719618
O	21.543137513235905	11.124220197678312	23.71048383914764
O	21.912985269936957	9.783964729253457	23.433735471564358
O	22.192114869430668	9.628558063973998	22.265769713181818
O	22.080878994584225	10.343840419656821	21.06686723504993
O	23.34107888463757	10.580706848272689	20.387366803690295
O	24.198424047225522	9.63886048679159	20.651112645348228
O	25.326057800475393	9.60448694139256	19.792555133294176
O	25.67237362854311	10.468981187251366	18.79416058698216
O	24.435592229711293	10.868732073093362	18.30157794536227
O	23.54069602735067	11.321956703412958	19.1946430012192
O	22.122493900214497	9.47091353149677	24.794122909849598
O	21.15719962305638	9.760625033236867	19.98486950586822
O	26.370024639231005	9.82075863364809	20.841961344421893
O	26.364698691158544	11.17642529331117	21.12554543883549
O	25.532200155676932	11.385501103010109	22.329476994868095
O	26.389699555747466	12.02905588401659	20.127135836610588
O	24.97461985670275	10.457717883383081	23.147947422727306
O	24.461930886474434	11.1490559902389	24.19526574410915
O	25.545881499662375	11.791345920771695	24.676223226476992
O	26.225298250891722	12.676514035175845	23.82722822725922
O	25.670006150339198	12.692889578082891	22.566527938071058
O	25.85329882892396	12.00140345853685	26.05971059075416
O	24.890711956195307	12.511971046653109	26.739638978003228
O	21.87576782696683	13.086004107215857	22.58633311149331
O	22.403068348420753	11.448879771708551	18.427253227643263
O	20.830401944264654	13.947400285963543	22.380643593735467
O	22.881576588615488	13.453158031849185	21.808109158011078
O	22.323639184134205	13.37357466601732	23.880886709058924
