81

O	5.153114071759999	6.624400521659998	-2.9270747446286
O	4.855317391759999	4.993642191659999	-3.4074396046285997
O	4.006476001759999	4.8483902916599995	-4.5099143446286
O	3.1953631017599995	3.716683271659999	-4.6102264546286
O	3.562436441759999	2.754159959659999	-3.7121828646286
O	4.8648604217599996	2.6516618566599988	-3.4266051246286002
O	5.484205211759999	3.843076171659999	-3.0140193646286
O	0.7063527467599996	1.626091205659999	-2.1024903516286
O	1.3049042217599995	5.598616521659999	-2.7368966646286
O	-0.08026431624000042	2.372044621659999	-2.8129029446286
O	2.5021443117599995	3.320258001659999	-5.7946909746286
O	1.7659838917599997	6.644627131659998	-2.9131640646286003
O	1.2221495117599996	2.626617836659999	-5.5544775546286
O	-0.23585569124000044	3.6454428316599987	-2.6554376536286
O	1.5360915717599997	1.918546420359999	-4.4312579246286
O	2.3902627017599993	1.976389806059999	-3.4881933846286
O	0.9035157887599996	4.378408411659999	-2.2227608106286
O	2.4911586517599993	0.6691444516599989	-3.0993312746286
O	1.3343158317599997	0.31489131165999895	-2.3682970706286
O	2.2658267517599993	-0.194405788340001	-1.3893687996286
O	1.5868484417599995	3.648392451659999	-1.2815915196286
O	1.5223198817599997	2.327888656659999	-1.2748130866286
O	2.446723301759999	4.157305591659998	-0.6068589046285999
O	3.4153064717599992	0.584880681659999	-0.9250772956286
O	0.25660435375999957	3.734818411659999	-5.7988356446286
O	0.8234728977599997	1.603077971659999	-6.578223364628601
O	4.540397401759999	0.102210941659999	-1.5881698388286
O	5.81099743176	0.574051431659999	-1.2738227156286
O	6.021683511759999	1.682217286659999	-0.4986351146286001
O	4.8925334317599996	2.313106070659999	-0.07752051462859999
O	3.7550772017599994	1.504017442659999	-0.01129050462860004
O	2.3642426717599996	-6.684205278340002	8.0408859953714
O	2.4432052317599995	-3.059342028340001	9.1412562453714
O	1.5001564117599997	0.413638031659999	7.907225695371399
O	4.84970727176	1.233778265659999	6.2059811353714
O	5.203129241759999	-1.953169878340001	4.1912670553714
O	1.5714031717599997	-2.900001268340001	3.8581690453714
O	-0.7486899832400004	-5.63092032834	5.1770840653714
O	-0.7778225522400004	-6.909771958340002	-0.44117284462860007
O	-4.994265468240001	-2.8580359683400007	-1.5372265806286
O	-8.47606248824	-1.1924745383400013	-1.3464333766286
O	-7.015753148240001	1.484134436659999	-3.5913138046285997
O	-6.72279777824	-0.6112128183400012	-6.7979829546286
O	-8.49199154824	-3.226508638340001	-8.770841244628599
O	-5.9249131982400005	-5.649636758340002	-10.207737704628599
O	-1.1880325282400004	-9.022191908340002	-9.8215211746286
O	1.6247026117599996	-11.234419908340001	-8.6882677346286
O	5.791639321759999	0.414862381659999	-12.2841694546286
O	5.10806814176	-3.234445348340001	-13.0926303546286
O	10.57766388176	-0.8933713283400011	-10.9834706246286
O	10.36754178176	0.14765726165999893	-7.3494075346286
O	7.324659951759999	-2.1463372483400014	-6.9828129446286
O	8.44676879176	-4.832981428340002	-4.6052124646286
O	9.56110774176	-3.7590873783400007	-1.1374042976286
O	11.40276548176	-7.285751008340002	3.4749696053714
O	7.65139127176	-6.663604158340002	3.0700028453714
O	7.25861870176	-10.394395108340001	2.6478342253713993
O	4.573066901759999	-9.893621008340002	-0.030857644628599967
O	1.7165004417599996	-9.613332408340002	-5.1674836546286
O	-1.0503005582400005	-7.032034458340002	-4.8298567646286
O	-6.81600967824	-4.865800508340001	-5.7201513846286005
O	-11.93088501824	4.006063401659999	-5.826529714628601
O	-13.70241601824	3.695886321659999	-2.4804575756286003
O	-10.01943311824	4.895275051659999	1.6786459953714001
O	-6.7829198682400005	3.184759001659999	0.6302604153714
O	-5.165847438240001	0.3164081116599988	2.6110595153714
O	-2.3175423582400008	0.517454241659999	0.01217951537139994
O	-1.3271071682400004	3.907363761659999	1.4263797753714
O	0.6879343147599997	4.313084771659999	4.5325561553714
O	-0.18766072024000044	7.896130291659999	5.4715143153714
O	7.297879301759999	13.226028091659998	7.1677761353714
O	11.01417928176	12.672738891659998	6.7849177153714
O	2.3631367817599993	9.982143041659999	9.078570745371401
O	1.5579590817599995	14.178740991659998	4.2482193553714
O	-1.3630468682400003	15.147389191659999	-1.6651527411986
O	-4.54472107824	13.785991791659999	-5.7710510446286
O	-4.225666368240001	5.2837671316599994	4.3337688653713995
O	-3.2440995882400006	2.486530424659999	6.6526890653714
O	-2.3755442082400005	4.654472631659999	9.6413833453714
O	-7.4191493282400005	2.541372689659999	9.0915085453714
O	-5.444749708240001	1.160982458659999	12.0530402453714
