87

O	0.43530771114545486	0.6699926068	-1.3129759793272735
O	0.5363950811454548	6.5539539168	0.8668840376727265
O	1.6362965311454547	7.1262784568	0.16350420767272644
O	-0.22584658285454523	7.7128705567999996	1.5619279976727265
O	-4.355946458854545	2.9779235658	-1.2942053693272735
O	-3.0503209188545455	3.2866771368	-0.7060708083272735
O	-1.7532429188545453	3.2400039368	-1.0213373723272736
O	-0.9160672288545453	2.4023227277999997	-1.5070339943272737
O	-0.5682101262545453	1.2657959987999998	-0.6529511423272736
O	0.024010095145454824	1.9328133178	0.4973044676727265
O	-0.8648091318545452	2.8042560317999996	0.9308482576727264
O	-0.36001217485454523	4.036524786799999	1.1919094376727264
O	-0.8170286688545452	2.3786648398	-2.9256235223272737
O	1.2004177411454549	6.0161583168	2.1286322976727265
O	-0.44851775985454523	5.4898925868	0.6813190276727266
O	1.621499461145455	4.643033216799999	2.0340013776727264
O	1.0299046311454547	4.0019360968	1.0090622476727265
O	1.590635131145455	3.5742986468	-0.07961194932727356
O	2.4062632511454547	2.6415842877999998	0.4263328676727265
O	3.0103696811454546	3.6118141367999996	1.8398445876727263
O	-2.9687970888545454	4.4750904268	-0.38698464932727356
O	-0.9119572878545452	3.8620521967999997	-3.1952908823272734
O	-2.0464921288545455	4.5998996168	-3.1351106523272736
O	-2.0804600988545454	5.9920038568	-2.9700394623272737
O	-0.9764414318545452	6.6109754768	-2.461298572327274
O	0.2125213621454548	5.9558115668	-2.6153027023272735
O	0.15974476114545477	4.5765025468000005	-2.6692133123272734
O	2.9710353711454545	2.6195530388	-1.1069594233272735
O	3.628570171145455	3.6038672868	-1.8648615523272736
O	5.0994282111454545	3.4010747768	-1.7809039533272735
O	3.3723539111454546	5.0646326168	-1.6973754993272734
O	3.2315871411454546	3.2999523968	-3.3259372723272738
O	-9.620365128854544	-1.8453318732000001	-2.1763150923272736
O	-9.735829778854544	-5.6351665132	-2.6585280923272734
O	-8.536598608854545	-7.143219763199999	-5.931449292327273
O	-5.319039158854546	-6.207693923200001	-9.586169472327274
O	-5.389644188854546	-4.4414356232	-6.1900326523272735
O	-3.916923808854545	-6.6068577532	-3.4164474123272734
O	-1.5899660828545452	-4.2730993632	-1.5478336823272736
O	0.5948717811454547	-5.3769875932	1.3794827976727264
O	1.663459101145455	-1.6385022932000002	1.8029676976727265
O	3.670065691145455	-1.4212108832	-1.3978454873272734
O	6.192076871145455	-3.3883723732	-3.4336989223272734
O	5.529854271145455	-2.6484962132000005	-7.099313472327274
O	3.525635401145455	-4.6792242032	-9.592584852327274
O	2.095113151145455	-1.8456970232000005	-11.722788652327274
O	8.111498891145455	7.6900700967999995	-10.721680112327274
O	5.917126581145455	7.0700995468	-7.759136042327274
O	4.423674051145454	10.0780614068	-5.901925712327274
O	1.0462594711454547	9.5973689568	-8.114456632327274
O	1.7814638411454549	7.3413985967999995	-11.115160952327273
O	-5.539167938854545	10.4333462668	-8.486945162327274
O	-4.232407428854545	6.8524981467999995	-8.666486182327272
O	-10.362604298854544	5.0612130368	-8.387504122327273
O	-3.3991920788545453	-2.3619851931999998	-11.514273052327272
O	-1.7480848488545453	-3.0255069032	-8.189301882327275
O	0.1267666361454548	-5.9308464032	-6.693851442327274
O	2.635538581145455	-4.6999814532	-4.139318532327273
O	5.790395431145455	-5.966583933200001	0.5724086776727264
O	9.594981471145456	-6.1166115032	0.39452816767272636
O	12.104404071145455	-4.8361654132	-2.1552955323272736
O	10.434680571145455	-0.02201778319999992	-0.5050130593272735
O	10.160707871145455	-0.8631873432000003	-4.182015452327274
O	10.562519571145456	1.9632456768	-6.709645092327274
O	11.504002371145456	-6.479775223200001	6.131461517672727
O	10.396836271145455	-3.3802258631999997	4.189051997672727
O	6.736766341145454	-2.6299364232	4.942436137672726
O	5.167005551145454	-5.4774771132	6.953262247672726
O	2.433944091145455	-1.7117685732	9.537802947672727
O	-0.2204361908545452	-4.0848536532	8.116566347672727
O	-1.5079311348545452	-2.4399836032	4.9117122276727265
O	-4.376349258854545	-3.8383756532	2.7821959776727265
O	-3.855839328854545	-0.6949688032000001	0.5188070876727264
O	-4.9484971188545455	1.6714426307999999	3.2306008776727264
O	-8.702369798854544	1.7541282297999998	4.151132597672726
O	-8.617850428854545	2.8775290248	7.762253977672727
O	-7.110118238854546	1.8109772078	11.059662347672727
O	-4.688522588854545	4.737643246799999	11.300347347672727
O	-8.130925258854544	8.198268586800001	11.626228747672727
O	-4.934709638854545	9.9702838368	12.621871447672728
O	-1.5517415698545451	9.307276736799999	11.122485347672725
O	1.7077134111454548	11.2573129868	10.895928547672728
O	3.424737541145454	8.1298625868	9.519881547672725
O	-1.5222728938545451	1.4543082868	9.863275247672725
O	-3.6732787088545455	-1.6437239932	10.189868947672725
O	-5.665023618854545	-0.9954463532000002	7.0428160376727265
O	-8.436409758854545	-2.9056185132000003	5.375979197672726
