76

O	-0.4233554219549662	-1.9509054868214286	-1.1361291587017859
O	-0.9095830809549661	-0.8128971468214286	-0.512991674701786
O	0.5264233380450338	-2.4711087568214283	0.834378006298214
O	-2.485060626954966	-3.5050892668214284	-4.675514963701786
O	-0.7448393839549662	-2.6929066168214284	-2.402004933701786
O	-2.8145446319549663	-2.7188168268214286	-0.5507039267017859
O	-2.215202652954966	-3.2508143668214284	1.532681346298214
O	-1.903980348954966	-2.5905869368214285	-3.307695663701786
O	-4.972694781954966	-1.4393682068214286	-1.1599717307017858
O	-4.153942411954966	-3.0580795168214285	-4.696866943701786
O	-6.106947991954966	-3.2500931968214286	-2.1157437437017856
O	-4.072754671954966	-1.8458156468214286	-4.192151933701786
O	-2.908680681954966	-1.6971414968214287	-3.5177374937017856
O	-0.4231270619549661	-2.8503110768214284	-0.070796936701786
O	-1.7959850667549662	-2.9557299268214283	0.37653019629821416
O	-4.097537251954966	-3.3676968568214285	-0.6801316519017859
O	-3.808495381954966	-4.427076166821428	-1.690057660701786
O	-2.611902581954966	-5.218811196821428	-1.1370768157017859
O	-1.7619248728549661	-5.839564196821429	-2.192782973701786
O	-5.241703181954966	-2.6475310468214284	-1.219033233701786
O	0.770880398045034	-0.7117560588214286	-11.187065853701787
O	2.776772608045034	1.1108444831785713	-8.548789203701785
O	5.961441938045034	3.1920874331785716	-8.204025273701786
O	9.240868098045032	1.3978142131785714	-7.636994373701786
O	11.050789198045033	-2.6768812768214283	-5.567626913701786
O	7.491240478045033	-1.3539833768214287	-5.012818643701785
O	7.512076128045034	1.6682873131785714	-2.650354613701786
O	4.670774868045034	0.8398355931785714	-0.22301107070178594
O	3.687498848045034	3.0461094831785718	2.6978056862982145
O	0.7089276480450339	0.6493689931785714	3.3341307462982144
O	2.804502328045034	-2.2568808868214285	4.5572623862982145
O	5.830297028045034	-3.0421947768214284	6.706124466298214
O	7.7118952580450335	-5.937769786821429	5.109185336298214
O	10.689055798045032	-5.875847576821428	2.7688164862982143
O	9.851849698045033	-8.87410566682143	0.546888196298214
O	0.8758315580450338	-12.82823712682143	4.109434716298214
O	-2.733916541954966	-13.09201712682143	2.762915896298214
O	-1.174243086954966	-13.56695492682143	-1.028341185701786
O	2.5433226180450337	-14.29946282682143	-0.7973316644017859
O	-2.122782233954966	-12.52130272682143	-7.576318903701786
O	0.948147198045034	-10.774950126821428	-6.027216363701786
O	1.573210568045034	-7.668237396821429	-11.653477353701787
O	4.799702998045034	-3.6380726368214282	-13.515645253701786
O	7.992906388045035	-4.639115436821428	-2.144345873701786
O	9.437815898045033	-2.1450165368214287	0.35410853629821415
O	7.012882278045034	-1.7808238268214287	3.268152586298214
O	5.064378948045034	1.5638042831785712	7.554710576298214
O	5.668566628045034	0.6371897041785715	11.204114046298214
O	1.8124793180450338	-4.196958836821429	11.213005446298213
O	4.870860238045034	-6.210181526821429	10.141927946298214
O	2.361758288045034	4.5258258631785715	14.474735146298213
O	1.2136046680450339	1.3912300531785713	12.632261946298213
O	-0.12241059195496606	2.4030504731785713	9.207789526298214
O	0.5607216380450339	6.060220233178572	8.447957816298214
O	-4.203148931954966	6.068117543178571	5.987862196298214
O	-1.700522509476966	7.289539633178571	3.3912751662982146
O	-0.8968392829549662	4.351296163178572	1.1746401062982141
O	1.3871429380450337	4.547113783178571	-1.881699093701786
O	0.7539958880450339	1.1131067531785714	-2.626731233701786
O	-3.021967361954966	1.8223825931785715	-3.252031773701786
O	-4.051669961954966	3.2273470931785715	-6.611471043701786
O	-7.279953281954966	5.044902183178571	-5.713854903701786
O	-8.534207061954966	7.558768313178572	-3.214665363701786
O	-10.727555651954967	5.196745063178572	-1.2060722247017859
O	-12.195393901954967	7.167958683178572	-6.312980263701785
O	-13.802428501954967	4.085936293178571	-4.831527093701785
O	-15.535336401954966	2.7820317231785716	-1.7248670157017858
O	-13.854821501954968	1.3415365131785713	1.311190886298214
O	-14.899956301954967	-1.0549414298214286	4.0824738962982146
O	-11.543164911954968	-0.4703652008214286	5.8056702962982145
O	-7.068813861954966	5.366220323178571	1.861441916298214
O	-5.100241561954966	8.201309483178571	0.2847313562982141
O	-3.654436861954966	6.096751063178572	-2.512033123701786
O	-1.270517876954966	6.982909923178571	-5.336988603701785
O	-3.915865151954966	11.53265187317857	-4.376826303701786
O	-0.22600504195496618	11.353763973178571	-3.615502723701786
