94

O	-2.7500394880333334	7.595230901966667	-1.0672600936200007
O	-2.9315410580333334	2.943177997366667	-0.07623209021000088
O	-4.129228048033333	4.573398091966667	-2.6063684712100006
O	-2.2221978950333336	7.406620111966667	0.2578675787899991
O	-2.4053791580333335	3.039603215966667	-3.3705897412100008
O	0.8238060219666663	6.384245561966667	0.20346140878999908
O	-2.1110379040333336	6.125582771966667	0.8816510287899992
O	-1.9678322440333336	1.430910961966667	-5.168716811210001
O	-2.9199414680333335	5.289621161966667	0.051046118789999095
O	-1.7299273710333336	3.578556543966667	-5.48763247121
O	-1.9290902910333334	5.429235721966666	-0.8761855282100008
O	1.9993817219666663	4.761034721966666	-0.018126011210000792
O	-1.9756373150333335	6.577036041966667	-1.660848542210001
O	-3.554053528033333	4.037251791966667	0.5058961087899991
O	-4.132125038033333	3.344896130966667	1.5902346487899992
O	-3.1690267380333337	2.353029570966667	1.868324628789999
O	-2.1983373250333336	2.365277382966667	0.8547295087899991
O	-3.5345413380333337	2.7095215479666668	-1.3437609292100008
O	-3.3005631080333337	3.601744322966667	-2.4708236712100007
O	-2.3533237580333335	2.674572265966667	-4.554788231210001
O	-0.7916412940333335	2.816047768066667	0.36302563878999905
O	-0.17033859803333362	2.636794427966667	-0.7791989632100008
O	1.1696353419666663	2.7781725259666668	-0.6165893102100009
O	1.6268121719666666	3.544051255966667	0.4030527287899992
O	0.7941840319666664	3.873544069966667	1.407204668789999
O	-0.03698897803333345	2.853180448766667	1.465449578789999
O	1.0664715219666665	5.573013531966667	-0.6888348232100008
O	1.7264591219666665	5.821751191966667	-2.0276584632100008
O	2.6755188619666663	6.727050641966667	-1.6362503532100008
O	3.7988269219666666	6.938960591966667	-2.471069721210001
O	4.424488461966666	5.676627811966667	-2.5860426512100005
O	3.5838629019666666	4.696638481966667	-3.1294163312100007
O	2.2576838119666665	4.705327041966667	-2.699715341210001
O	4.589946291966666	3.5456738399666667	-4.227645911210001
O	8.701426011966666	3.5677905319666667	-7.0793601312100005
O	8.588214511966667	6.666016701966667	-5.000235441210001
O	8.007906601966667	5.025843171966667	-1.5825904202100007
O	6.816263311966667	1.604246281966667	-2.714941201210001
O	8.016956811966667	-1.9935365380333332	-2.918908021210001
O	7.587987151966667	-4.166044258033333	0.11420288878999907
O	7.693917021966666	-5.038563238033333	6.036173548789999
O	4.584611571966667	-4.697071628033333	3.950463918789999
O	3.8485157419666667	-2.665694208033333	0.9431395587899991
O	2.822599931966666	-4.867447108033333	-2.0510316142100007
O	-0.3094283130333335	-3.174092268033333	-3.389525221210001
O	-2.3117534980333336	-4.360895518033333	-6.336477451210001
O	-4.557754608033333	-1.390306128033333	-6.171941011210001
O	-6.326803688033333	-2.2413435080333333	-2.8615218812100007
O	-7.767710898033334	-5.057813528033333	-0.9855767866100008
O	-6.945107008033334	-4.617051848033333	2.6895522987899994
O	-4.165154048033333	-6.418989658033333	4.6292428787899995
O	-3.4415964780333335	-3.753518708033333	7.232681858789999
O	-0.4951847030333335	-3.3594253780333334	9.573766408789998
O	-10.386945488033334	3.703788131966667	5.568598668789999
O	-10.307518808033334	7.361949511966667	4.538085398789999
O	-6.542022098033334	7.804555231966667	6.450697248789999
O	-6.049832508033334	4.861174731966667	8.742833068789999
O	-8.327439168033333	3.390928055966667	11.370216308789999
O	-5.6268236580333335	-8.340233648033333	9.50313070879
O	-6.650111708033334	-4.7737633480333335	10.105404508789999
O	-3.342893318033333	6.926022371966667	10.980109308789999
O	-2.9418019380333336	10.277460041966666	9.28951240879
O	-0.23290838803333358	10.750655711966667	6.700866808789999
O	-0.26174727803333353	6.990130631966667	6.09610075879
O	3.147108301966666	5.875865731966667	7.065582348789999
O	5.995435381966666	7.326002401966667	4.90379119879
O	9.128045311966666	8.311948271966667	6.809614068789999
O	11.997302911966667	6.106274231966667	5.606230108789999
O	9.827012111966667	3.7856035149666667	3.4072543687899994
O	10.851011011966666	0.9989363319666669	5.820178428789999
O	7.352852651966666	-0.5361626780333331	5.533422798789999
O	4.893254211966666	-0.9798259480333331	8.40881067879
O	1.8106704019666664	-2.191139268033333	6.625725198789999
O	0.14166215196666654	-2.8575733380333332	3.3376862887899987
O	-0.8898667570333335	-5.879269148033333	1.436841108789999
O	-3.938999608033334	-5.3306637580333325	-0.7231836312100008
O	-3.8374189980333338	-7.822345848033334	-3.4994432412100007
O	-6.951719998033334	-6.793316338033333	-5.386711321210001
O	-10.414571098033333	-8.377291848033334	-5.065433351210001
O	-13.243503688033334	-3.312735438033333	-3.069182541210001
O	-12.250085388033334	-4.381323848033333	0.42981096878999914
O	9.426203711966666	-4.419074678033333	-9.67974160121
O	-12.464753388033333	-5.6070409080333325	-8.33179485121
O	-9.341139888033334	-3.593525518033333	-9.16851623121
O	-1.5425924370333335	-0.5508350280333332	-9.46270281121
O	1.7943357919666665	-1.1956375980333327	-7.696795561210001
O	0.8901214719666666	1.0527667819666668	-5.001524121210001
O	0.9910862019666664	4.1865220619666665	-7.143076221210001
O	4.193179251966666	5.610819021966667	-8.339435991210001
O	3.2909998519666663	7.219889641966667	-11.705646891210002
O	1.7107188019666666	2.582805270966667	-11.449271891210001
O	5.098703401966667	1.377343171966667	-10.315875601210001
O	7.160212461966665	3.249454127966667	-12.89533139121
O	5.496874781966667	-1.8712399680333327	-13.87394969121
