45

O	22.854519427315584	11.962641434699908	23.28756399366471
O	21.925911336312648	10.992769291216156	22.616896319447083
O	23.98687570689204	12.154937226865817	22.55083025940786
O	24.03241663312853	11.3522015880104	21.513695689280265
O	22.03018794462574	11.364879723228695	21.214137662726724
O	22.234007714208786	12.912023348128601	21.24646505324637
O	21.797518291321946	8.57179479265611	22.683332042118085
O	21.748901754058505	13.707458843863076	22.275415474934714
O	22.650538777914168	13.826548489337476	20.350164931215936
O	21.532300198935808	15.039064587642478	22.372949410120242
O	22.631556490221563	15.190782395731748	20.377387270627032
O	22.218658343561707	15.814297211853308	21.506353726132605
O	22.409966654929246	9.697120307359725	23.15602609236346
O	21.88347375502066	10.10945394022467	24.520497899319494
O	20.70237833336743	9.405190165570884	24.70309515526728
O	19.710923768709318	10.277849957327652	25.26003759565391
O	20.179470439831896	11.651256082885489	25.526640217519294
O	20.020809841919203	12.758785967907958	24.75594035397495
O	20.16924452423788	14.094508493190384	25.179674161937537
O	20.86391821992149	14.116342555009025	26.398760954280828
O	21.703064422442125	13.023472858606675	26.67080742253272
O	21.406024212701052	11.719357603035261	26.12074443264009
O	22.441005151000834	13.185940767328447	27.90339139002242
O	22.49833714834585	12.164426036239032	28.959090533926762
O	23.401042860297284	14.243680605918637	28.166531298623013
O	24.706706531019403	13.255092419192799	21.96577796310218
O	26.020493907238592	12.85461573344821	22.393059122642626
O	26.762156368084547	13.939477457020699	22.835215833241808
O	28.016590195095144	13.916036897113855	23.005075527496388
O	25.925652267857267	14.762570255433488	23.56204410982992
O	24.676863312970074	14.424613729565179	22.961166406045667
O	26.33673821909802	15.194170254979435	24.91260350876588
O	25.179734100586856	16.007595693178594	25.289754198261285
O	23.893316785614687	15.444568736443806	25.119532630506633
O	25.2574069172677	17.144553633696464	24.473051056710982
O	24.196537112692113	17.793683258031532	23.849904096110293
O	22.801737399832906	16.29965073585109	24.9217449062985
O	22.95206254423274	17.422877024794573	24.18194606781151
O	25.259886220431873	13.226783200516868	20.594541204084557
O	26.036556056458465	16.83919763802735	21.242803252635028
O	27.40642061884683	16.626473056073685	21.374298167953597
O	27.886999442095835	15.69821958028541	20.454617350665977
O	27.137634299017634	14.614621896260921	20.201677514512575
O	25.897487227789764	14.492219579091602	20.74286229404312
O	25.369220235297387	15.689891304242433	21.128982136649025
