102

O	-1.350301904936508	-2.339883195963492	2.1381695543873014
O	-0.12314018693650775	-3.7747861059634924	3.8745818543873014
O	0.8330987020634923	-5.885624745963492	3.6522737243873014
O	2.8315054520634924	-1.5388632659634922	6.579046224387302
O	-1.7819201879365079	-2.880101175963492	3.3663866843873014
O	4.062554722063492	-2.478527205963492	5.909483964387301
O	2.8110796720634923	-0.1173931676634922	6.272020084387302
O	-3.0963076779365077	-2.583099875963492	3.3676663543873016
O	3.439233472063492	-1.4072961659634922	-2.0621186756126986
O	1.5269548320634923	-1.9785631459634923	5.898296884387301
O	-3.883194077936508	-2.0471412159634923	2.3829696343873015
O	5.605840272063492	-1.8921485959634923	1.6076976243873016
O	3.9098562220634925	-1.9302589459634922	0.4211127083873015
O	-3.283312807936508	-1.2545199159634923	1.4805918543873016
O	-2.1508201779365077	-1.8150597859634923	1.1246614743873016
O	-1.4845055879365077	-4.215883505963491	3.9073016343873013
O	0.8159878520634922	-4.667626105963492	3.5303323243873015
O	2.0973433820634924	-4.050264835963492	3.3218097943873013
O	2.273490832063492	-2.9551589459634924	2.5008055943873013
O	3.578113502063492	-2.5569190559634922	2.5836102943873014
O	4.350558962063492	-3.1385996959634923	3.5387593443873016
O	3.777377122063492	-3.302707675963492	4.759117184387302
O	2.460458202063492	-3.5551263759634923	4.583915664387302
O	2.3984793820634924	-2.212640035963492	8.113796864387302
O	5.496905962063492	-2.4999441859634923	5.987180124387302
O	-1.6300067179365079	-5.526740065963492	3.2773166343873013
O	3.8485044720634924	-2.7551988959634923	-1.5656477356126983
O	4.962485542063492	-2.648392685963492	-2.545349705612699
O	2.792671912063492	-3.745056765963492	-1.5168453156126984
O	-1.059771404936508	-4.8463313959634915	0.2709690383873015
O	-1.0252478429365077	-4.128007375963492	-0.8273917736126986
O	0.21604100506349222	-3.992749305963492	-1.3881424956126984
O	1.5189159720634922	-4.017241165963492	-0.8570709066126986
O	1.3413845820634922	-4.791726925963491	0.2472574643873015
O	0.13964456306349227	-4.928512125963492	0.8297440463873015
O	4.273115972063493	-1.6449633659634924	1.6237384443873015
O	4.738601202063492	-2.570994365963492	-0.3623507566126985
O	5.879678802063492	-2.3540407159634924	0.2674291233873015
O	-4.100005477936508	-0.7423342099634922	0.5048873553873015
O	-10.57583158793651	-2.8891648959634924	-3.770438125612699
O	-10.066989377936508	-2.141697955963492	-0.1186022176126985
O	-7.481398757936508	-0.9975254399634922	2.3255159843873012
O	-6.5477634079365075	-4.594757555963492	3.3391541443873014
O	-5.753483137936508	-6.064185465963492	-0.14354212161269847
O	-5.177596987936508	-2.8856857459634924	-2.0967447856126986
O	-6.910749317936507	-0.6755540349634922	-4.612677335612698
O	-6.597668057936508	-1.4724923259634923	-8.264782685612698
O	-3.511566687936508	-3.409869415963492	-11.540791175612698
O	-2.5764826079365077	-2.4453619059634923	-7.932775185612698
O	-2.226639587936508	1.3349971940365077	-7.580817955612698
O	0.9550444020634923	1.8704193440365078	-5.709356985612698
O	2.5459943120634922	5.118895054036508	-4.790091635612698
O	5.198423112063492	3.247626514036508	-2.7647801756126986
O	7.014032432063492	1.6570140640365079	-5.733244465612699
O	8.205719072063491	2.5386570340365076	-9.227298925612699
O	7.794194622063492	-0.5161679849634923	-11.444435575612697
O	4.930413182063492	-1.4549060059634922	-13.721619975612699
O	4.907587772063493	-5.254439385963492	-13.272513175612698
O	9.424122402063492	-11.345941825963493	-3.8649055256126985
O	8.855095182063494	-11.347867625963493	-7.639715415612698
O	3.934678072063492	-14.247004625963493	-1.4307791456126984
O	3.459607022063492	-11.698926825963493	-4.286191175612698
O	-0.09862823893650774	-12.241370525963493	-5.474233665612698
O	-2.9176453279365075	-12.027075925963493	-2.8816643356126987
O	-7.446749837936507	-9.331417585963493	-4.309082195612699
O	-5.432577347936507	-7.768926225963492	-9.141990845612698
O	-0.12118764593650777	-6.6080293959634915	-11.535652075612699
O	1.2107929620634923	-3.4599199859634924	-9.909461375612699
O	1.4997087920634922	0.13606384503650779	-11.060558575612697
O	4.407922182063492	1.8032014540365078	-9.290219035612699
O	6.813700052063492	6.7213610640365085	-7.4495603256126985
O	9.39486531206349	7.580345064036508	-2.6057555356126985
O	6.788594962063493	10.356700874036507	-2.2049337456126987
O	6.172131082063492	8.565872064036506	2.7705676843873013
O	2.6471597920634924	8.481425914036507	1.2475949243873017
O	2.0523213120634924	4.969872664036508	0.1497515459873015
O	-1.1665659419365078	3.5528514240365077	-1.3134821356126984
O	0.6217583620634923	0.14398582103650778	-1.1768291656126983
O	0.8119205020634923	0.11760934403650777	2.5042837343873012
O	-2.3715922879365077	-0.3972399029634922	4.577084674387302
O	-1.7432687079365077	0.8548586840365078	7.7933346443873015
O	-0.6864749269365078	4.200153954036508	9.113072234387301
O	2.8266402020634924	3.1656357240365076	10.182146824387301
O	-2.936045877936508	-4.758495135963492	15.242605624387302
O	-7.6990300879365074	4.060104454036508	11.673865224387303
O	-6.425831047936508	-1.3115483659634923	14.852853524387301
O	-4.799722607936507	-0.006550873263492208	11.628111724387303
O	-1.8118013879365078	1.7609704840365077	13.100894424387302
O	1.4178735720634923	-0.14301323496349222	13.509442524387302
O	5.099485242063492	0.2727097460365078	14.172324524387301
O	7.719805012063492	0.9191948940365078	11.574949224387302
O	11.458450812063493	0.23598558503650777	11.353986024387302
O	11.483204712063493	1.9912601440365076	7.982880414387302
O	4.020497732063492	5.518919334036508	6.188849514387302
O	0.7312085120634921	7.086106144036508	5.324838854387302
O	-0.9546974559365078	4.042396424036508	4.002104344387302
O	-4.3519056379365075	3.3613026940365076	2.5224233943873013
O	-6.305532457936508	3.7182690440365076	5.730293444387302
O	-5.067150787936508	7.285692384036508	6.009063994387302
O	-5.5124503379365075	7.916112674036508	2.3036542943873015
O	-9.163975647936507	6.849012804036509	2.637623234387301
O	-9.963949577936507	10.059552274036507	4.486256074387302
