39

O	24.389380886905045	13.81080221164536	23.426448964449108
O	25.82646624129446	13.915777161431357	23.62278906758886
O	26.32516713316623	12.996824246582808	22.702190305616472
O	25.889269701692093	12.518639725336023	21.4287568422972
O	26.662908864317135	12.591989798786287	20.276502592854968
O	25.97146588154998	12.163408172672934	19.146375282751176
O	24.963744076229144	11.200368369524774	19.290588452767487
O	25.03468369960804	10.47363644238436	20.437665365073123
O	25.498359368270243	11.151484874370087	21.5882046810599
O	24.027340341105475	9.482354060608248	20.78198660209602
O	23.038678247842007	10.104985009757224	21.6371921439882
O	22.912294089833043	9.638628216794237	23.106769645899316
O	21.82722978400654	10.67884808468831	23.545505610872183
O	20.9297606568993	10.154053659268724	22.4251510708616
O	20.85116795612516	11.21466760130339	21.114837708945
O	22.46714251993776	11.254726010458757	21.374960262802176
O	20.53102451990714	10.182686944127099	20.01428174715405
O	22.380660177216793	10.410213683051406	24.783339033820564
O	22.1204651553856	11.540487796223136	25.62628799108918
O	20.83609823547929	12.055530411068974	25.17345480651672
O	20.024593498331534	10.950319951065932	24.903837275321376
O	19.08025053045731	11.247235008480974	24.05795956674528
O	18.880044692264107	12.46084556105836	23.478359421564438
O	19.976036344231524	13.326782262895748	23.403477260141756
O	20.87531461318994	13.2207587874423	24.49526630507065
O	18.185577423268008	10.142657649568243	23.799911081511016
O	17.655536057316585	10.1305966464911	22.47840836687817
O	17.213121896185147	10.004997831414991	24.850481068283628
O	18.883938618838886	8.838804732167503	23.81044201755295
O	22.09883597062779	8.492041904614343	23.173627758721956
O	27.959867771348225	13.03581331156696	20.06328463057957
O	26.172129673400015	15.057011110694837	22.728138804109975
O	24.094030980443208	12.549280362142774	23.32588478374744
O	23.429073980968827	14.64720638338066	23.06673920882504
O	24.237015330790804	13.78544265687998	21.90210619112705
O	25.62053914618087	13.125752592359834	18.221176948178726
O	25.834728375375693	14.748908579302581	21.275994621966323
O	27.39200696662936	14.825525756587941	22.280180560587624
O	25.04101696533484	15.662105089382326	22.340202228504975
