110

O	-5.616079260571013	-3.799446793666667	0.15298131175942076
O	-4.638488040571014	-3.994299083666667	1.0595838527594208
O	-3.766545630571013	-3.040966523666667	1.5841058277594207
O	-3.686620050571013	-1.738310353666667	1.2105777077594206
O	-4.865241530571013	-1.5217272036666671	0.8513145287594208
O	-5.3482523605710135	-2.449067483666667	-0.16784407624057923
O	-7.070799970571013	-3.462633393666667	0.056019049759420764
O	-5.382496890571013	-0.22263699566666711	0.37501135105942074
O	-6.699301930571013	-0.19796352666666717	0.4482680037594208
O	-4.888292720571013	0.8144294073333329	1.0805376387594208
O	-5.835038320571013	0.5969543533333328	2.141086047759421
O	-6.1007363405710135	-0.7912902136666671	2.466447627759421
O	-5.572787200571013	-1.0108194736666671	3.597423337759421
O	-5.491490820571013	-1.706003283666667	4.7395883877594205
O	-6.130049160571013	-2.830946003666667	4.47082791775942
O	-6.606844550571013	-2.909698843666667	3.225425447759421
O	-7.0319663905710135	-1.8342723936666672	2.397355067759421
O	-5.448062850571013	1.500616576333333	3.270308127759421
O	-4.227359900571013	0.7341325233333329	3.116187987759421
O	-3.185384510571013	0.44537381733333287	3.6807185377594207
O	-2.8790366885710132	0.3183580653333329	5.173344447759421
O	-1.8412610805710132	-0.4909425436666672	5.50121599775942
O	-1.405490732571013	-0.9606960836666671	3.288461057759421
O	-2.4266851055710132	-1.8266062936666672	3.2370651177594207
O	-3.3135417405710132	-2.733643673666667	2.8209630477594207
O	-3.5903537505710132	-3.588526703666667	3.744445417759421
O	-0.3232166705710131	-1.7496659636666672	2.694313737759421
O	0.9541853694289868	-1.437629073666667	3.074764697759421
O	-0.49679527057101325	-3.022294933666667	3.4560817677594207
O	0.4686559894289868	-3.301894183666667	2.345581797759421
O	-0.5226980705710131	-3.7278070036666673	1.4198079777594206
O	-1.1904337475710132	-4.831862903666667	2.1000780677594206
O	-2.140039106571013	-5.799014863666667	2.0817637577594206
O	-2.5974112335710133	-6.101989933666667	3.416664077759421
O	-1.7803789835710133	-5.738218973666667	4.491428577759421
O	-0.48808867057101324	-5.668824983666667	4.1244452777594205
O	-0.1999842705710133	-5.215526073666667	2.9279825177594208
O	0.7103278494289866	-6.465512523666667	4.47527137775942
O	1.4227663594289868	-7.153354883666667	3.355218097759421
O	1.761178309428987	-5.318555643666667	4.577252657759421
O	-0.8004332205710132	-0.5150427806666671	4.55415809775942
O	-0.8962807705710132	14.101414916333333	-1.0718026422405793
O	-3.7039287405710133	11.636557216333333	-0.4324520502405792
O	-5.9590686205710135	9.270407186333333	-2.348226602240579
O	-6.301251270571013	5.619716756333333	-3.214876002240579
O	-8.707410610571014	4.882287326333333	-0.3764218932405792
O	-6.604341590571013	6.596623036333333	2.444158167759421
O	-3.2141297105710134	6.153275886333333	0.9854495327594208
O	-0.7036889305710132	8.488673156333332	-0.4480922582405792
O	1.930684779428987	10.265611816333333	1.6652450177594207
O	4.5565758094289865	9.549457646333332	5.76408488775942
O	2.5411749994289865	6.865206236333333	3.899885077759421
O	4.313292989428986	5.592390916333333	0.8179569577594208
O	3.609240359428987	1.5744328363333329	1.2430917807594208
O	5.794686709428987	-0.18069967866666714	-1.6579689422405792
O	4.3595152994289865	-3.193609753666667	-0.22219300024057925
O	6.510983559428987	-3.218427813666667	3.040258467759421
O	10.018632079428986	-2.510759303666667	4.203618757759421
O	9.928936279428985	-0.6557925966666671	7.53613799775942
O	10.105147279428987	3.0236635563333327	8.198250457759421
O	7.844882399428987	3.423571806333333	11.20965054775942
O	4.101210409428987	-6.286208723666667	13.16617204775942
O	0.6284510594289867	-7.956586923666666	13.10075854775942
O	-1.094183359571013	-4.277032523666667	14.20866084775942
O	1.6499365094289868	-1.997065243666667	15.36533754775942
O	-6.331110460571013	-0.08255718266666714	13.73001004775942
O	-3.009035577571013	1.318415236333333	12.29267254775942
O	-3.569831370571013	5.044789946333333	12.02728664775942
O	-6.508844180571013	6.199407776333333	9.78211744775942
O	-5.5806231705710125	10.334415816333333	6.341953597759421
O	-0.2344711105710131	10.793529116333334	7.7364008577594205
O	4.051587479428987	7.160044426333333	9.73531561775942
O	4.776151949428987	4.680512806333333	6.9788340277594205
O	7.649842689428987	4.391698906333333	4.546813157759421
O	8.108626079428987	0.7644306243333328	3.572264577759421
O	10.362422979428988	-2.686100383666667	-0.5162803682405792
O	13.467746879428987	-4.833125583666667	0.15034981275942078
O	10.681666579428988	-8.637258583666666	4.132958187759421
O	0.05330597942898674	8.599156846333333	-7.77263590224058
O	13.953901379428988	-8.581087503666668	-4.562533332240579
O	11.578782579428985	-8.859023533666667	-1.5576518622405793
O	8.274407879428988	-7.334184253666667	-2.569673172240579
O	8.346661179428988	-5.550390753666667	-5.8685021722405795
O	3.4492417094289864	-7.360636433666667	-6.8124910422405796
O	3.169498369428987	-3.602982403666667	-7.0549313822405795
O	1.7342342394289867	-2.2369884936666673	-3.8172356722405794
O	0.9937351794289868	1.373982086333333	-3.116480412240579
O	-0.4267335405710131	0.5909576483333329	0.21211229835942078
O	-2.921503883571013	-1.262379893666667	-1.5821197222405794
O	-6.0480046705710135	0.47221491933333287	-2.8069342922405793
O	-7.407293340571013	-2.158060123666667	-5.19974288224058
O	-6.304512530571013	-4.099354073666667	-8.21617945224058
O	-6.418376800571013	-7.534090623666667	-6.7042267422405795
O	-16.50662962057101	-4.082014433666667	-3.759728872240579
O	-11.961896040571013	-1.250158843666667	-7.0065877822405795
O	-11.093916350571014	-4.721429233666667	-8.14875053224058
O	-11.238875440571015	-7.561474323666667	-5.70053613224058
O	-10.228962050571013	-11.176511583666667	-5.354005562240579
O	-6.893381880571013	-12.430464483666666	-4.13504170224058
O	-5.628853970571013	-15.711671783666667	-2.6104343122405793
O	-2.0830604491710134	-14.185024583666667	-2.297056632240579
O	-1.6615152445710133	-6.913477323666667	-6.34283564224058
O	-1.3142520375710132	-3.851393233666667	-8.44560548224058
O	-2.5592640335710133	-1.385537103666667	-5.96033168224058
O	-2.990484249571013	2.365348606333333	-5.91834293224058
O	-5.945058630571014	2.4388982663333327	-8.32528559224058
O	-3.774121230571013	0.7767439733333328	-10.95476655224058
O	-0.7462065805710132	2.829803156333333	-9.99264845224058
O	-2.8730075105710133	5.962286886333333	-10.59550385224058
O	0.8989459094289867	5.2236319763333325	-14.610691952240579
