107

O	4.247725815629032	-0.42028936801612904	-0.2100811316451613
O	2.8231599456290315	-0.4749480280161289	0.7521633553548386
O	2.6809272756290317	1.0206238419838711	0.8039313153548386
O	2.8777532556290315	1.8427568739838711	-0.27500386064516136
O	2.5087201556290317	2.691055364983871	-1.2797309826451613
O	2.0815125856290315	3.9734518719838707	-1.7116085036451614
O	3.0590742956290318	4.889752241983871	-2.2206993946451616
O	3.9559173056290318	4.184006561983871	-3.0151731846451613
O	3.5402020256290316	3.004934554983871	-3.735396384645161
O	4.759161365629032	2.278550337983871	-4.006526004645162
O	4.894689165629031	1.112298521983871	-2.568999624645161
O	6.327805365629032	2.340041356983871	-2.3732083946451614
O	6.2184331556290315	2.712868218983871	-0.9625062686451613
O	5.647470705629031	1.864040355983871	-0.23640728864516136
O	5.503742935629031	0.607852431983871	0.4926543553548386
O	2.8323971856290315	3.133097950983871	-4.9690725746451605
O	2.9371089556290317	4.392309961983871	-5.646816024645162
O	3.5200152356290317	5.35423260198387	-5.036465504645161
O	1.6619319556290315	4.821407361983871	-6.056770434645161
O	1.4812911586290316	5.879669421983872	-6.926514984645161
O	1.0958641166290315	7.08773748198387	-6.211260594645161
O	2.8797769256290318	6.196988931983871	-7.523792374645161
O	0.7297940386290316	5.333620941983871	-8.085181714645161
O	5.079730175629031	4.677772111983871	-2.8498498446451612
O	1.3220697546290316	4.405624871983871	-2.8465654446451616
O	2.0480050356290316	1.910822333983871	-2.2223168046451613
O	1.8780963456290314	1.1989013219838711	1.9041413053548388
O	0.6583679976290315	1.056735981983871	2.4638391853548387
O	1.6996310956290315	2.646615597983871	2.0393312653548388
O	1.9715041356290315	2.729930059983871	3.4924472153548387
O	1.6401662556290315	3.833131521983871	4.3586851853548385
O	3.333526745629032	2.2067513699838712	3.459034545354839
O	3.9642672056290316	1.212172791983871	3.0890044853548386
O	3.8592270756290317	2.709178566983871	2.2759597153548388
O	4.917521315629031	3.500503255983871	1.8053559253548386
O	5.6577371456290315	3.548026271983871	3.0451632853548385
O	4.930797765629031	3.7489273819838713	4.333368305354838
O	6.438363915629031	2.277190787983871	3.211348705354839
O	4.027161555629031	4.4900816419838705	1.1715095753548388
O	4.342353215629031	4.995650091983871	0.1432964043548387
O	3.607359045629032	5.236439821983871	2.263181265354839
O	2.7324084156290316	6.313338371983871	2.3463306753548387
O	1.4661124196290316	5.676322811983871	2.070473765354839
O	1.7224424356290315	5.299344511983871	0.6562578053548387
O	0.3353728446290316	4.850352661983871	0.34061884535483866
O	-0.6368760743709684	-12.325842258016129	-3.9347600946451613
O	-1.8590931143709684	-9.760030458016129	-6.451877114645161
O	-2.339396184370968	-5.974651298016129	-6.757318074645161
O	1.0135625016290315	-5.307034568016128	-8.32228076464516
O	3.151345395629032	-6.97394935801613	-5.624095664645161
O	0.7033974536290316	-7.097708698016129	-2.7284093546451613
O	-1.4403062343709685	-9.47182235801613	-0.7480047586451614
O	0.12135460662903158	-11.33000285801613	2.1543312753548385
O	2.2138064756290317	-8.00135405801613	3.4493183453548384
O	-1.2445547943709685	-6.84128428801613	4.572057975354838
O	-0.9098913443709683	-3.021168148016129	4.527509485354839
O	-3.7226807043709687	-0.7205509280161291	5.663910955354838
O	-1.5067594543709681	2.215987233983871	4.6039538153548385
O	0.9370078856290316	1.8175317439838712	7.583646955354839
O	1.2649558706290316	1.110791311983871	11.186956285354839
O	4.430877225629032	-0.8966756080161291	11.767982985354838
O	8.283283115629033	-5.042315778016128	10.365652185354838
O	14.185258445629032	4.572786041983871	10.282990185354839
O	11.483622645629032	4.531474851983871	7.6215144953548375
O	12.303175245629031	6.3940157119838705	4.349152565354839
O	13.574324045629032	2.8136654329838713	2.7643728353548385
O	13.98187664562903	0.28507968198387124	5.507614945354838
O	13.929611745629032	-0.9411884080161288	-2.769480784645161
O	11.52990354562903	-2.128362968016129	-0.04707227464516128
O	9.951959025629032	-6.845545478016129	-4.072963094645161
O	6.463039005629032	-11.147654258016129	-4.104767394645162
O	6.555816315629031	-11.849784258016129	1.3153050153548387
O	7.648354435629031	-8.37745255801613	6.018510525354838
O	4.7658887856290315	-6.00751442801613	6.420251805354839
O	0.8086642726290316	-2.173297658016129	9.166089585354838
O	-3.401359964370968	1.6246438899838709	10.398073885354838
O	1.5231221236290315	7.290434981983871	11.741521285354839
O	3.6867569056290317	4.628430391983871	13.364202785354838
O	-4.243404484370969	7.854696771983871	11.522548985354838
O	-4.567871954370969	6.421041351983871	8.037604675354839
O	-7.942204994370968	4.913978051983872	7.272793165354837
O	-7.550184534370969	6.883207841983872	2.3317059053548386
O	-7.969428424370969	3.1800034029838713	1.8445775453548388
O	-4.610444834370969	1.5537356589838711	1.2817208953548387
O	-4.118837694370969	-2.2133313480161285	0.5617282153548386
O	-0.3310460373709684	-1.351968658016129	0.1668372053548386
O	-0.7504908743709685	0.7523899319838709	-2.8411223446451612
O	-1.5780913243709684	-0.9205118880161289	-6.152648164645161
O	-3.3848255743709683	1.868472537983871	-7.944082044645162
O	-6.443195844370969	4.027493321983871	-7.485359504645162
O	-4.619640824370968	7.30752175198387	-7.013987984645162
O	0.04006136662903159	3.985138691983871	-16.410213914645162
O	-4.258438784370969	1.2886781019838711	-12.833277814645161
O	-5.318607294370969	4.834263021983871	-12.065448414645163
O	-2.6840348843709685	7.447497381983871	-11.478006314645162
O	-2.2219050943709684	10.973937011983871	-10.131045414645161
O	-1.2597269443709682	11.72505865198387	-6.558305964645161
O	0.1823764336290316	14.81255454198387	-4.9115481246451616
O	-1.0328694043709685	13.41790994198387	-1.5440238026451614
O	-5.666661724370969	6.514900961983871	-2.4502538846451616
O	-8.02726320437097	3.617486951983871	-2.8206031746451616
O	-5.415230954370969	0.990355241983871	-3.5001038846451613
O	-5.595253254370968	-2.7156141080161293	-4.134531584645162
O	-7.200156644370969	-2.5198346980161292	-7.561591684645162
O	-10.145788254370968	-0.7103007180161289	-6.036000814645162
O	-10.291014054370969	-2.9892750780161292	-3.032619354645161
O	-10.445865754370969	-5.999135228016129	-5.378633204645162
