32

O	27.784071653927374	9.504389066598021	17.71510516247335
O	26.610794663176847	9.651494463829497	18.957637970232394
O	25.25822573018159	9.755482514676636	19.264447650103083
O	24.61922332192028	10.409586738731452	20.321526914363687
O	25.54665663289785	11.278760953276814	20.74903503496006
O	26.668504907197025	10.616381713699786	20.796751444776863
O	27.334310263231767	9.659778867236252	20.15675144549242
O	26.839978783505792	15.617887096215833	22.322386576352848
O	28.022805421755013	16.085211695992953	22.523319280871988
O	23.706395428481848	11.121865489898989	21.1774846768781
O	26.25008667516249	15.273167928917326	23.559707096789353
O	23.673271405202584	12.349339661174165	21.822196861870776
O	25.96995176221631	13.383775720978672	19.280984063364297
O	24.653759892151236	13.31349474741723	21.405222665001357
O	25.633138204204172	12.590949834963695	21.274384425260898
O	25.101648374583306	12.889649392040866	18.369305297508973
O	26.826702835434414	13.357850175476369	21.703717253310217
O	26.710266218253647	14.742898364612198	21.252842902496997
O	25.85794370589054	14.704592111137366	20.065227604660908
O	25.695706354880475	12.20100566463789	17.31435018472521
O	27.254487097846482	12.803605202180158	17.376602807670118
O	27.043312059502473	12.594733487625186	19.036262934532466
O	28.315135879915285	12.453482991655463	19.660070948174013
O	29.121459384075955	13.574340213856043	20.04971459533468
O	28.602704367154015	14.852340774639856	19.539822465078274
O	23.743617200509007	12.51088347739413	18.48798210151131
O	23.022995421190252	11.509191753142915	17.906148486296345
O	21.859015709463254	11.211862123925902	18.680776403360472
O	21.628048386862933	12.310863127215606	19.248146241904774
O	23.082133809118993	13.683319991916846	21.709565463522654
O	24.076826228277433	12.598661461255894	23.287277291513714
O	22.61656092235087	13.32795919346469	18.83499822231839
