30

O	27.895148526307697	8.455589940197001	18.491337975777146
O	26.806573053155493	9.411144563851986	19.408909401489506
O	27.688823287784565	10.011326716455565	20.243405241172372
O	27.05120539142941	11.065456834947447	20.54895414500151
O	25.813048559466353	11.44326371057775	20.717675834759152
O	24.872028475940205	10.493412209711765	20.54279488662099
O	25.45566715213852	9.599632590399752	19.688887022244398
O	25.876817077217336	12.804760768154205	21.04895693474711
O	24.90917296411398	13.530448566645493	21.237511375088225
O	24.026340101856785	12.54040592252964	21.90356373865168
O	23.950121493598136	11.236420084652586	21.3722544647076
O	27.163725963598115	13.552998116829624	21.211044297434608
O	27.146594762945252	14.771138967577562	20.507344935199885
O	25.99292437367624	14.62024536872024	19.517546781475485
O	26.012607611099483	13.168194867105111	18.91513213613212
O	27.21529346392218	12.876189109917405	18.27196771752215
O	27.09618045482179	11.537052282300728	17.271653573299915
O	25.489938642897414	11.434554380570093	17.429838533970223
O	25.08986810173736	12.481574407405043	18.23867333294645
O	23.71927040138366	12.261234863229367	18.589316848201516
O	22.850074099822145	11.276148580366334	18.207339155237392
O	21.720790584245446	11.25659412823454	19.07638203335445
O	21.688538207271343	12.42655908239876	19.52162264523465
O	22.724108001022437	13.269433376891138	18.89097487943977
O	27.14824754927152	15.656841972753417	21.664764940436076
O	28.347366716580048	15.878700973643006	22.074679358851856
O	26.28328819237299	15.555038720263394	22.766591963452633
O	23.2259888940438	13.73671953050392	21.88618416895269
O	24.577097091948477	12.900842772095398	23.288705371978455
O	28.910006678587937	13.138070887704334	19.009769566915832
