40

O	23.83532094924435	13.393727440190233	19.33072414321294
O	23.219609189346304	12.234657999222474	19.87086185153758
O	23.99159093373196	11.143904381456004	20.260183119757237
O	25.32337941605408	11.35649322187597	20.044641019266713
O	25.872076179852172	12.24580089901611	19.16070171038419
O	25.188221763461154	13.45634145833621	19.13817659472844
O	23.437593680744357	10.006257997478144	21.058544092230733
O	23.191979050654847	10.867644345061123	22.23620599703438
O	22.898577556088636	9.930359693825363	23.33613245669416
O	22.61830565572586	10.929110750980747	24.399734201597475
O	21.513162818763576	10.134603246684417	24.84187641311258
O	20.836254729041322	10.968824722099216	23.945623286099043
O	24.102783915149814	11.860813433646284	22.67883053709366
O	23.610809257917538	13.032837645407128	23.270743047729027
O	24.047502709461266	13.63400841214443	24.543406554462848
O	25.365347777943576	14.20669895171006	24.189153145247268
O	25.734859295973617	14.238276619971568	22.76114214726392
O	27.1743934782462	14.533145288247173	22.776664672288845
O	27.630314550324123	15.260404816817694	23.658458295456285
O	27.987479259142177	13.690286174380116	22.12151378271691
O	23.09617820407286	13.857249277392892	22.50024206132535
O	20.886538399280663	11.445755702400135	22.649427518713935
O	20.360623412124603	12.608895167294122	22.001294193171606
O	18.89948880542128	12.397221242138443	21.768190653400033
O	18.512098420196963	11.661345316877753	22.996789340577983
O	19.511524962157306	10.650832698822727	23.337422024285942
O	20.750692438082446	12.194081506955014	24.815910497994647
O	20.178211407038177	13.246034366850449	24.205733099650832
O	19.349147680491146	13.981558090852767	25.12266354427086
O	18.592361061278545	13.143822318985109	25.975359281485478
O	19.0463818560064	11.866314615727084	26.37554322561509
O	20.407565297714893	11.708121150490701	26.115364998275602
O	18.028772447093267	10.803447861482628	26.29027861281392
O	16.92536090335054	10.912840324426323	25.326719997997188
O	18.523218929472172	9.43755619670248	25.9646818509772
O	17.429856515672373	10.5744468623466	27.55084278371754
O	22.0032587233803	8.9871603776498	22.962647650600506
O	25.179376338279358	15.36940763257702	22.198199755490677
O	22.982830114419976	14.360207520389018	18.963013457301695
O	26.810487932690762	11.902486536515688	18.226449538835347
