80

O	-4.193254070978724	-4.702448434489362	-4.985709928468085
O	-1.961255450978724	-2.027940144489362	-1.4758189410680846
O	-3.969446997978724	-3.4306202644893617	-4.539648258468085
O	-2.271596974978724	-3.3211833444893615	-1.2650922644680844
O	-5.488061840978724	-5.217794364489362	-4.859067018468084
O	-3.274437443978724	-1.1603633694893616	0.2515148015319155
O	-6.181660000978724	-3.370867304489362	-3.7788055584680844
O	-2.396727808978724	-0.9520350704893616	-0.6923033104680846
O	-4.896574900978724	-2.8574846744893616	-3.7497320884680843
O	-3.485266928978724	-3.3747981244893617	-0.6865908124680845
O	-3.841686987978724	-2.3986613344893617	0.21258550153191536
O	-6.310107290978724	-4.765517754489362	-3.815430438468084
O	-4.787096260978724	0.5132964595106384	-3.0162340784680843
O	-3.604830252978724	-0.7007259104893617	-4.691560598468085
O	-6.221938350978724	-0.6619807894893617	-4.208065108468085
O	-3.820131089978724	0.38711408951063836	-1.9752387334680845
O	-2.471124843978724	-0.8009945624893617	-3.656835468468085
O	-4.790984070978724	-0.6949077714893617	-3.7973351684680843
O	-1.1727789609787238	-1.2003933344893616	-4.182629448468084
O	-7.182416190978724	-1.8499279044893617	1.8011927115319153
O	-5.186913670978724	-0.5741162384893617	2.2884699415319156
O	-7.965549360978724	0.3264201925106383	-2.6433559784680845
O	-1.8050477309787238	0.16334685551063832	-1.5077509124680846
O	-5.683722610978724	-1.9166401344893615	1.9028820115319156
O	-4.587348680978724	-1.7147456444893616	-2.8663533684680846
O	-6.995839690978723	-0.5914430954893617	-3.0370597884680848
O	-2.586320144978724	0.1941411205106383	-2.6832961084680846
O	-6.137030830978723	-0.3494101934893617	-0.7719995544680845
O	-6.836709640978723	-2.4952860344893617	-1.4551151988680846
O	-4.2781535709787235	-4.173372364489362	-1.4459262088680847
O	-5.007130540978724	-2.6456931144893616	0.9442069715319155
O	-6.017907840978724	-1.2734873444893617	-1.8336310244680845
O	-6.827898090978724	-5.532482714489362	-2.8455483984680843
O	-3.447820337978724	10.18032243551064	0.5644718415319154
O	-6.566014800978724	8.119630165510639	1.3100253215319155
O	-4.999782880978724	5.663787815510638	3.7485525215319155
O	-1.359164340978724	5.931090555510638	2.7302966815319154
O	1.9134967790212762	7.354018825510638	4.038341581531915
O	3.237181409021276	1.7879116055106383	4.151221171531915
O	5.763189979021275	3.4319910255106385	1.7054900215319153
O	4.679856079021276	1.7971579455106383	-1.6599389144680845
O	6.569376779021276	2.5959678155106385	-4.902672948468084
O	4.047298059021276	0.4201903065106383	-6.735031558468084
O	5.1477491390212755	-2.979747964489362	-5.325840608468084
O	8.417576179021276	-4.792414794489362	-4.457188778468084
O	7.836275679021275	-6.794381844489362	-1.2382025954680844
O	5.649746339021275	-7.482546904489362	4.168836111531915
O	4.4020448490212765	-7.0143788744893625	7.705387051531915
O	-0.1724185009787238	-11.995666664489361	-3.0625450184680845
O	-3.665564794978724	-11.741505364489361	-4.399505468468084
O	-4.984872570978724	-10.56120856448936	-0.6435545204680846
O	-2.308915086978724	-11.414583664489362	1.8822485915319154
O	-0.501759450978724	-14.654159064489361	2.5027526615319156
O	7.221232879021276	-11.622227064489362	4.366860171531915
O	-8.410066680978723	-10.323114664489362	3.279273881531915
O	-9.247256460978724	-6.5985414644893625	2.967133381531915
O	-5.4531219809787235	-6.061044324489362	3.6142645815319154
O	-5.300761900978724	-3.7611314944893617	6.419376661531915
O	-7.231789570978724	-0.5003571764893617	6.436514661531915
O	-8.997391840978723	0.2866754715106383	9.781143821531915
O	-4.550988680978724	3.6725414755106383	8.708633921531915
O	-2.203698656978724	3.082964595510638	11.633729121531916
O	0.09241238902127602	0.9890878855106384	9.375409821531916
O	0.914654559021276	-2.6658775244893618	9.928797421531915
O	2.8522525490212765	-3.532845224489362	6.812444261531915
O	4.0938867490212765	-2.4293422844893615	3.4498064915319153
O	7.587284879021276	-2.2394744144893615	-1.7021659654680845
O	9.547567879021276	-3.309087194489362	-12.963900978468084
O	7.086645879021276	-0.6873123584893617	-11.771969078468084
O	2.7444745990212764	4.772443465510638	-7.319342398468085
O	2.7014296890212757	6.144192265510638	-3.7322245384680848
O	0.559357089021276	3.3154965455106384	-2.8328908284680843
O	-2.384823041978724	4.563383565510638	-4.960302528468085
O	-4.458985680978724	7.491106085510638	-3.7374909884680845
O	-5.685754570978724	8.97415550551064	-7.040399008468085
O	-10.408614390978723	8.02137566551064	-11.661654878468084
O	-0.7609307009787241	8.29411166551064	-7.124950608468085
O	-0.3713269409787241	10.069207235510639	-3.8117452584680844
O	-2.500742680978724	13.103324935510638	-4.641508408468084
O	2.907576139021276	13.098814035510639	-5.555985878468085
