32

O	21.84959349382177	9.429022562490637	22.814338359656357
O	23.722053935504857	11.363465834587753	18.57464493693807
O	21.442266285384118	13.504429832577024	23.09460969627237
O	24.376950163341316	11.08281690497973	19.773228679863387
O	22.276915055284388	9.44921694930306	25.18385776280099
O	23.56449433085301	11.156898591880754	20.88440504039475
O	22.431530850168542	11.503076618946697	23.86853260126363
O	22.32854980787821	10.63612969677424	20.66209408559554
O	19.403903769215564	10.55392606025135	20.947445868285207
O	21.393305401398347	10.201750351798626	21.717911901188764
O	19.051859537673266	9.986514654248698	23.133590890133426
O	22.17610811231529	10.095532940493635	23.888111844143967
O	18.3322797749896	11.828675417356127	22.661855451947517
O	22.758650547969427	12.202453158264579	25.08330225659551
O	29.209607163934855	9.801882210412236	22.856232842813988
O	21.7031231671251	12.262821621474775	22.93133371438299
O	20.705309462707927	11.539119064937111	22.166472696213688
O	20.221664187754282	11.770197530969192	20.859468418835114
O	20.346703382446222	9.509335959763384	20.79403884035465
O	18.39599864956658	10.620950305463776	21.95248590405097
O	18.411636905836012	10.573676517468988	24.233137053358174
O	16.991433081110163	10.41723721175045	23.685698031581484
O	17.79267436251707	11.708688333806638	23.860510611074012
O	25.788302662257202	11.382865808033884	19.955370519473103
O	26.49709963380573	11.038260575087318	21.114400036594407
O	27.87956108387338	11.206736790524541	21.178589691698022
O	28.476940734569027	11.573620866985205	19.975709723713862
O	27.744150684213576	12.118285740897758	18.922091562334003
O	26.413766920111104	12.402728933824909	19.245545226131174
O	28.57172694803598	10.209788252491126	21.968980558136803
O	16.249729002259144	9.602210383995413	22.90651999244784
O	22.075135769260534	11.110003749922331	19.02236142268185
