29

O	18.964230875713554	11.725942941084929	20.04855658792293
O	18.19208945576885	10.65510119732487	20.30368575609514
O	18.867576104783417	9.431955816520375	20.333668838760538
O	20.161292651403556	9.577857176003313	20.855941653665766
O	21.00424735203448	10.628894584535608	20.470385505956802
O	20.27484111966708	11.481309904590992	19.608362721063685
O	20.64759476464341	8.8890329540067	21.900464146082378
O	21.12530736633188	9.554317389932605	22.940828047049347
O	21.19636896655241	10.90938841617138	22.8828187134223
O	21.494818442355033	11.342431715715783	21.59676321831325
O	18.41565618372161	13.05334939870767	20.14571038623125
O	17.33882616591111	13.258202043698262	20.94816849832358
O	17.125742804182345	14.520639583412853	21.41759486797684
O	18.16724172213166	15.404481884192212	21.330459244321293
O	18.92079005546295	15.294123515389451	20.19408224845317
O	19.338544892134102	14.062739552724693	19.84893811752713
O	20.725140114969822	13.755857343500347	19.37766821409752
O	21.755350886377446	11.912367246841898	23.781166338318272
O	21.19910854039829	13.272919962507675	23.351059322981044
O	19.80027662654665	12.947606372372327	23.79949715714931
O	19.57224235244353	12.152622624799548	24.992343311736562
O	18.972533030406474	13.84376194846269	23.754604586422033
O	18.48063169318784	11.282695739575686	24.936013474394233
O	20.912659272821685	9.22215578337767	24.2871083887309
O	17.917146734562248	11.186521660350328	23.55180939830267
O	16.450302352024156	11.444129586902728	23.63039465945312
O	15.679600385392675	10.783399771592194	22.54112618356354
O	16.06243806827611	10.739050068527622	24.926092605052098
O	15.980365192827549	12.822902463774248	23.982442728307372
