41

O	21.583367206569854	12.835295571721096	25.33257151181165
O	21.339410483317735	11.41004976472788	23.308094024524543
O	27.488482479742178	16.10294008416201	27.40628415742932
O	20.793158874014168	12.495207626657324	24.16039038500922
O	24.907771437900443	11.713551027106679	22.663960861161495
O	23.495424577820252	13.62949493104044	22.66445950062462
O	20.535627936408893	11.858465228108855	25.567044758793745
O	25.94201795246893	16.056139983332443	26.64955709362979
O	23.037584302818924	9.053857439667693	23.123429121818624
O	22.699081413287942	11.263281549842942	23.694456007044536
O	28.489666439284957	12.65727466035694	23.22728096293693
O	28.017222973770888	14.247031183962083	21.67080268113192
O	23.205029547981546	10.298892086801976	22.708565862658595
O	27.463985838791523	15.351996909597698	28.613258135334434
O	24.146031565098475	10.895083510119699	21.793980585550337
O	28.45763097971257	15.12752688485461	26.772652019052583
O	24.259467284102286	12.81999247632837	23.31261283241977
O	25.11527275095523	10.15915080449018	20.94291658188425
O	25.005031394174647	13.561702541722417	24.24324015323641
O	25.886645086442492	14.0620180618331	23.244446528379548
O	27.050392883278644	14.439321814073498	23.744198247009496
O	27.021846680464712	14.85634415749411	25.000701807946744
O	25.837737058587457	15.166159757438656	25.593553333661472
O	24.764759458544543	14.43093769753192	25.233725928084848
O	28.113052152625063	13.973606052502195	22.91003836800465
O	25.231621173085323	17.299443410063432	26.248634513317366
O	29.862920941747273	12.414352377139554	22.788428030745028
O	29.874646153456275	13.127539438773674	21.407366177215327
O	28.21332315038823	17.584677662003266	26.972751634548604
O	26.820661705453425	11.893735589425244	20.056832569745055
O	28.052853188314366	11.929814668826735	19.400607473140376
O	29.109628217511588	11.05915824447927	19.64380183721223
O	28.88801293075337	10.246873905051725	20.68099405142089
O	27.654521770475334	10.328899593005096	21.272257653386774
O	26.458922456325173	10.77181355231912	20.717891631213377
O	30.5822388771591	13.468616441567214	23.680964517378854
O	29.95921487448485	14.617866048326578	24.21995193088996
O	29.927925095746353	15.893451385469609	23.6177901480234
O	30.554104053046615	15.760893506996897	22.368194121232573
O	31.682635144595423	15.018676945120225	22.454512002871514
O	31.811132339746774	13.936462510628495	23.336381177746212
