96

O	2.4627705825714274	-3.2346117383749995	-0.5090527855357141
O	6.847749902571427	-5.444446418375	-0.10737001053571416
O	6.945403592571427	-4.6428782183749995	4.121595358464286
O	7.288248992571427	-1.6049507283749995	1.6618812684642856
O	1.4131973695714275	-4.116751718375	-0.2047557525357141
O	-0.8621446674285725	-4.742522568375	2.463424158464286
O	-0.02698445142857253	-3.9912528983749995	0.32157972846428595
O	-0.016849395428572556	-3.9798659783749994	1.8144098484642859
O	-0.7463011174285726	-4.100823808375	-0.9283048816357141
O	1.4944841145714274	-3.969471518375	2.079556818464286
O	7.591759212571427	-3.6366070083749995	-1.046368585535714
O	2.1088809625714275	-2.4185134183749994	-1.358106156535714
O	3.8963093925714274	-3.1259692783749995	-0.5591295535357141
O	4.708415562571427	-2.1351236183749998	0.08825588146428587
O	6.028281762571427	-2.1807757883749996	0.10490771846428582
O	6.589577902571427	-3.4262010683749997	-0.14699425653571407
O	5.801185262571427	-4.580287338374999	-0.15973081253571408
O	4.5429978425714275	-4.277744188374999	-0.2712813285357141
O	-0.009317807428572578	-3.8547495283749997	-2.223892181535714
O	-0.40870677742857253	-2.9247891283749996	-3.2145183615357142
O	0.5105754985714275	-2.3521252883749995	-4.123677121535714
O	1.6064249035714275	-3.0781831583749995	-4.453330841535714
O	1.9024812445714274	-4.168521168374999	-3.6994747915357142
O	0.8755656065714275	-4.7190058883749995	-2.877364051535714
O	8.120829682571427	-2.8563836183749998	-2.224818041535714
O	2.6527551725714273	-3.461308928375	2.2601525384642858
O	-0.9482658374285725	-3.0667822583749995	2.216510348464286
O	4.428325722571428	-2.8401173583749997	2.386230988464286
O	5.143662252571427	-3.0491979683749997	3.654272188464286
O	5.868711862571427	-3.923092738375	4.671312998464286
O	6.141350822571427	-5.093252158375	3.047974328464286
O	5.326390842571427	-4.023125348375	2.6188571884642857
O	7.433800672571427	-5.028415498375	-1.2699299065357141
O	6.925586262571427	-1.0882076223749997	0.35541840846428585
O	8.104180322571427	-1.0987006083749997	-0.9038624568357141
O	6.731355352571427	-2.1447710483749995	-2.355303791535714
O	6.407959662571427	-6.8757578883749995	-0.09829679353571408
O	5.202582172571427	-7.113043528375	-0.9628240227357141
O	8.001518352571427	-0.22121961347499972	-2.018724651535714
O	9.061562562571426	-2.0809134483749996	-0.5086457205357141
O	-6.904467187428573	3.4470149716250003	-9.772710821535714
O	-3.3330447074285723	4.771856191625	-9.433665681535714
O	-0.3161357774285726	4.608835501625	-7.080061201535714
O	1.4548909805714274	1.7045354516250004	-8.757558081535715
O	-1.5176565774285726	-0.7037595843749997	-8.833890551535713
O	-3.611768387428573	0.6615055026250003	-6.0133998815357135
O	-6.912156707428573	2.5320403716250004	-5.517725311535714
O	-10.055911977428574	0.4353024136250002	-5.238480761535714
O	-7.988442197428572	-2.5851956483749996	-2.9044142915357143
O	-8.374802187428573	0.0846179546250003	-0.28954232453571416
O	-5.643153147428573	-0.8661680913749997	2.130793518464286
O	-5.175068607428573	1.1984467216250003	5.275149608464286
O	-2.2057681674285723	-1.0371048063749997	5.907086688464286
O	-3.9937323974285728	-4.3526337183749995	6.5570619784642865
O	-7.126002607428573	-5.483592058375	8.491651408464286
O	-8.607716157428573	-8.312536248375	6.473167658464286
O	-10.464095577428573	-10.659759688374999	1.5334316184642858
O	1.7528759605714275	-14.986548488375	3.4416399984642854
O	0.5512719545714274	-14.823852388375	-0.5516023005357141
O	-3.107467807428572	-15.611894788375	-0.5304663805357142
O	1.3265927635714274	-12.877958788375	-6.959141391535714
O	-1.6447813074285724	-11.319572688374999	-5.137206781535713
O	-2.4665956774285727	-7.547554388375	-10.328222871535715
O	-5.532407757428573	-3.3254288683749995	-11.646111851535714
O	-9.944471777428573	-8.130397728375	-3.2578032815357143
O	-8.334800477428573	-6.186250248375	-0.4509438745357141
O	-7.968639907428573	-3.9975437283749997	5.079749738464286
O	-6.727322977428573	-0.9577521003749997	9.836607048464286
O	-1.6887098774285723	0.023721882625000273	11.905880648464285
O	-2.5064585974285727	3.7234199516250004	11.501475648464286
O	2.5143081425714273	4.156139641625001	9.327889948464286
O	0.08165383157142747	5.603817341625001	6.724200828464286
O	-0.5589651974285726	2.9051432816250005	4.076880278464286
O	-2.7741366474285725	3.4414375716250003	0.9607473984642859
O	-1.6591123674285724	-0.1662460863749997	-0.035888159535714115
O	2.0638170125714272	0.8644182316250003	-0.5824874995357141
O	3.0777721725714273	2.6896466016250002	-3.5758569815357144
O	6.207923762571427	4.080813231625	-1.9626156415357143
O	7.338199572571427	6.561803251625	0.6768523684642859
O	9.281557212571427	3.5353357516250004	2.4261447184642857
O	13.738343622571428	2.3834842716250004	-7.162027261535714
O	9.209357082571428	6.205455141625	-5.323357461535714
O	11.133089422571427	6.328248601625001	-2.061365461535714
O	12.606506622571427	3.144334391625	-0.7673472645357141
O	14.204296222571427	1.6777260816250004	2.2556547284642856
O	12.282875722571427	-0.5972868693749998	4.341060388464286
O	13.611379822571427	-3.0803354983749998	6.6930292684642865
O	10.180823212571427	-2.7371159583749995	8.064981498464284
O	5.685176902571427	3.7787372516250004	5.1951192484642865
O	3.7179782525714273	6.812427401625	3.9326966184642855
O	2.2906376125714276	5.330043381625001	0.8086205684642859
O	0.1282130505714274	6.248863221625	-2.063204721535714
O	2.6447544525714273	8.645937161625	-3.6388142115357143
O	2.7050596325714276	10.675134511625	-0.4221619325357141
O	-1.0621727574285726	10.347103011625	0.09862420846428599
O	-1.5833894974285725	11.739142211625	-3.418123391535714
