52

O	22.008313328242288	16.475479503317434	22.894663616465724
O	22.34611922338503	12.778877861389498	24.393280385416958
O	22.580904924974583	10.177342424736308	21.552535039798112
O	24.433590050041765	11.436852715065417	22.64199743862916
O	25.040216055173143	12.866122091525302	21.379861775808887
O	21.76380689778683	15.004386294441858	22.877819790805997
O	23.718383334519434	15.133926588096262	22.435196422619324
O	21.204878343304596	14.250172526679265	21.735446886472886
O	23.664209838111113	17.880923427525676	22.424068996039992
O	19.947211167008987	15.099809313278342	21.379635910379818
O	23.982556610741835	17.327244959762368	24.469905602867
O	22.114547962064915	14.662340060770271	20.553657528130273
O	23.096302557543726	14.553486609226727	23.401071724191443
O	23.21614133069417	17.115417080060617	23.404885072879292
O	24.146627972044826	17.770556557740242	25.748923289642445
O	23.503141413270566	14.28739698771782	25.955427168019344
O	23.569678003795563	14.913663354731517	24.674418493518854
O	24.437697222196576	12.638653333757745	24.985053855101093
O	22.326957964394143	14.29376705569635	26.863897189034216
O	20.17656585066944	14.091067147596139	25.19194657171643
O	20.64288284335829	12.76863434587349	26.61851992357052
O	21.048156958834213	13.890893593497088	26.267820658314196
O	19.12907370088298	14.99941098550573	24.961225974301826
O	19.84283056411464	16.273851537838887	25.114678562208404
O	20.911536209812645	16.219140526491113	26.06419624559613
O	21.924723348670014	17.037675866484356	25.380243710081224
O	22.83318258481697	17.518951584437712	26.37873553398606
O	23.30338064970193	12.89814165486878	25.372342501002663
O	21.37030145345633	9.544522092482689	21.948937496461664
O	21.81947396417972	11.625665328176607	23.980876267349583
O	22.950994788929364	10.726058576648828	25.927793203247983
O	22.29144580499483	10.566388349302688	24.770335306200085
O	20.711471426465728	10.070681869919687	21.11165850754114
O	20.843834357598908	11.855938936238676	23.168546729114716
O	19.468449112003732	12.17564854554752	22.906429225552518
O	18.771717481552926	12.051387779402818	21.592512429056654
O	18.306319170644578	12.078367550027277	23.806451895875192
O	22.35693282872194	9.480232485450882	23.913999932746556
O	20.990328638471304	9.512454331350918	23.31459190425332
O	20.07969021268487	9.422030883862002	24.379172633985657
O	22.79816297679034	11.513765714064345	20.981442565178412
O	22.340629097813522	11.307087785851039	19.64709943796151
O	23.454128840961907	11.654106264550771	18.66473010764828
O	21.080217278338434	11.88937837527823	19.123156793404338
O	23.86512694093036	11.990371584918206	21.71766427274095
O	25.987075782260778	13.34629469308249	22.310895346186925
O	26.57848968069819	14.463933420361144	22.895932413713496
O	26.44636715523982	15.380160664753628	23.943898838316272
O	26.690525926259724	16.747460830965405	23.788451475771698
O	26.839838821836693	17.227835459997923	22.48027986757666
O	27.73235624455989	16.37710715524792	21.807559674271715
O	27.656501462480353	15.055175153974997	22.245710555453893
