71

O	3.9876864172	5.169415778818181	-0.9191133533636366
O	2.6838019572	5.508286418818182	-0.5735584573636366
O	4.096846767200001	3.9408448288181814	-1.5753827573636368
O	1.7041172472	4.564756888818182	-0.6655928673636367
O	3.2574348771999997	2.9281084788181815	-1.0869773823636366
O	2.0207611272	3.2160456188181814	-0.5196604333636367
O	3.6940111472	1.6548367948181815	-0.8803349993636367
O	1.5149222472	2.3614491388181813	0.4131324866363634
O	3.3849748872	0.9069963888181816	0.1772923586363634
O	2.2334151172	1.2799751726181816	0.8565214326363633
O	4.5237972272	0.2525815658181816	0.7875472826363634
O	2.3062909171999997	1.0662184368181815	2.2498813026363633
O	5.6605298372	0.14175675881818162	-1.1921577803636367
O	6.0334216472	1.3907577148181816	-0.45568197936363664
O	5.1470937572	-0.7524238511818184	-0.11812642536363663
O	5.815229517200001	0.9926526498181816	1.0341206726363634
O	-4.8828720028	8.741580438818183	1.3393345626363633
O	-8.5289537128	7.651134708818182	1.5859091326363632
O	-10.4127338228	6.838534748818182	-1.5959640473636367
O	-9.6345902028	5.097201478818182	-6.158351377363636
O	-7.1293829228	4.934489878818182	-3.2700542073636365
O	-8.0627950728	2.191582048818182	-0.7536930643636366
O	-4.7394852328	0.3949181788181816	-0.16858900336363664
O	-4.4353171428	-2.6450034711818184	2.1037890526363636
O	-0.6673179228	-2.6064869111818183	1.4894199226363634
O	-0.6503930848	-3.6019673011818183	-2.1989267973636366
O	-2.4639545228000004	-6.0319578611818185	-4.490940037363637
O	-2.9877892928	-4.329039491181819	-7.857079807363636
O	-6.0069498428	-2.469504681181818	-9.153154097363636
O	-4.3027551328	0.2637941888181816	-11.204297247363636
O	6.3202538572	-2.3237834511818183	-13.903325747363636
O	5.9504392872	-1.2092191311818183	-10.291773847363636
O	8.8632242372	0.7333386008181816	-8.757891717363636
O	6.9588392972	4.239475388818182	-9.820187407363637
O	4.184363917200001	3.4868705088181815	-12.262379247363636
O	5.9452831772	10.58096678881818	-8.056252097363638
O	2.8355827371999998	8.356014098818182	-8.050867117363637
O	-0.3181443828000001	13.193485638818181	-5.456528657363636
O	-6.0648791528	5.069870688818181	-9.188775497363636
O	-5.2230005028	2.5805915088181814	-6.444940077363636
O	-7.1964794227999995	-0.4516319611818185	-5.180887367363637
O	-4.7596925028	-3.0211129211818184	-3.8011267873636365
O	-3.8708386728	-7.417942531181818	-0.13947980936363663
O	-3.0991387828000003	-10.915833461181819	-1.4357577673636366
O	-1.9683733028000003	-12.203514461181818	-4.828148407363637
O	2.5171964672	-9.54674506118182	-3.7139042273636367
O	0.6562513092	-8.708078851181817	-6.923807387363636
O	2.7457781571999997	-7.480130611181818	-9.898215147363636
O	-1.3733856528000001	-14.113398961181819	3.4139599026363636
O	0.6827671472	-11.648002361181817	1.3469687226363634
O	0.5781015251999999	-8.262745751181818	3.0699858226363634
O	-1.9082239428	-8.190198461181819	5.969487342636364
O	1.6884549671999998	-5.016167471181818	8.415348802636364
O	-1.6350530528000002	-3.0762680611818185	8.455724762636363
O	-1.3828209328	-0.6069533611818183	5.5647745026363635
O	-3.9604807828	2.0575713218181817	4.7045571326363635
O	-1.6782732728000003	3.2415977088181815	1.9202829726363635
O	0.9971591731999999	4.482969838818182	4.342618002636364
O	0.3880658931999999	7.624562108818181	6.333174282636364
O	2.4908231472	7.041884618818181	9.434008882636364
O	2.9282621071999997	4.4690360488181815	12.139157952636364
O	6.3137274672000006	3.1887946988181817	10.964543952636363
O	8.735977697200001	7.3730697988181815	11.596809352636363
O	11.460751377200001	4.780940638818182	11.217902852636364
O	11.2782335772	1.8221872508181816	8.913755772636364
O	13.858135777200001	-0.5046105311818183	7.375126182636364
O	11.0235526772	-2.741477831181818	6.131442892636364
O	3.6667379272	-0.43534236118181835	9.341437682636364
O	0.3483712251999999	0.41328285681818155	10.954227152636363
O	-0.5411519368000001	3.2157409388181817	8.595396372636364
O	-3.5311079228	5.491630588818182	8.286154032636363
