93

O	2.3403453628870974	0.8715277611580643	-3.411263533819355
O	1.5289004428870976	-0.3126065918419356	-3.483174553819355
O	0.14602704088709748	0.009534558158064366	-3.891016333819355
O	0.31535137288709747	1.2700634983880643	-4.548200433819355
O	-0.7705070501129025	2.102939610158064	-5.110640343819355
O	0.09973511008709747	3.284972898158064	-5.531780693819355
O	0.39129212288709747	3.650080498158064	-4.113470693819354
O	-0.14564271011290253	5.015255348158064	-4.008240583819354
O	1.1777893928870975	5.805407378158065	-4.030156833819355
O	1.9804543028870976	5.016575608158064	-5.070914133819355
O	2.6936003628870977	3.846863348158064	-4.484436143819355
O	2.9062112128870976	3.925826938158064	-2.9996613578193547
O	4.023268702887098	3.2747489681580646	-2.519627931819355
O	4.299705332887097	1.9231558721580644	-2.1406050328193547
O	3.6962442328870977	1.1320854521580643	-3.293295033819355
O	4.2219660428870975	1.5497314441580643	-4.402907623819354
O	5.810232322887097	1.7346547611580643	-2.3275741980193545
O	2.8083226428870973	5.1370415781580645	-2.6134489128193548
O	1.2942079228870975	1.0947439841580644	-5.720581543819355
O	1.4686122228870975	-0.9725087418419356	-2.2642220625193548
O	0.8238937038870974	-1.8393055918419356	-1.4963067928193547
O	2.9608054228870975	-0.6862160218419358	-1.9716381288193547
O	3.1656410128870975	-1.9529518218419357	-1.4275406148193546
O	4.404986812887097	-2.1758641318419354	-0.6587407938193546
O	3.0118472628870974	-2.6376812418419355	-2.7559630458193545
O	3.1825568128870976	-2.2957058618419355	-3.937739183819355
O	3.3816439328870977	-3.8549769518419357	-2.3140034058193546
O	4.665415112887097	-4.260960401841936	-2.8913361248193548
O	5.299874892887097	-3.394884841841935	-3.9102995538193546
O	5.651465882887097	-2.0372077918419356	-3.2986933038193547
O	5.937116282887097	-0.9978098418419357	-4.248324483819355
O	-1.7747016971129024	9.411600448158064	2.1502442661806453
O	-0.20358127111290253	10.461083668158064	-1.1496407438193548
O	-2.6607623571129024	8.723506738158065	-3.4545024238193545
O	-4.1376588571129025	6.141361078158065	-1.1172550138193547
O	-7.275319177112903	5.3891873881580645	0.7844859861806452
O	-10.161787477112902	3.5681889181580644	-0.8651566038193546
O	-13.627215577112903	2.4580254981580643	-5.694441933819355
O	-10.927124277112902	0.18492144815806433	-4.342502143819354
O	-7.485053187112903	0.9815934121580643	-2.7820662098193547
O	-7.2559338071129025	-0.5392964818419357	0.7685006961806455
O	-3.7513397571129024	-2.1547272218419353	0.6798072561806454
O	-2.4320712471129027	-4.099132271841936	3.7096312561806455
O	0.8993742118870974	-4.491593061841935	1.7881393161806454
O	-0.48600624411290255	-6.953405591841935	-0.8362066838193547
O	-2.7582782971129025	-9.918159191841937	-1.2162945438193546
O	-4.707830207112903	-9.675030891841937	-4.502116103819354
O	-8.137728047112901	-8.244595901841937	-5.220571423819354
O	-7.571047397112903	-6.6460647218419355	-8.670017453819355
O	2.5414542328870975	-8.308587311841936	-11.130991553819355
O	5.6567764328870975	-6.100295981841936	-11.674159313819354
O	3.2158067128870975	-3.119980671841936	-13.141368723819355
O	-0.17762209811290253	-4.576108181841936	-13.901166123819355
O	2.4507203628870977	3.431563738158064	-13.714215723819354
O	-0.20971780611290253	1.5776619191580643	-11.675698813819354
O	-3.2785903271129024	3.7972589381580644	-11.809319803819355
O	-2.7561408171129025	7.246060848158065	-10.283037423819355
O	-6.797321657112903	9.045678778158065	-7.069851463819354
O	-9.787346507112902	4.470485698158065	-7.312932093819355
O	-8.745300587112903	-1.2912576518419356	-8.206473733819355
O	-6.833506347112903	-2.5990519418419353	-5.211431023819355
O	-7.938509737112903	-4.753840691841935	-2.2054296610193544
O	-4.897668747112903	-6.728241421841935	-0.9613050838193546
O	-2.3019293871129025	-9.377219291841936	3.489574376180645
O	-1.8082512971129026	-13.157089591841936	3.5165177661806455
O	-6.996507067112903	6.357137318158064	8.099167976180645
O	1.7510546428870974	-14.308681091841937	8.274049276180646
O	2.7558104528870975	-13.010427391841937	4.842393366180645
O	2.9738621228870974	-9.221629091841937	5.0725436461806455
O	1.6585289828870975	-7.841164251841936	8.352986076180645
O	5.593257172887097	-4.179772231841936	8.015133376180644
O	2.3614865828870975	-2.1746039218419355	8.325676076180645
O	1.3652046428870976	-1.0445919818419356	4.875442626180646
O	-1.5001958271129026	1.1842260953580643	3.907775916180645
O	-0.2630658851129025	0.8761516481580642	0.2645242661806453
O	2.6981633428870975	3.0332271281580643	1.1530940761806452
O	2.5790516828870977	6.757865668158065	1.7819135661806458
O	5.699576792887097	7.219082848158065	3.850538806180645
O	7.247888182887097	5.944775178158064	7.028390236180645
O	10.130767722887098	4.112225928158065	5.345800876180645
O	10.007039352887098	9.737571898158064	5.9818876261806455
O	12.241054022887099	8.067333518158064	3.4104934961806457
O	14.879500622887099	5.392516988158064	3.0873642661806455
O	14.204972322887098	1.7674849501580643	2.418033246180645
O	16.381078722887096	-1.1392568518419355	1.3069460361806455
O	13.439488322887097	-3.510501031841936	1.9668146361806453
O	7.393731472887097	0.29015124915806434	6.257406966180646
O	4.775821172887097	1.8965074571580645	8.480666676180645
O	2.8857150828870974	3.5794955381580644	5.682987426180645
O	-0.21104050611290254	5.706007298158065	5.617025136180645
O	1.2854139128870976	8.780106508158065	7.299937376180646
O	2.0562378028870976	6.6851579081580645	10.346516176180645
O	-1.2726836071129024	4.889102278158064	10.215741676180645
