88

O	0.011635940160714342	-6.314781237135715	-0.21583572132142903
O	-1.2969220688392857	-6.112573637135714	0.3023540116785711
O	0.6235045021607144	-7.417181967135714	-0.07744610632142901
O	0.4212652521607143	-2.3422060771357143	0.500095711678571
O	-2.0900775278392856	-5.129127347135714	-0.37480778432142897
O	-1.5830170168392856	-4.013967137135714	-0.824309790021429
O	-1.7986086378392856	-7.099028507135714	1.197808481678571
O	-3.4849125178392857	-5.039535797135715	-0.023342801321428963
O	0.14184662016071437	-5.674748327135714	-1.543817303321429
O	1.4634163021607143	-3.9694222971357145	-2.470470138321429
O	-0.2458554928392857	-4.266740547135715	-1.219605999321429
O	0.6083196621607143	-5.753932207135715	4.263455981678571
O	0.19549265216071432	-3.247515457135714	-2.136922338321429
O	1.2880619121607144	-5.420472387135714	-2.287094948321429
O	0.8123250021607142	-3.844513037135714	-0.278306222321429
O	1.8079449921607145	-4.400985097135714	0.418953631678571
O	2.4788271321607143	-3.369799107135714	0.9814839016785709
O	1.7004071821607143	-2.4056621471357142	1.5379476916785713
O	1.561795112160714	-1.9886416871357144	2.8844933216785713
O	0.6342267321607142	-2.456245087135714	3.811967811678571
O	1.1573588421607144	-3.3967174071357142	4.6996388516785705
O	2.3665513021607145	-3.0128460771357144	5.23897454167857
O	3.2053340621607145	-2.0900872171357143	4.524726521678571
O	2.6175774921607142	-1.3800645231357143	3.4732516416785715
O	0.4529565721607143	-4.6761629371357145	4.864974681678571
O	1.1716037521607143	-3.4239415371357143	-3.684777778321429
O	0.4737489721607142	-4.208298767135714	-4.709256838321429
O	0.9286949321607143	-4.429789207135714	-6.02940203832143
O	1.4204487421607142	-3.2586432171357145	-6.603876958321429
O	2.3245631221607144	-2.6401579171357143	-5.73893599832143
O	1.8024773521607145	-2.5062484871357142	-4.443375558321429
O	3.2307716021607145	-4.064787637135715	5.474102341678571
O	0.2902782881607143	-2.4875634671357143	12.043566551678571
O	2.2259237521607145	-0.01255997713571444	9.87707125167857
O	-0.5839541398392857	1.5347177528642857	7.86726878167857
O	-2.4654715978392856	4.841269032864286	7.571692671678571
O	-0.9877103368392857	7.480672582864286	5.33562296167857
O	3.684539032160714	10.569551122864285	3.0132919416785713
O	1.6513332821607145	7.983023272864286	1.172941991678571
O	0.009952248160714272	4.854138972864286	2.383721941678571
O	-3.7489975978392858	4.717649202864286	1.755393331678571
O	-4.295313367839286	1.2457630328642857	0.191750689678571
O	-7.711015847839286	0.08090077286428565	-0.928852801321429
O	-6.277026157839286	-3.3187606671357144	-1.768515656321429
O	-4.153136067839286	-2.2327422671357144	-4.701900178321429
O	-4.251693047839286	-0.003580070135714375	-7.746142698321429
O	-0.8414317738392857	1.614753242864286	-8.27670209832143
O	0.38058251216071426	5.029068472864286	-7.151147488321429
O	4.037925442160715	4.210351832864286	-6.402739938321429
O	6.637509612160715	6.221215742864286	-4.5438629083214295
O	5.346781752160714	-5.960999487135714	-8.553014808321429
O	6.2042339021607145	-9.138695647135716	-6.52307537832143
O	8.487385822160714	-6.785497487135714	-3.981433078321429
O	9.162799742160715	-3.4130536571357144	-5.622929158321429
O	10.461597612160713	-2.4942501071357146	-9.09170117832143
O	3.5046815321607143	7.4682249228642865	-10.904746548321429
O	5.651577142160714	4.388092702864285	-10.55088603832143
O	12.690132512160716	-5.836999087135714	-1.077171207321429
O	10.815635412160713	-5.847136057135715	2.228863321678571
O	8.541278562160713	-3.1045831971357143	0.8692013916785709
O	9.328926012160714	-0.05398660613571438	2.965271131678571
O	8.626072272160716	-0.4610451891357144	6.71957803167857
O	11.208669012160716	1.0806290528642855	9.08110125167857
O	6.124543392160715	3.7405983428642857	9.148650011678571
O	6.942196832160715	7.3372335228642855	8.099083931678571
O	5.458286312160714	6.6264127928642855	4.622224681678571
O	7.426840182160714	6.833210842864286	1.3560943616785712
O	4.911493202160714	5.564539572864286	-1.110438213321429
O	1.6015019621607145	3.8132024228642853	-1.591456955321429
O	-1.6942265038392856	5.0190322028642855	-3.037605658321429
O	-3.5928353878392856	2.1576837528642856	-4.633993418321429
O	-7.268834557839286	3.1004742728642856	-4.546354308321429
O	-8.730454697839285	-0.04161391613571441	-6.116328448321429
O	-9.679680087839287	-0.4856180281357144	-9.78647480832143
O	-5.726198797839285	-5.042960807135715	-10.933553548321429
O	-3.2179638978392857	-2.3224327171357144	-11.783759248321429
O	-11.320012887839287	-4.899715667135714	-9.324950548321429
O	-10.604348187839285	-5.194857247135714	-5.598144358321429
O	-8.267972247839285	-3.7510401471357144	2.246377761678571
O	-6.663244817839286	-0.9236315021357144	4.25271691167857
O	-3.256126057839286	-2.1864014671357146	3.0775512016785713
O	-3.8414660078392857	-5.254552227135714	5.29903072167857
O	-3.5461525578392856	-5.166052607135715	9.07142415167857
O	-5.774295297839286	-8.121443617135714	10.15653655167857
O	-5.442083477839286	-14.792161177135716	10.621029851678571
O	-8.152604217839286	-5.207787617135715	6.952966141678571
O	-7.363333727839286	-2.1432336471357143	9.005731001678571
O	-11.955093987839287	-0.8274540785357144	9.302126151678571
