86

O	-4.199644346262069	-0.8147696668227586	2.7831084303103446
O	-5.605997566262069	-0.7547663968227589	2.5862630603103445
O	-6.387993636262069	0.45040986917724124	2.8113250003103447
O	-5.822711116262068	1.0111387701772412	4.084514060310344
O	-4.645058566262069	1.4737613971772412	3.5373531803103444
O	-3.781912126262069	0.3929920201772412	3.4145629703103446
O	-3.356266126262069	-1.0304003568227589	1.5190431903103447
O	-3.457654896262069	-2.0116284068227586	0.5979880503103445
O	-3.232739596262069	-1.6794287468227587	-0.7447740646896555
O	-3.261684836262069	-0.3414326368227587	-1.1562965546896553
O	-3.227009776262069	0.7074024481772412	-0.2512570796896554
O	-2.832467654262069	0.1615659731772412	0.9295175803103446
O	-4.278529696262069	0.039705693177241264	-1.9540346296896554
O	-4.963437566262069	1.2335927766772412	-1.9718023896896555
O	-4.26799885626207	2.5305171131772415	-1.7353852496896554
O	-3.816433536262069	2.056144278177241	-0.4946873093896554
O	-5.664033936262069	1.9890846501772412	-2.9727187696896555
O	-5.695501196262069	3.478766723177241	-3.0602141396896556
O	-4.419090856262069	3.973815553177241	-3.4400034396896553
O	-3.552260416262069	2.932298593177241	-2.9691357796896556
O	-2.936458375262069	2.994889793177241	0.09270353531034459
O	-3.748830856262069	3.9987474431772414	0.32743668831034456
O	-5.085144426262069	3.582943893177241	0.5004944803103446
O	-5.147457566262069	2.1652886411772414	0.23262274231034463
O	-6.2316131462620685	1.5951730051772413	-0.1800956616896554
O	-3.181276709262069	5.130900303177241	1.0449765203103447
O	-5.953192556262069	4.0797659131772415	1.5416481003103448
O	-2.504481367262069	0.8026494421772412	3.0646475503103447
O	-0.44212948626206905	-1.3024440568227587	10.967672660310345
O	-3.2664405962620693	-3.6038090168227583	10.167530260310345
O	-1.710223944262069	-5.237767676822759	7.084505480310344
O	0.9053377137379308	-2.6770083668227587	6.170561990310345
O	4.60776913373793	-2.214681296822759	6.229760460310345
O	6.738107013737931	-3.517245626822759	3.4191742703103447
O	8.01800868373793	-7.668306676822759	-0.7519702406896553
O	6.49807046373793	-4.283885866822758	-1.4345032636896553
O	4.049756803737932	-2.2350128968227585	0.5863699803103446
O	5.484863683737931	1.2148327343772412	1.4967156403103448
O	2.5923363737379312	3.611979653177241	0.6294092803103446
O	2.941953193737931	7.386301563177241	1.0099728403103445
O	-0.7407587062620691	7.727470733177242	-0.007565718689655387
O	-0.3801188662620689	6.678810633177242	-3.6805344596896554
O	1.9467237837379314	7.144312563177241	-6.579900999689656
O	2.143293923737931	3.880723463177241	-8.503527499689655
O	4.716149463737931	1.1464469421772412	-8.268214409689655
O	2.540665453737931	-1.9176203468227586	-8.907886009689655
O	3.3885070637379306	-5.583325636822758	-8.430959999689655
O	-7.0960072562620695	1.5161825071772412	-10.445770509689655
O	-10.44671679626207	1.1839853311772413	-8.636850679689655
O	-9.35363048626207	-2.6728123468227585	-7.452352699689655
O	-6.361908446262069	-3.8079528768227586	-9.474814439689656
O	-5.8080279762620695	-3.8496396968227584	-13.229298139689655
O	6.04960504373793	-0.9020866968227585	-13.134124339689654
O	2.3851637837379314	-1.7175046968227587	-13.352182139689655
O	-10.19413587626207	-7.740606326822759	-6.439666619689655
O	-9.691111616262068	-7.472393526822758	-2.7083208496896556
O	-6.23166159626207	-5.932874296822758	-3.2625926296896552
O	-3.858146776262069	-8.579957006822758	-1.9079628896896554
O	-4.201473856262069	-9.313768456822759	1.8338545403103446
O	-3.842212016262069	-13.004828356822758	2.8386843503103445
O	-0.7893245362620689	-13.27748465682276	5.106682520310345
O	0.410957603737931	-9.628093956822758	4.620138890310345
O	3.506765883737931	-11.193487556822758	2.9973609903103444
O	3.603171403737931	-8.350247156822759	0.4136368663103446
O	3.3231594537379308	-8.830106056822759	-3.3661619096896556
O	3.176062613737931	-5.240619136822758	-4.554416919689656
O	2.843099723737931	-1.5933591368227586	-3.5827070196896553
O	5.289266383737932	1.2923369616972413	-3.7137871796896555
O	3.486924783737931	4.579503203177241	-4.158279669689655
O	5.736646943737931	7.282714283177241	-2.7714183896896554
O	3.510934613737931	10.307040553177242	-3.3734112296896552
O	3.6258141237379307	12.68853104317724	-6.355177499689656
O	7.16414779373793	2.392743883177241	11.349394760310345
O	0.07820307373793112	15.473011743177242	-4.896508559689655
O	-0.614002966262069	13.558938743177242	-1.6847021796896553
O	-0.5440583562620689	8.040612823177241	4.543943920310344
O	1.400147483737931	4.864939493177241	5.538999990310344
O	-0.955089616262069	2.9983189731772413	3.4519928003103444
O	-3.7229650262620693	3.933795353177241	6.015876050310345
O	-4.0084646662620695	1.9089639981772413	9.328132190310345
O	-5.970112206262069	4.4618133531772415	11.385857960310345
O	-12.24912481626207	6.449920963177242	12.521849260310345
O	-2.136623115062069	6.626025373177241	9.048989260310345
O	0.17041401373793086	3.901234323177241	10.244348860310344
O	-0.9033149462620691	3.938631383177241	13.895479960310345
O	3.1857570737379306	7.158806833177241	12.168673060310345
