30

O	29.25628715976961	10.339818864786572	22.097392513192613
O	21.911117400337588	11.258891895206308	21.51807453917051
O	22.0565095613309	10.13925542425741	22.441712202132308
O	22.29366987428118	10.462711866574862	23.62254734815097
O	21.18228729312848	10.402359192805198	20.49126961847702
O	22.976966030915182	11.804757021119759	20.71506544842882
O	21.96095269464623	11.802972552543679	23.70378826937621
O	21.18457820983318	12.115546954728355	22.47930606654916
O	21.43360762760918	8.880733720744741	18.20166378417733
O	20.407641690572557	10.807452577405805	19.45263613077379
O	24.128140967146685	11.028182487181459	20.53897333833259
O	20.573465748950525	7.729293535139709	18.034494474951664
O	20.418309879573133	9.912448724999246	18.35354472001322
O	25.09173415036241	11.385063509861254	19.59251198050563
O	19.42228680380331	7.197527278698634	18.449875832545086
O	26.399506718629212	11.940438286646774	20.015377697275227
O	27.660249660429706	13.611781893508377	21.092145949553586
O	22.27501682924588	9.68998261213805	19.964476951285565
O	27.125307152762378	10.935473154781617	20.652522397606987
O	22.746849996430367	9.28083560259481	18.71005980875628
O	22.023823187787144	9.75982538695693	24.887868286784105
O	28.098916186647983	11.4461007522677	21.453877294927658
O	26.84509278667649	13.246491148799233	19.993670362291596
O	27.83016619445635	12.636166062282664	22.0635549061992
O	22.582518821264372	12.318585854434177	19.46604708696349
O	24.71563094995734	11.962148823895479	18.43366524110773
O	23.51209164627984	12.597162404325294	18.44745445446865
O	19.13928834442892	9.753462400934557	17.539721321644617
O	18.612967650649924	6.542421532996685	17.471929417158528
O	18.166151039976338	7.618380097316543	18.53673910346722
