94

O	-2.0738670180163936	-0.8385140204918032	-2.894526047903279
O	-1.1710002140163938	-1.4038052104918033	-3.809714133903279
O	-0.4086525480163936	-2.188797670491803	-3.345746363903279
O	-0.5947675710163938	-0.35808264049180305	-4.603386533903279
O	0.6712649519836063	-0.5517490704918032	-5.181998203903279
O	1.0326734619836062	0.22672096550819687	-6.240748183903278
O	0.054280811983606236	0.9669727834381969	-6.631309153903279
O	-1.1330558930163936	1.3714922565081968	-6.0639960839032785
O	-1.4174505320163937	0.7550022975081969	-4.781247883903279
O	-2.334460043016394	1.5824962455081968	-6.822462003903279
O	-2.8938546680163935	0.38642193450819684	-7.501741093903279
O	-4.240210898016394	-0.0283198304918032	-6.878411763903278
O	-2.0101354740163937	-0.8342009304918031	-7.159791013903279
O	-2.7451406380163936	-1.9954144904918034	-6.493784963903279
O	2.567502671983606	0.5366924345081969	-7.048496383903279
O	3.2275545019836063	-0.7703775004918031	-7.458196763903279
O	3.689407801983606	1.054865447608197	-6.2313546839032785
O	2.290872971983606	1.269369015508197	-8.609077493903278
O	-3.046566928016394	-0.7401040804918032	-2.014428138903279
O	-3.134946478016394	0.5753166765081968	-1.320142334903279
O	-4.000559848016394	0.5508544695081969	-0.20564117390327885
O	-3.6461436680163937	1.7634780725081969	-1.962043852903279
O	-4.366983668016394	1.2593517805081968	-2.9157593509032793
O	-4.3432576980163935	2.105271369508197	-4.30233415390328
O	-3.2926833780163935	3.065152059508197	-3.882441603903279
O	-3.1645515480163935	2.9550061995081967	-2.303913086503279
O	-3.326900148016394	-1.960940560491803	-1.266985105903279
O	-2.7715043580163936	-3.119840510491803	-2.065914294903279
O	-3.0954338080163937	-3.4407020104918034	-3.379448663903279
O	-2.403166506016394	-4.4201130404918025	-4.107199643903279
O	-1.3677312860163937	-5.143281170491803	-3.520922873903279
O	-1.2814059180163937	-5.0376081704918025	-2.168287667003279
O	-2.1523031640163937	-4.193233310491803	-1.4896106139032792
O	3.8100974019836062	-9.643777580491804	6.00805876609672
O	6.458109941983606	-5.403671210491803	0.8675593860967208
O	4.972499001983606	-7.209429310491802	-2.174142383703279
O	1.860810681983606	-8.487855060491803	-0.41447970390327904
O	1.5446027719836064	-5.967225100491802	2.421731646096721
O	1.8610803619836063	-5.715554290491803	6.16720768609672
O	-1.1021689650163937	-6.605437510491803	8.30098973609672
O	-6.019036428016394	-6.535074670491803	8.29036223609672
O	-3.7906553180163938	-4.705718230491803	5.782278286096721
O	-2.2409747420163937	-1.5534473204918031	7.208527256096721
O	-2.8369494080163937	1.0910593385081968	4.512398846096721
O	-1.7766287870163937	4.699473029508197	4.9803032960967215
O	-2.8932852680163936	5.384916959508197	1.437496996096721
O	-6.651070488016394	5.012232769508198	2.0991290160967213
O	-9.300355938016393	5.8765576495081975	4.603475456096721
O	-11.795681448016394	2.9985492995081966	4.78858044609672
O	-11.913352648016392	0.07223211450819689	7.170181396096721
O	-13.172564548016393	-2.7066233304918033	4.868371886096721
O	-12.773417548016393	1.0158742825081968	-8.082682633903278
O	-12.222084648016393	-3.0056136704918033	-7.177819833903278
O	-14.287397948016393	-3.9109258104918037	-4.167277613903279
O	-8.264528688016393	-8.331717530491805	-8.065109903903279
O	-8.634723518016393	-7.065367680491803	-4.4633171339032796
O	-7.605042378016394	-10.025779080491803	-2.315273837903279
O	-4.075528218016394	-11.314515180491803	-2.876702717903279
O	-1.2197274290163937	-12.572045680491804	1.694724486096721
O	-5.024909898016394	-10.739354380491804	5.1539896060967205
O	-9.415734988016393	-6.759101390491803	5.083064316096721
O	-7.859339118016394	-3.3343927604918036	4.939249106096721
O	-7.352778608016394	-0.586977910491803	7.53658955609672
O	-7.302194268016394	2.8201739295081967	5.86030891609672
O	-5.467202168016394	8.321790329508197	6.075534136096721
O	7.744145451983607	-2.1361024704918035	8.56436033609672
O	-3.4225993280163935	11.425695219508196	1.9292717560967207
O	-0.3319639680163937	11.745115019508196	4.1324708160967205
O	2.5168091519836064	10.699032529508196	-0.33397833390327913
O	3.6039606719836064	8.066742919508197	2.222721886096721
O	1.6857240119836063	4.890076309508197	1.348251496096721
O	2.1670442419836062	1.5614373165081967	3.1787886360967206
O	-0.3490454880163938	0.09533524750819689	0.6366096560967209
O	2.0396232419836062	0.5252458555081969	-2.1716771100032792
O	4.926358311983606	-1.7696120304918033	-2.735743001903279
O	7.409794201983606	0.3737101465081969	-4.592971353903279
O	9.040177051983607	3.776717839508197	-4.370746893903279
O	7.082408871983605	5.339259509508198	-7.2336388739032795
O	10.560752951983607	-3.7029638004918035	-12.41792756390328
O	11.404776551983607	-1.7805838404918033	-6.559990323903278
O	11.366818651983607	1.708950904508197	-8.043122183903279
O	8.794147751983607	2.379692929508197	-10.736718473903279
O	7.2033497419836054	5.223018959508197	-12.64194836390328
O	4.038454261983606	6.902994119508198	-11.59899330390328
O	1.5531425619836063	9.141144499508197	-13.37890206390328
O	0.012288041983606224	9.936195559508196	-9.99428571390328
O	4.691781321983606	7.377445669508197	-3.618968203903279
O	6.863997751983606	6.343164579508197	-0.725821093903279
O	5.715538291983606	2.736015949508197	-0.6027390539032791
O	6.606685431983606	-0.14196913049180304	1.6531313960967209
O	10.135531051983607	-0.6884549204918032	0.3790516660967209
O	11.043324251983607	2.851626739508197	1.421861036096721
O	9.176680251983607	2.5785443295081967	4.691528176096721
O	11.210427951983608	-0.5707309704918032	5.486818356096721
