26

O	25.167187723773065	12.673548925600631	25.029613924515324
O	23.305391267045856	10.900127216631839	20.910544862168805
O	23.57323663353907	10.076876886987066	22.0933431592314
O	23.494981006912713	10.57617425394321	23.317536383467033
O	23.32581210103036	11.861331383034859	22.91804568412951
O	23.469380660053492	12.732911477251118	21.87575845762837
O	22.687483681939426	12.231264398323527	20.911557765848396
O	24.933244262244557	11.67353328826907	17.689516705929975
O	26.064223427833642	11.012639874022529	18.025451865559575
O	26.237460287073468	10.19147775214227	19.15394017387565
O	25.28836355538201	10.434952395502773	20.027846342928655
O	24.251001625646616	11.249023086216276	19.89620651121549
O	24.109528960376462	11.9136190091292	18.73662135611503
O	22.862278940166924	9.881018361081807	19.933385597716416
O	22.9626847090578	10.18437432072127	24.532453575456984
O	27.521864781803618	10.517023680582817	19.50726689391605
O	27.554132938074634	11.895043603826803	20.06906797255243
O	27.133806623549734	12.796567131514635	19.21792036596822
O	26.651059704692422	14.01397234785523	19.542853419750287
O	26.0421302557657	13.882082896539679	20.684565089614313
O	26.706865498680525	11.780273976249909	21.068307362894394
O	26.05476655977391	12.794162280724187	21.50769998028339
O	26.360623243237956	13.043576564009715	22.84000812018301
O	26.01098258228618	12.017077995857687	23.610528600485345
O	26.454874071352	10.82039188991148	23.15403439114931
O	26.41793507846696	10.749856672706716	21.819513427028085
