109

O	-6.98921030750956	-0.4693783036617645	-1.8782745360986763
O	-6.71342017750956	-2.1926519536617644	2.1067025739013236
O	-6.59298348750956	-3.5339051236617642	0.14555252390132367
O	-7.62811359750956	-1.5715201536617645	-1.2868535040986764
O	-3.03183473550956	-0.30455089366176447	1.0687259239013236
O	-3.97212315750956	-1.9627449236617645	1.2229634439013235
O	-7.09452146750956	-1.4689067036617647	-0.07451160509867635
O	-4.41807427750956	1.9652723763382354	1.5621159039013237
O	-5.14704637750956	4.082466746338236	1.6274837239013236
O	-5.90712346750956	-0.7837514436617645	0.2712781629013236
O	-2.2019310135095598	1.9687572093382353	-0.49015634109867634
O	-4.90697841750956	-0.6815223936617645	-0.6050243230986763
O	-5.59203931750956	-0.6610552136617647	-1.7100651960986764
O	-7.11854727750956	-2.603481393661765	0.7887360439013236
O	-6.69698554750956	-3.1739176236617643	3.0106304639013235
O	-6.452610067509561	-0.8365163536617646	2.5474288539013235
O	-7.7010656475095605	-0.17238284366176448	2.3960939839013236
O	-6.68623897750956	-4.407147313661764	2.2310738239013235
O	-3.8777041875095604	-1.0722640336617644	0.3705637319013237
O	-5.29325929750956	-4.807432573661765	1.9572377439013238
O	-8.76454701750956	-1.0930940936617646	2.0170606439013237
O	-2.48286774750956	0.6918815183382354	1.7959068639013238
O	-2.40158118550956	1.8697342953382354	0.8747199539013235
O	-1.98732324250956	0.2197175063382354	3.0131625939013236
O	-2.08941738550956	2.9595490463382355	1.5169494039013236
O	-2.88945862350956	4.125400426338236	1.6767366239013235
O	-4.17522963750956	3.3424717763382352	2.0268312639013235
O	-2.90879613850956	4.881103726338235	0.3241949939013236
O	-6.5627998475095595	2.3914662663382353	-1.4419729960986765
O	-7.62881507750956	1.7716518443382354	-0.7992736990986764
O	-7.57156822750956	2.6763537063382357	0.18558228890132367
O	-6.58847303750956	2.2386953163382355	1.2043108239013236
O	-5.43947196750956	1.5850488483382354	0.7310823939013236
O	-5.44361363750956	2.2641528963382354	-0.5089940830986763
O	-3.31831719550956	-3.101513423661764	3.9411561339013232
O	-4.51214680750956	-2.572017443661765	4.225188553901323
O	-4.54063489750956	-1.3522124136617644	4.8009148639013235
O	-3.63487017950956	-0.48640447366176454	4.313347353901324
O	-2.62267388350956	-0.9756095136617646	3.4889983139013236
O	-2.22377615650956	-2.2355198236617646	3.812337733901324
O	-8.64686061750956	1.0478330971382355	-0.3113609548986763
O	4.88081762249044	-13.454617703661764	2.2008984739013235
O	1.26509265249044	-12.351255003661764	1.7364277339013237
O	-2.7164146707595602	-8.771366273661764	-2.9582807760986762
O	-5.82293349750956	-8.542224063661765	-0.8323406660986763
O	-3.9761075375095603	-8.692741443661765	2.5098840539013234
O	-0.7084355775095599	-6.959609653661764	1.6381130539013236
O	2.8107084524904398	-8.336484613661764	1.2518891639013237
O	5.280880502490439	-8.307794813661765	4.152486233901324
O	6.2564355824904405	-5.6824936836617645	8.209464053901325
O	3.92940571249044	-4.581390183661765	5.350341793901324
O	5.8733810924904395	-3.375017293661764	2.323637673901324
O	3.9566523624904404	-0.11418576366176447	1.3605432239013235
O	5.37051092249044	2.0426905063382357	-1.4846544560986763
O	2.3392400624904397	4.361765166338236	-1.0143488160986764
O	3.5533075324904404	5.831553506338236	2.3109779239013237
O	6.67636320249044	6.994891086338236	4.107297073901323
O	6.39760995249044	5.970403866338236	7.755962253901324
O	7.8664042224904405	2.9539445863382356	9.481253333901325
O	5.11657376249044	2.189587886338235	12.023436443901325
O	-2.11949423150956	9.358113136338236	10.729213343901325
O	-5.76528593750956	9.326814886338235	9.553061643901325
O	-6.20918643750956	5.633023216338236	11.353926543901325
O	-3.28350245550956	4.956013656338236	13.623371543901325
O	6.31321384249044	5.178658746338236	15.111022543901324
O	-9.23267803750956	-0.40014733366176447	11.338341643901325
O	-5.41079976750956	-0.4780220936617645	10.946281243901325
O	-4.42384511750956	-4.099095503661764	11.557174343901325
O	-5.94846541750956	-6.804084793661764	9.358159613901325
O	-2.65542688260956	-10.623309603661765	7.456961483901323
O	1.90191218249044	-8.464772513661764	9.687688233901325
O	3.8191274824904395	-3.048477333661764	11.186255643901324
O	4.15546228249044	-1.0775437836617645	7.953249783901323
O	7.28246862249044	-0.04889915366176467	6.052930193901323
O	6.52470056249044	3.155054506338235	4.136410393901324
O	8.122404522490442	6.403493296338236	-0.3720945607986763
O	9.85492402249044	9.772145306338235	0.12954885690132367
O	4.86674294249044	12.614112496338235	2.4474450539013235
O	6.231398622490439	11.431251296338235	5.826576183901324
O	5.21127662249044	-9.500193003661764	-5.585636936098676
O	10.00717872249044	12.360648396338236	-5.313675756098676
O	7.060925892490441	12.132709296338236	-2.8884435160986763
O	4.93095057249044	9.143757966338235	-3.8678158960986764
O	6.600082022490439	6.992464586338236	-6.5377689460986765
O	3.12002572249044	2.7069436163382354	-7.854147516098676
O	1.54466340249044	1.5391762843382355	-4.591134856098677
O	2.19110355249044	-1.8973318536617645	-3.1213920460986766
O	-0.2027080175095599	-1.0192177436617647	-0.29574608968867633
O	-2.97512027350956	-1.0233666936617645	-2.6478126460986764
O	-4.63554178750956	-4.141858023661764	-3.966472816098676
O	-6.16476232750956	-2.8818202736617646	-7.327922016098676
O	-5.11569435750956	-1.2029798936617644	-10.533905656098675
O	-6.81281104750956	2.1227712563382353	-10.257490966098676
O	-15.362757177509561	-4.615413413661765	-7.847351306098677
O	-9.44993891750956	-5.886244023661765	-9.384375176098676
O	-9.64155085750956	-2.6823196336617645	-11.388878356098676
O	-11.424228827509559	0.30415076333823543	-10.105576726098676
O	-11.86949728750956	4.0738076963382355	-10.547268056098675
O	-9.68130246750956	6.801162846338236	-9.041630926098675
O	-10.21851830750956	10.495593956338235	-8.014213686098676
O	-6.58605462750956	10.710082086338236	-6.826792126098677
O	-2.61016427950956	3.627667516338235	-8.684132286098675
O	-0.57389374750956	0.6711885503382354	-9.879613796098676
O	-1.4250928475095601	-1.5540686836617648	-6.979188586098676
O	-0.47788324750956024	-5.009085673661764	-5.948568296098676
O	-2.39460026850956	-6.8659035936617645	-8.657175826098676
O	-0.41240514750956025	-4.990549903661765	-11.329429256098676
O	2.7845795124904402	-5.286033143661764	-9.402783186098675
O	2.21057664249044	-9.085723803661764	-9.372168256098675
