97

O	-4.638721758290322	-2.381863605177419	-5.111046941516129
O	-5.3722394682903225	-1.2264672551774187	-4.687372141516129
O	-5.557125098290322	-2.104069075177419	-3.3476457315161294
O	-6.7868802582903225	-1.906628635177419	-3.021517231516129
O	-6.649283358290322	-0.9630094651774189	-1.9329117653161292
O	-5.395492278290322	-0.7844547151774189	-1.825873795516129
O	-4.416416808290323	-1.5284471651774187	-2.566887690516129
O	-3.4105169182903223	-0.717985575177419	-3.3644138715161294
O	-2.9491609782903225	0.4908439038225811	-3.015069761516129
O	-4.128989838290322	1.173682159822581	-2.639158372516129
O	-5.2275287482903225	0.6908266348225811	-2.020249805016129
O	-1.6072057472903223	0.9129913688225811	-2.399252896516129
O	-0.6802827172903223	-0.19378473017741893	-2.636075778516129
O	0.2702522117096777	-0.622101421177419	-1.578081070516129
O	0.7322400717096775	-1.943745915177419	-1.958653892916129
O	-0.13608564829032233	-3.108624455177419	-2.227101144516129
O	-1.2008573952903223	-2.587785255177419	-3.490127841516129
O	-1.6549266222903223	-1.372130765177419	-2.319276887516129
O	-0.7634833332903224	-1.951618425177419	-4.706246871516129
O	-2.1077325482903224	-3.668597405177419	-3.731506061516129
O	1.4467298817096779	-2.479126835177419	-0.832097631516129
O	1.8222663217096777	-3.840859745177419	-1.3114575465161291
O	2.0775882517096775	-3.677280075177419	-2.726804555516129
O	2.6967970617096775	-2.465283045177419	-2.8360725085161294
O	2.3913705017096776	-1.719853375177419	-3.918533831516129
O	2.319289911709678	-2.404401925177419	-5.133160231516129
O	1.7510419617096777	-3.651733225177419	-5.041015331516129
O	1.6826332817096776	-4.351258875177418	-3.820904371516129
O	3.4945444917096777	-0.7439643451774188	-3.885097871516129
O	2.7982128017096777	0.4706888608225811	-4.111995581516129
O	4.730294751709678	-1.3938659551774188	-4.156175511516129
O	4.073336311709678	-0.29684423217741895	-2.5717846265161293
O	1.3146889017096777	0.1735971558225811	-1.267920080516129
O	-3.5121287482903227	-2.018534255177419	-5.673155981516129
O	-4.855734788290322	-3.6780670051774194	-4.831942861516129
O	-10.598748348290322	2.202160544822581	0.02391729848387092
O	-7.783317238290322	2.633953564822581	2.5188648884838702
O	-6.977065508290322	4.496332024822581	5.774586558483871
O	-5.527705398290322	8.011571264822582	5.731392728483871
O	-5.339637028290323	13.573197244822582	3.3303605084838708
O	-2.7256217482903224	10.902054744822582	2.8337773984838703
O	-3.088260008290322	7.119967464822581	2.539535368483871
O	-1.0315998582903223	5.232584774822581	5.132024148483871
O	0.6746809617096778	2.477187704822581	3.0705239884838704
O	3.074102201709678	0.1395053758225811	4.89204976848387
O	3.388485301709678	-1.751618155177419	1.682012288483871
O	5.226318741709678	1.1056156428225812	-0.119371861516129
O	8.036761221709678	3.524884374822581	0.09230770848387082
O	7.111742881709677	6.694668614822581	-1.7975720335161292
O	5.490247361709678	9.844864314822582	-0.5083182515161291
O	3.395388461709678	10.821008144822581	-3.545764501516129
O	7.0615616517096775	5.961616384822581	-13.00873427151613
O	5.084623171709678	3.602968404822581	-10.885815591516128
O	3.003272081709678	0.8875592978225811	-12.635295571516128
O	-0.2797149482903223	3.355951364822581	-12.291154671516129
O	0.9215686017096776	6.871214404822582	-11.446222901516128
O	6.567247581709678	12.811888044822581	-5.954892671516129
O	-6.891784048290322	3.707808214822581	-11.605492571516129
O	-4.845839478290323	5.477240704822582	-8.897468701516129
O	-7.233735888290322	7.864848444822582	-7.103605031516129
O	-10.385360018290323	6.233060554822582	-5.649674041516129
O	-11.793270368290322	7.673567544822581	-0.5415916915161292
O	-7.3968570782903225	10.905413444822582	0.21277420848387085
O	-1.7795207112903224	11.194704044822581	-1.7443241035161292
O	0.012607381709677679	8.13564295482258	-0.3828379015161292
O	2.581081261709678	7.842018744822582	2.4545186284838705
O	4.861115431709678	4.886670184822582	1.801078698483871
O	8.290633801709678	0.7745309218225811	3.992493888483871
O	12.036097231709677	0.7906693918225811	3.248472318483871
O	14.118174731709678	2.518252194822581	0.5815282184838708
O	11.502535331709678	-0.7012044251774189	-2.725675832516129
O	11.340697031709677	3.061607574822581	-3.326795921516129
O	14.165132431709678	-4.464125715177419	5.357334358483871
O	12.331908631709679	-3.791405275177419	2.0762778884838706
O	8.641933231709677	-4.5638081351774185	2.6014023684838703
O	7.811930331709679	-5.217647715177419	6.289279528483871
O	2.2483587117096775	-6.564155485177419	6.6337349684838705
O	0.5198793617096777	-4.130875935177419	4.3580860284838705
O	-2.0008051452903226	-1.4840373751774187	5.0703187884838705
O	-2.4111611612903223	-0.615557080177419	1.4927559784838709
O	-3.889109958290322	-4.032423315177419	0.7271436884838709
O	-7.5480952582903225	-4.768814445177418	2.005194398483871
O	-7.500868798290322	-8.522085135177418	2.1093140984838703
O	-5.621190828290322	-11.220851755177419	3.8799349684838704
O	-3.9374310182903223	-12.597935455177419	0.7458456784838707
O	-9.352222538290322	-13.625401855177419	2.050841568483871
O	-8.046365998290323	-13.98198455517742	-1.5062076125161292
O	-5.329143818290322	-15.622112055177418	-3.532618761516129
O	-1.8998010332903223	-14.284386755177419	-4.125330901516129
O	0.8735463517096778	-15.09019745517742	-6.60639627151613
O	3.205765011709678	-12.736668355177418	-4.675991701516129
O	-0.18298502829032226	-10.259132255177418	2.584035508483871
O	-1.5942812562903224	-9.233129995177418	5.916929308483871
O	-3.763145578290322	-6.456629725177419	4.491297748483871
O	-6.0091926382903225	-4.010792165177419	6.251885728483871
O	-6.161625458290322	-8.401466825177419	9.381968828483872
O	-4.651933298290323	-5.208341225177419	10.68135332848387
