25

O	21.608265487782678	10.693662938431814	21.052857803790005
O	22.52489525456609	10.682015021518685	22.19546834931704
O	21.963483828727142	11.774653220985245	22.854423815673965
O	22.92994131664214	12.243670808714509	23.800219357791914
O	22.500065420423965	11.039220517469865	24.52307459918903
O	22.54350290114637	10.167914041159586	23.502648845325425
O	22.42705859058437	11.25891480623951	25.944097476541778
O	22.43593098772166	13.56945437238057	23.99813631138853
O	22.709900998297144	14.34881976141783	22.835163566239196
O	22.010189643149744	15.132819524747433	21.998406656074856
O	20.97410097745438	15.535003330632616	22.962608011012428
O	20.237317762162803	14.324174030087448	22.97686183645499
O	20.950501105299765	13.713699149820709	24.045659900129476
O	23.68742263896117	11.589949815386131	21.857000932782157
O	23.717552469748032	12.197659656073572	20.66485973411505
O	24.407732884119497	13.300853677303387	20.19775011064138
O	25.43639242896674	13.604136302715315	21.127052096032372
O	25.664466711767712	12.941712579897535	22.290507760062244
O	24.828281951491928	11.859764686864931	22.54200540518957
O	25.972991534284382	13.694514341933441	23.57214792963036
O	27.245242191541443	14.045802032721097	24.019601972239887
O	27.383143828497147	14.751453536585302	25.229435794125227
O	26.327729752534218	15.472782470303603	25.697993820992433
O	25.133066333383997	15.164927313285196	25.136360708833656
O	25.277660977049386	14.910450549894115	23.797012582150927
