25

O	25.282356669886717	11.476186320529546	19.954598278591867
O	25.21091367535517	10.654320951632421	18.875777539220888
O	23.972835462272265	10.319935924269501	18.41525766659143
O	23.099899518840314	9.97806522749669	19.46277474891027
O	23.119897512670274	10.60391009479739	20.71843056975954
O	24.34514734509771	11.141282160251718	20.952548102363078
O	21.799485509213714	10.108612553274426	19.024842454716975
O	20.8106426613698	10.950976143264462	19.760666947058716
O	20.63664769665703	11.070330566055127	21.238114469387526
O	22.057762078919776	10.768070713062393	21.679949890254996
O	26.570654428547794	11.662745105559159	20.55383108991102
O	22.344202855671014	12.077380966279588	22.35508356530139
O	22.32432123007411	11.623114289927273	23.718732944556567
O	22.40902973451106	10.217230971925472	23.722285097155652
O	21.8798371740755	9.75007902887842	22.66644780716993
O	22.086404405042693	13.2476929634056	21.924484579297314
O	22.956146594916728	12.433177229988402	24.71429704275298
O	22.633224045144697	9.481030563482328	24.94660567176541
O	26.846947986478384	12.789242274863797	21.212780408115748
O	27.672304921462604	12.731379510067637	22.246651434393858
O	28.217336006166665	11.5863737273973	22.558312712611986
O	28.23682706184754	10.607238877828573	21.699978715323073
O	27.667465379186094	10.8597702131546	20.46820164872187
O	21.76938809392983	12.063640340248053	19.506768539683346
O	20.79081208501196	9.45171394338432	20.04089580270379
