101

O	-4.928084376533334	-0.5051191946166669	-4.024625925793335
O	-5.666365826533333	0.694210221983333	-4.269993345793335
O	-5.475594546533333	0.7075329102833331	-5.798516795793335
O	-3.979572466533334	0.24452632938333307	-5.824423005793334
O	-3.610765368533334	-1.183551774616667	-5.9792188257933345
O	-4.300955386533333	-1.556396404616667	-4.639148355793335
O	-3.9844380465333336	-2.7317676146166665	-4.268870195793335
O	-5.671594706533334	-1.136000954616667	-3.1238423557933346
O	-4.494264476533334	-0.2744600546166669	-2.5050537957933345
O	-3.728369364533334	-1.4733708446166671	-2.2383917657933345
O	-4.593089236533334	-1.721938724616667	-1.0676767357933346
O	-6.0346060865333335	-1.2294272646166668	-0.8173898847933345
O	-6.548989416533334	0.059539547383333	-1.0689123987933344
O	-5.517032966533334	0.6039215813833331	-1.9351776347933345
O	-4.181905616533334	-0.538660544616667	-0.22307501579333455
O	-4.924170916533334	0.23928435938333303	0.45586319420666543
O	-3.0614597105333337	0.11836091438333307	-0.7575410757933345
O	-2.724505874333334	1.026274397383333	0.24894266420666555
O	-2.130671411533334	0.13898241438333303	1.2239142742066655
O	-2.032370443533334	0.7666158377033331	2.3622541242066655
O	-2.764433838333334	-1.144035294616667	1.4829176842066656
O	-1.9284288675333339	-1.620691244616667	2.6184124442066654
O	-2.2653419875333336	-3.039015574616667	2.4821695542066657
O	-3.587308973533334	-3.220623284616667	1.8475249942066654
O	-4.189564126533334	-2.472215784616667	2.8007171442066654
O	-5.3337876565333335	-1.9047970646166668	2.3680297942066657
O	-6.246832736533333	-2.6529060146166668	1.7532709842066656
O	-5.752866666533334	-3.7720739346166674	1.1590457242066656
O	-4.360490556533334	-4.100730944616667	1.2026979542066658
O	-5.691144776533334	-0.9407110046166669	3.3005782242066655
O	-4.940711586533334	0.31103729838333305	3.3298765142066653
O	-5.192949196533334	-1.3639190446166671	4.697352924206665
O	-2.609033112533334	2.351836065383333	-0.17235555779333456
O	-2.867892618633334	2.511944825383333	-1.6317259117933345
O	-3.973027396533334	3.065987265383333	-2.1686853257933345
O	-4.283744156533334	2.9633117753833327	-3.5259364357933345
O	-3.3197953315333337	2.6156213753833333	-4.436454955793335
O	-2.4269918675333337	1.768051404383333	-3.8954154757933344
O	-2.018182716533334	2.300796045383333	-2.6633966357933345
O	-7.122347876533334	-0.912121554616667	-3.1466490657933344
O	-5.771972086533333	-2.618581294616667	-2.9267688757933343
O	4.679289593466667	-0.7770871246166668	-8.487795505793335
O	1.2863929734666661	-0.24267222461666704	-10.205248305793335
O	0.737084793466666	3.256506545383333	-8.961057625793336
O	2.962450193466666	3.3530670653833328	-5.850695205793334
O	6.208845793466665	4.831672085383333	-4.580316225793335
O	6.252260073466665	8.297104535383333	-3.0491599957933344
O	3.344766043466666	11.286697355383334	-0.4073047387933345
O	2.750520073466666	7.549377605383333	-0.9881458111933346
O	4.971030393466666	5.352187245383333	1.1456880342066658
O	2.6552565634666663	2.720657935383333	2.5961647942066657
O	3.9086941034666665	0.10764690238333308	5.050535644206666
O	0.49379941346666634	-1.4696242946166669	4.879587134206665
O	-1.559062686533334	1.328176086383333	6.699258044206665
O	-1.0572192965333338	3.731914055383333	9.628418864206665
O	-2.607202017533334	7.100090115383333	8.719959684206664
O	-0.9700630065333338	10.167469515383333	7.309697554206665
O	-3.693560987533334	11.479508155383334	4.973691104206665
O	-11.646982316533334	4.7348491453833335	5.504283314206665
O	-13.586638896533334	2.4433555953833332	3.1983990342066653
O	-12.723063146533335	5.195992045383333	0.24517005420666538
O	-11.544109826533335	8.431730535383334	1.6676100342066658
O	-6.263121896533334	13.495083655383334	7.989275984206665
O	-11.396131296533333	5.985218935383333	-6.228244555793334
O	-8.630515026533335	6.974378115383333	-3.8108418657933343
O	-6.3516325765333335	9.149742105383334	-5.895732655793334
O	-4.812802476533333	7.455949505383333	-8.940786455793335
O	0.42156673346666595	8.676413205383334	-9.858218825793335
O	1.183942453466666	11.708395755383334	-5.316279985793335
O	-1.258389756533334	11.968252855383334	0.10020990420666542
O	-0.275615816533334	8.794663145383334	1.9358567742066657
O	2.197238593466666	8.043893405383333	4.680777484206666
O	0.9953848734666662	5.026324385383333	6.663655554206666
O	2.465006083466666	0.587179413383333	10.130321664206665
O	11.953358903466667	0.25209047238333304	-4.064205975793334
O	2.869149113466666	-5.014161704616667	15.767797864206663
O	-0.15472633653333379	-3.980235404616667	13.737006764206665
O	0.705239853466666	-4.633884904616667	10.098636364206664
O	4.297244753466666	-5.581731194616667	9.477883964206665
O	4.997405123466667	-6.6678678346166675	3.9083922442066656
O	3.1107271234666665	-3.967548284616667	2.1014779142066655
O	4.496127033466665	-1.3145723946166668	-0.10321193079333457
O	1.001183993466666	-0.19812430061666697	-0.7542540337933346
O	-0.04561848653333378	-3.323491104616667	-2.5927133657933346
O	1.211438273466666	-3.8292365246166673	-6.071052005793335
O	1.2744333834666661	-7.613472194616667	-6.288279905793335
O	2.728636223466666	-10.615636744616666	-4.514897135793334
O	-0.5602049165333338	-11.924679944616667	-3.1928598357933344
O	1.0280347034666661	-12.561128444616667	-8.575242675793335
O	-2.631471922533334	-12.756424644616667	-7.568386975793334
O	-4.919145626533334	-14.524755344616667	-5.164312105793335
O	-5.6478430365333345	-13.485389344616665	-1.6575861737933346
O	-8.430539036533334	-14.218856444616666	0.8467878542066655
O	-6.5514103165333335	-12.151688444616667	3.5204767642066654
O	0.9937138634666662	-9.851016544616666	0.8578699342066655
O	4.5143511534666665	-9.075778714616666	-0.1355706987933345
O	3.634792063466666	-6.083380334616667	-2.2755895957933343
O	5.779029933466665	-3.7204589246166675	-4.214905515793335
O	6.870945453466666	-6.143700134616667	-6.9452381557933345
O	8.438152603466666	-8.337949314616667	-4.310967525793335
O	9.899578403466666	-5.421034664616667	-2.4257889557933345
