101

O	-2.1370258721250006	-1.0574890828214287	2.5831657527142857
O	-3.3233670151250005	-1.1124661128214286	1.6653791167142855
O	-1.7703986051250005	0.2310173871785714	2.8426277627142857
O	-2.4639638951250005	1.0855211791785715	2.1278571307142853
O	-4.157313655125001	-0.023896690821428646	2.1518164187142856
O	-3.906983055125001	-0.01382164082142856	3.6924247527142855
O	-3.495175835125001	-1.0885836328214284	-0.7536966072857147
O	-3.5474865651250003	-1.1540619728214287	4.397689702714286
O	-4.144981095125001	0.8700455661785713	4.680019792714285
O	-3.5785772551250004	-1.4579446428214289	5.715373902714285
O	-4.073495545125001	0.7477480181785714	6.037284932714286
O	-3.6022648951250007	-0.40761578182142855	6.563494992714286
O	-2.6685374351250006	-1.1067499028214285	0.3331470427142855
O	-2.1364287351250004	-2.499020262821429	0.6288507567142855
O	-2.9323135351250005	-3.3741154528214286	-0.09578115728571457
O	-3.2601658851250006	-4.504969172821428	0.7217669137142855
O	-2.6653760951250005	-4.481761872821428	2.0717831557142854
O	-3.2400844351250004	-4.086482542821428	3.2376469927142857
O	-2.782026475125001	-4.390576372821428	4.5351244327142854
O	-1.4536833101250004	-4.837031032821428	4.461615592714285
O	-0.7007335331250004	-4.409773182821429	3.3556964427142857
O	-1.3519853437250005	-4.112585662821428	2.0990861467142854
O	0.6758431348749994	-4.846715682821428	3.4215258127142856
O	1.3681415548749996	-5.527047462821428	2.3173738517142857
O	1.6197520448749996	-4.473407302821428	4.460470182714285
O	-1.5662747691250005	1.0728458931785714	3.9917327527142854
O	-0.3215891251250005	1.6548573771785713	3.5662820327142857
O	0.5792933048749995	1.7479877771785715	4.616152642714285
O	1.6276236548749996	2.4573316171785713	4.587156162714285
O	0.4773687048749995	0.5970317824785714	5.371408812714286
O	-0.8704934151250004	0.23579710617857141	5.075571532714285
O	1.7014162548749996	-0.16267572282142861	5.693640112714286
O	1.1277591648749994	-1.2659740028214288	6.465788132714286
O	0.02623834487499943	-1.9578757628214287	5.910119092714286
O	0.7005017848749995	-0.6812402828214287	7.666308042714286
O	-0.47286699012500044	-0.9656447428214286	8.357282692714286
O	-0.8777739791250004	-2.5926580528214287	6.771306602714285
O	-1.2004526061250005	-2.0159265128214288	7.952321632714286
O	-2.0639077351250004	2.4627237371785715	4.079484902714285
O	-0.8749372221250005	2.2601218871785713	7.631709472714286
O	0.2247771748749996	3.0871748671785713	7.417973202714286
O	-0.07221844512500053	4.151816687178571	6.571359522714285
O	-0.8533082561250005	3.912708567178571	5.507199462714285
O	-1.4266547115250006	2.693425197178571	5.332700302714286
O	-1.5057625631250005	1.9763680971785713	6.491209332714286
O	6.9963495948749985	6.348978247178572	-0.3375097672857146
O	5.677561084874999	7.740533297178572	2.8415132727142858
O	2.2732014048749996	9.016834017178573	1.5005290537142855
O	1.9992165748749995	7.049872367178572	-1.7121570172857146
O	2.3159511248749993	7.566189267178571	-5.4878793272857145
O	-0.7571869451250005	8.675258557178571	-7.402528217285715
O	-3.282491745125	6.1790797071785715	-5.191001907285715
O	-1.6115585171250004	3.4497212171785714	-7.267666817285715
O	-2.030211904125	0.3611683051785714	-4.912872417285714
O	-0.7627810791250005	-2.997535372821429	-6.131191697285715
O	-1.7242373721250004	-4.456677342821428	-2.8837829272857145
O	-5.5162596151250005	-4.209623132821428	-3.213321187285714
O	-8.141322265125	-4.7607170828214285	-6.126772107285715
O	-10.786653765125	-2.0475901228214286	-5.727528547285715
O	-12.516247775125	3.5002751571785713	-4.697643817285714
O	-13.413672575125	-2.616779622821429	3.6875939927142856
O	-11.813435775124999	-2.834892792821429	7.155668082714286
O	-11.351108975125	1.3041952061785715	7.207063822714286
O	-13.568020675125	2.764261637178571	4.477295952714286
O	-16.766245675125	2.2786015471785714	-4.840166147285714
O	-7.886478495125001	6.765098517178572	9.138242672714286
O	-8.030397605125	6.171081467178571	5.367808672714285
O	-7.245474075125001	9.515280877178572	3.8073239027142853
O	-3.8300530051250004	10.981123187178571	4.5372990327142855
O	-1.1126420381250004	13.237349187178571	0.2578219627142855
O	-4.871943975125	11.899960587178573	-3.464985157285714
O	-8.996174015125	7.675571727178572	-4.001367747285714
O	-7.230608255125	4.397420267178571	-4.5881792972857145
O	-6.361632885125001	-1.3954522528214288	-6.5537521572857145
O	-4.219304785125001	-6.541195262821428	-8.011540217285715
O	-4.524396605125	-12.654665312821429	-6.247753857285714
O	-1.9309138131250005	-10.320123912821428	-4.736226837285715
O	1.1311334448749994	-9.924693012821429	-6.905909637285715
O	4.786293554874999	-6.571627952821428	-4.196469867285714
O	2.723704684874999	-3.7192173028214284	-2.5805766372857146
O	2.974184894874999	-0.1397429278214286	-3.7862112672857147
O	0.46310523487499955	0.7344711931785715	-1.1325417672857143
O	2.9029110348749994	-0.25195199282142855	1.5318215927142855
O	5.872307354874999	2.1569973471785713	2.4018747927142856
O	8.396132364875001	-0.2756352508214286	3.9284005127142856
O	10.099487524875	-3.4969702328214285	3.0481689127142855
O	8.250121954875	-5.692791592821428	5.526355292714285
O	11.694454824875	2.2094880871785714	12.315739392714285
O	12.380410824875	-2.143738932821429	7.049184772714286
O	9.829720824875	-3.465158382821429	9.553606872714285
O	8.412450994875	-6.7629324628214285	10.790343032714285
O	5.455885774874999	-8.566860612821428	9.301058462714286
O	3.123593974874999	-11.342180912821428	10.483420042714284
O	1.7568814248749993	-11.726900012821428	6.918400542714286
O	5.9771762248749996	-7.111646182821429	1.5507300897142855
O	8.017468034875	-5.3803852128214285	-1.0404231172857146
O	6.645207654875	-1.927021562821429	-0.40017123728571447
O	7.3212781448749995	1.3620212551785715	-2.0350109772857143
O	10.852102624875	1.8449189271785715	-0.7094273372857147
O	11.931346924875001	-1.3301775128214288	-2.4507130172857146
O	10.021814124875	-0.5208668928214285	-5.603982697285714
