100

O	5.070441021732143	-4.595410708739285	-2.2782839781607156
O	3.0404817917321427	-3.492623568739286	-6.670234259160716
O	5.493261451732144	-3.3396417187392857	-2.5756307591607155
O	5.1256848017321435	-4.831672188739285	-0.9402466641607155
O	1.913414111732143	-4.336994118739285	-6.7117234991607155
O	5.2911764317321435	-0.4286654637392857	-5.6142499391607155
O	3.6699430017321433	-3.232216088739286	-5.424122799160716
O	5.3873551717321435	-2.3296826187392856	-1.6101512211607156
O	5.104866681732143	-3.783462748739286	0.03119505083928442
O	5.179356651732143	-0.24475451473928572	-4.231636269160715
O	1.524648046732143	-4.969173898739285	-5.5226654691607155
O	4.104746111732143	-0.24112993473928573	-6.355922359160716
O	3.2752353017321427	0.9817824962607143	-4.689299849160715
O	1.964634411732143	-3.4711936887392856	-2.4921169591607155
O	2.8172971217321434	-3.2543701487392855	-4.411331969160715
O	2.627862841732143	-2.583800448739286	-3.2876511791607155
O	4.889176921732143	-2.4808740187392857	-0.3102125691607156
O	4.399772181732143	0.8782917842607143	-3.8807210691607157
O	1.835063021732143	-4.238409338739285	-4.390249149160716
O	2.9223337217321426	-0.0686377967392857	-5.580112479160715
O	2.8556596217321433	-1.5404531787392857	-2.4382880491607155
O	1.724449181732143	-5.804809078739285	-2.3804126431607155
O	1.593378411732143	-5.982656228739286	2.673275390839285
O	3.1757971817321433	-3.030967208739286	2.8537147208392843
O	0.738555907732143	-1.3032905687392857	-5.758867219160716
O	4.656005401732143	-1.2064535687392857	0.4872535608392845
O	4.455531901732143	1.7398372912607143	-2.7278367691607155
O	0.566993996732143	-4.971568238739286	2.2804240008392846
O	2.3542110117321426	-2.749837338739286	1.7073610508392845
O	0.388482986732143	-5.293204438739285	0.7448987808392844
O	1.837061621732143	-3.4579791687392856	0.5694054808392846
O	1.625005571732143	-6.016828848739285	0.16775002083928436
O	2.2025285517321427	-4.148688138739285	-0.5233333621607156
O	3.563855671732143	2.173096401260714	-0.5271797381607155
O	3.652113331732143	-0.35610461673928573	-0.20619193916071543
O	3.2227144317321432	0.9639850642607143	0.23400617083928443
O	1.641045431732143	-4.539544208739286	-3.144485209160716
O	3.042895881732143	-1.1383034887392858	-1.1304484841607154
O	3.383438921732143	2.2201304512607143	-1.9195901501607155
O	2.244454321732143	-5.481122728739285	-1.0388153181607156
O	1.953500121732143	-0.8375625027392857	-2.8053343491607157
O	0.521008045532143	-6.100787378739286	-2.3290918751607155
O	2.782200161732143	1.2874476212607142	1.4694914408392843
O	1.774691071732143	-0.47416793173928573	-6.158116309160715
O	-7.056853778267857	-5.583556818739285	2.1271309708392843
O	-4.648253348267857	-8.440256238739286	1.8873506608392843
O	-2.688111098267857	-7.582415348739286	5.112859990839285
O	-3.430136408267857	-3.920151028739286	5.484405100839284
O	-5.513424888267857	-1.6793821087392857	7.790831890839284
O	-3.896179278267857	-0.3675472397392857	10.942696980839285
O	-0.26601265726785706	0.37239634826071427	9.090238480839284
O	-2.164523258267857	3.224621231260714	7.476076360839285
O	-0.3113760702678571	3.8233944912607143	4.225618640839285
O	-1.2898152782678571	6.646786391260715	1.8625559708392845
O	1.303316720732143	5.321420091260714	-0.5388064831607156
O	4.419922631732143	6.259930961260714	1.4305564708392846
O	5.627848771732143	9.237887101260714	3.6599648908392846
O	7.635415641732143	7.829103291260715	6.575179620839284
O	8.624002261732143	3.8304450712607143	10.755228880839285
O	14.024666001732143	1.8158380712607143	1.8317396008392843
O	14.196213601732143	-0.9299865377392857	-0.7934453581607155
O	13.155842501732144	-3.6231317587392855	2.1307636308392843
O	13.630158001732143	-2.0664522887392858	5.524520760839285
O	9.910208621732144	-9.313670068739286	3.5484541708392845
O	8.564459391732143	-6.156940618739285	5.294678490839284
O	6.640363711732143	-7.412946528739285	8.307474030839284
O	3.720831441732143	-9.718250718739286	7.647697140839284
O	-1.013456618267857	-8.729844438739287	10.251888280839285
O	0.907416461732143	-4.344043628739286	12.851715480839285
O	5.017900471732143	-0.1934952527392857	11.934054080839285
O	3.8220857517321427	2.0137806512607144	9.105690780839284
O	3.208954221732143	7.0459007712607145	5.6300090008392845
O	1.674946091732143	11.002092941260713	1.7363691508392844
O	3.843314251732143	13.784437941260714	-3.5491518991607154
O	1.7410349817321429	10.621045241260713	-3.7468543591607157
O	-1.986133878267857	11.336160541260714	-3.5744631391607156
O	-2.567905178267857	7.301030831260714	-7.094388709160715
O	-4.709633078267856	6.339605501260714	-4.109818639160716
O	-2.7363653282678566	3.842508601260714	-2.0365006741607155
O	-4.009978458267857	2.0635270812607143	1.0401029308392844
O	-0.7623664982678571	0.1595825592607143	1.2460963008392847
O	-1.6225732382678568	-1.6590412287392857	-1.9425482031607155
O	-4.207177338267857	-4.435996008739285	-1.9822831031607155
O	-5.249691198267857	-4.498383228739285	-5.569024619160715
O	-6.641410788267857	-2.1133403787392857	-8.120786289160716
O	-3.591326288267857	-1.9465073787392857	-10.337572609160716
O	-4.721293028267857	-12.889777858739286	-9.732458159160716
O	-7.060062318267857	-6.402516578739285	-10.266401259160716
O	-3.4865139982678572	-6.697215868739285	-11.521137219160716
O	-1.076374588267857	-5.102500358739285	-13.949679319160715
O	1.176205526732143	-2.205917778739286	-13.188836019160716
O	4.231846921732143	-0.7213127587392857	-14.905466819160715
O	3.896455591732143	2.3746106312607145	-12.666831919160716
O	-3.183011338267857	2.360678321260714	-8.177341059160716
O	-6.393603478267857	2.5415125612607143	-6.349171439160716
O	-5.452840478267857	0.06458222966071431	-3.6454857191607157
O	-7.316973698267857	-1.1438110987392858	-0.6668219651607156
O	-9.875214798267857	-3.2108056887392857	-2.5624131391607152
O	-11.097153298267857	-0.11620129873928568	-4.302558719160715
O	-10.947664598267856	1.9925186812607143	-1.1717019041607155
