94

O	4.215467823238096	0.6763953503603175	2.927016929328573
O	5.651256333238096	0.8534384314603175	3.2757673593285728
O	6.1454179932380955	0.8279167530603175	1.7702025593285726
O	5.4403370132380955	1.8183821994603178	1.0793685093285728
O	4.153977033238095	2.3857942194603177	1.4052250593285727
O	3.487461383238095	1.5765986464603174	2.1378495993285727
O	2.4022522432380953	-2.2423163605396823	2.2092493993285727
O	3.387076693238096	-3.214579440539682	2.450096229328573
O	4.688925843238096	-2.9475425205396824	2.9180561293285727
O	4.7748613032380955	-1.6824599705396825	3.4842759393285725
O	4.233063563238096	-0.7422569505396824	2.6037707893285726
O	3.0175300932380953	-1.0110918505396826	2.1761239693285725
O	1.6355714232380956	-2.0207204305396824	1.0005689593285727
O	3.624596373238096	0.5969744334603175	4.266624179328573
O	3.719806043238096	3.409813269460318	0.4917157593285728
O	6.314392263238096	-0.38884561053968236	1.7781494393285726
O	6.121991683238096	2.2824855094603174	-0.024500436671427317
O	5.200881583238096	-0.7704288405396825	-1.0329237356714271
O	5.512321283238096	-1.8131614605396824	-0.10762384667142727
O	4.234405673238095	-2.1761876205396824	-0.041199580671427316
O	3.0612301232380954	-1.5127170505396825	-0.5435469065714273
O	3.0498839032380953	-0.2079245185396824	-0.3954562926714273
O	4.295726243238096	0.02219177246031756	-0.5225402495514273
O	2.2700107132380953	-2.615734530539682	-0.04562602267142729
O	2.677892133238095	-3.8204608405396825	0.3813965573285727
O	5.1975503232380955	-1.1414494705396825	-2.3403365106714276
O	5.434415253238096	-2.4294775705396825	-2.538359430671427
O	4.381561083238096	-3.3136433205396822	-2.6782007206714273
O	4.610735053238096	-2.749888260539682	-4.052574640671427
O	3.0295055632380956	-2.8719157005396823	-3.002613500671427
O	4.0572328032380955	-4.438965760539682	-3.441444860671427
O	-10.585658936761904	-5.950322910539683	0.5553029193285728
O	-7.111254486761904	-7.137662630539682	-0.44676035457142727
O	-5.016864706761904	-7.382986670539682	-3.5799908206714273
O	-2.057642496761904	-5.569338790539683	-5.225589950671427
O	0.6676412632380956	-7.747523850539683	-3.6519017506714273
O	-0.2742327217619044	-7.356540800539682	0.07892565432857268
O	-2.4668442267619044	-4.251929700539683	-0.1657284906714273
O	-5.8723841067619045	-2.9650800605396825	-0.008724831671427347
O	-7.490156236761905	-2.2917044005396825	3.3555907893285726
O	-8.461763556761904	-3.6370527105396824	9.158735409328571
O	-6.387979376761904	-0.7654142205396824	7.8948359593285735
O	-4.063130166761904	-0.5258672805396823	4.884403539328573
O	-4.9800749467619045	2.2847148794603176	2.510327729328573
O	-1.6905137167619044	4.027346419460318	1.8191361493285725
O	-1.5349478167619044	7.200323119460317	-0.2917998046714273
O	2.2429139032380956	7.098587869460317	0.041835589328572675
O	2.3487285932380955	8.082646779460317	3.7600372793285723
O	0.7168612762380956	10.384503399460318	6.265017689328572
O	0.3481609532380956	8.569572929460318	9.588651659328573
O	-2.6160656467619043	6.689282089460317	10.982133759328573
O	-0.8266462467619045	3.8674314894603175	12.857009159328573
O	10.386619463238096	-0.2274380805396825	10.504878859328574
O	7.786169413238095	0.42924312446031754	13.217091159328572
O	10.383565333238096	-5.192241310539683	12.023513259328574
O	9.141059293238095	-6.580695530539683	8.739818819328573
O	6.104948523238096	-4.210364620539683	8.980313839328574
O	3.1351370132380953	-6.542719570539683	9.373939659328574
O	2.6181318332380954	-8.942140940539682	6.456224099328573
O	-1.9756229567619046	-13.147501210539682	5.997122719328573
O	-2.5554535967619048	-9.555732310539682	4.714928939328573
O	-5.386371116761905	-9.409952710539683	7.228331889328572
O	-4.549172366761904	-5.764882650539683	8.034854409328574
O	-2.7000482067619043	-0.8716264505396824	10.753471259328574
O	-2.0667301167619048	1.7366549244603176	8.086657329328574
O	-4.014883336761904	4.821050679460317	6.982770719328573
O	-1.6511511267619043	7.426465469460317	5.5866230793285725
O	-3.628026306761904	9.574364139460318	3.2216864493285726
O	-0.8374457967619044	11.873403989460318	2.0406993193285725
O	-8.721574066761905	-0.6769369805396824	-6.300408770671427
O	-11.432079136761905	-5.5764409205396825	-3.4107162806714273
O	3.382342683238096	12.849168889460318	-1.3845641076714275
O	0.6613995468380957	12.975674589460318	-4.051493300671427
O	0.5225958186380956	8.025049979460318	-6.781542590671427
O	1.0409430832380955	5.403077549460317	-4.085364840671428
O	-1.3674827867619044	2.5966155594603175	-3.1335120706714275
O	0.9385357922380956	1.3373491044603174	-0.5606943174714273
O	2.988151633238096	0.6217651144603176	-3.4323646906714274
O	2.2925749732380956	-2.7086845305396823	-5.719716580671427
O	4.160004173238096	-1.9963749405396825	-9.049015170671428
O	4.456176073238096	0.7967374974603175	-11.482311440671428
O	5.827074453238096	-8.467351220539681	-14.697834640671427
O	4.609786433238096	-5.5951533405396825	-12.436775040671428
O	6.874933173238095	-2.781778290539682	-13.673958440671427
O	10.217934123238097	-2.1384993205396823	-11.965451840671427
O	13.201436063238097	3.2774282994603174	-9.040645370671427
O	13.321262263238095	7.6056343994603175	-5.816924170671427
O	5.599714143238096	5.475874849460317	-8.408435990671428
O	1.4570001732380957	1.7845514494603174	-7.436055930671428
O	-1.4646779767619045	-0.5555524405396824	-6.904490240671428
O	-1.2979288567619045	-2.339582650539682	-10.252644950671428
O	-1.6792301967619043	0.9681793554603175	-12.074263140671427
O	-4.342618346761904	2.1305928094603175	-9.725081820671427
O	-6.325145776761905	-1.0502167005396825	-10.500107350671428
