32

O	22.08569326247109	12.404547247032525	24.77336445072428
O	22.07529438417327	11.770674305503722	23.484159047259112
O	21.10748750824982	13.3187963333866	21.96388283751719
O	21.582227868499608	12.135690614866284	22.173558877432995
O	21.30463274643687	10.140132378031964	22.26645015793173
O	26.61396996087072	10.625694818676028	19.668433141280406
O	21.68008480610958	11.006387326890644	21.282548246604335
O	21.76293645825897	9.486124763414995	24.61106547213598
O	21.957177181103436	10.342020059074647	23.4454350815883
O	25.060970106028133	12.985078267347614	23.61656881388673
O	22.190587634299284	10.038330208843616	20.34151148404516
O	23.706779357032886	14.52426865236328	22.879775587490336
O	22.948836205366348	9.74864983547967	19.143617553744615
O	24.480486849738373	9.661836921072277	18.983367872706957
O	25.481293204590855	9.867791180287135	19.830104327439088
O	24.79869844542314	9.646893271404124	20.987201850265286
O	23.294902813094325	9.63101252621971	20.772278297715737
O	27.488831073013213	10.772807384389324	20.730345117457574
O	22.057247580900164	11.744369338416009	20.133335481699305
O	22.557930453090705	11.810165401542882	18.834434189362387
O	23.84147527278372	12.093296024549318	18.1990621948751
O	24.562880519053635	12.981471201494088	18.848821361501766
O	24.553998315365796	12.703977698000456	20.139157100438787
O	23.463291430636836	11.865025039953128	20.45304490570007
O	25.15523549030733	13.311927657383436	21.285281816788512
O	25.093359037035366	12.451402103100548	22.395552749323947
O	24.377727548038063	14.074384865298745	23.88681336234682
O	24.221880276135643	14.210885561398015	21.664866891081658
O	27.90013051433933	12.037598838338791	21.008811437952268
O	27.254986089681324	10.206022550933561	21.908265154662523
O	28.667524508707963	10.186936084251313	20.30378328185737
O	25.85601067861865	13.199380638845783	18.429544845877427
