87

O	-4.839753817364406	-2.486824170977966	2.019093066830509
O	-4.478677147364406	-3.7681348709779656	1.782990696830509
O	-3.1485630673644063	-3.838843340977966	1.5470455068305091
O	-2.6259395733644064	-2.6693321909779657	1.136105966830509
O	-4.498549107364406	-0.7040535959779661	-1.725249948169491
O	-2.921537951364406	-1.4168145509779662	1.456854406830509
O	-4.178507257364407	-1.377375930977966	1.7067252568305091
O	-1.8409743853644063	-3.2887549509779657	0.09639845683050896
O	-2.166598110364406	-4.1986041609779665	-0.777146749169491
O	-0.8687029973644063	-2.3209667709779658	-0.10986491216949101
O	-5.648409697364406	-2.228891120977966	3.188306626830509
O	-6.906632127364406	-2.0790540409779656	3.019335516830509
O	-1.1783456853644063	-1.7742223009779663	-1.441817542169491
O	-1.1710411013644064	-2.9071325509779657	-2.227175213169491
O	-2.0028602040644063	-2.644086280977966	-3.2737949631694914
O	-3.296385977364406	-2.487848570977966	-2.764135793169491
O	-3.402547807364406	-1.649192390977966	-1.698666535169491
O	-2.344147915364406	-0.9641709409779662	-1.194884669169491
O	-4.179357017364406	-0.08200188397796607	-3.1151186831694906
O	-6.167621687364406	-0.027669028977966054	0.686551506830509
O	-5.1376550073644065	0.7701798070220339	0.10300863683050898
O	-5.1781698773644065	1.786821529022034	1.1197704268305089
O	-5.609366227364406	-1.451961830977966	-1.355133126169491
O	-4.421926137364406	0.48956281302203397	-0.861130073169491
O	-6.652714337364406	-0.9883413509779662	-0.28673487516949103
O	-4.086234127364406	-2.294230820977966	-3.873845703169491
O	-5.670575897364406	-2.8257039309779657	-1.218450302169491
O	-6.554278927364407	-1.282983090977966	-2.3780951731694913
O	11.357233342635595	-1.4853911709779661	3.2750101768305084
O	8.522115542635593	-4.000987530977966	3.566171946830509
O	6.143574952635594	-5.333577990977966	6.197112036830509
O	2.5206208226355935	-4.944034900977966	7.276479806830508
O	1.1255602126355937	-7.7928504809779655	5.167079776830509
O	2.509366892635594	-6.7129546509779665	1.772586036830509
O	3.256086872635594	-3.076809150977966	2.466546856830509
O	5.918599022635593	-0.5576798169779661	2.992133916830509
O	7.626717162635594	1.003930998022034	0.008372536830508981
O	9.869211042635595	0.695449242022034	-5.571912433169492
O	6.595942932635594	2.321820669022034	-4.643618043169491
O	4.099726052635594	1.5090551890220338	-2.024209613169491
O	3.5556933426355934	4.3123144590220335	0.4896412468305089
O	-0.23307746736440627	4.5905647290220335	0.684771826830509
O	-2.016338517864406	7.177619999022034	2.805650396830509
O	-5.368662047364406	5.639482579022034	1.8588359068305091
O	-5.403951077364406	6.700484889022034	-1.8453655521694912
O	-4.480742947364407	9.627179809022035	-4.031356083169491
O	-3.001378225364406	8.314323749022035	-7.279948593169491
O	0.6126325426355939	7.826834019022034	-8.19984686316949
O	0.38679715263559356	4.7034820790220335	-10.364612853169492
O	3.180767202635594	2.4950787190220343	-11.631887533169492
O	-11.641970637364405	-1.043450920977966	-9.510414323169492
O	-8.360267967364408	-3.560787520977966	-10.085175613169492
O	-5.829147457364407	-1.733077310977966	-12.269279933169491
O	1.5823820226355938	9.230712979022035	-13.396906333169492
O	-6.099837607364406	-7.978205200977967	-11.551327433169492
O	-4.878899717364407	-9.048432140977965	-8.14323294316949
O	-3.0411554643644063	-5.709065550977966	-7.8408852931694915
O	0.6366848426355936	-6.6147407209779665	-7.812344803169491
O	1.7293271826355938	-8.860042350977965	-4.925620153169491
O	4.355318122635594	-11.599327600977965	-5.8080566531694915
O	7.5227990726355936	-10.907002700977966	-3.7555954631694908
O	6.335789422635593	-7.493944000977966	-2.325286223169491
O	9.269564642635594	-5.997154970977967	-4.301154083169491
O	7.121398752635593	-2.9192046109779657	-5.198190793169491
O	3.7503767026355934	1.016173278022034	-8.07246824316949
O	1.670407372635594	2.8563792990220342	-5.4785184531694915
O	2.0523314326355937	6.343154119022033	-4.078666193169491
O	-1.2943508623644062	7.7129319690220335	-3.033138103169491
O	-0.6274291973644062	10.339400099022034	-0.38317752716949105
O	-4.206184197364406	11.340466799022035	0.419537936830509
O	6.603410082635594	2.004467589022034	9.82197736683051
O	-8.906569057364406	10.334604899022034	3.1887206268305084
O	-5.3265186573644066	6.394990249022034	8.83560228683051
O	-4.312992577364406	4.0269347490220335	5.982567766830509
O	-0.7358712773644063	2.731154219022034	5.507495086830509
O	-1.8688937023644063	0.8529303300220339	2.5427213468305094
O	-3.746545747364406	-1.1799930809779662	5.062100526830509
O	-2.567349727364406	-4.169746830977966	7.022114166830509
O	-4.9938126773644065	-4.457364310977966	9.991190466830508
O	-4.546866997364406	-8.405508230977965	12.868077766830508
O	-10.795062527364408	-7.401846990977966	11.550015466830509
O	-16.558961057364407	1.161710307022034	5.534176516830509
O	-3.7316228773644062	0.30149731182203393	9.196838166830508
O	-0.12780431736440634	-0.665565462977966	9.124858166830508
O	-0.09042056736440629	-2.793458370977966	12.294257466830508
O	0.9734820726355937	2.579128229022034	12.54837916683051
O	3.908768342635594	0.29794702192203393	13.511173366830509
