95

O	2.65059581257	5.635184021533334	4.342120383316668
O	2.29657767257	4.256810611533333	3.7608226933166677
O	3.27852797257	3.2227866215333334	4.412269863316668
O	4.63765379257	3.3691333615333336	4.690271273316668
O	5.35920696257	3.3711366315333335	3.4139416333166674
O	4.42787224257	3.2771394215333336	2.6210184433166672
O	3.45796542257	2.3482486015333333	3.2306884733166674
O	2.66513018257	2.0344212115333336	2.1171829833166673
O	2.42230534257	2.6588526215333337	0.9573937233166674
O	2.7933938025700003	4.026681221533333	0.9466290333166674
O	3.71092109257	4.3152781615333335	1.8411342233166672
O	2.09499380257	1.9826106415333333	-0.3527728091433326
O	2.93555901257	0.7078351295333335	-0.3848864594833326
O	1.95298644257	-0.39902997846666655	-0.1971902536833326
O	2.67790523257	-1.4444427884666666	0.5027918343166675
O	3.30931424257	-1.2810576984666664	1.8214904033166675
O	4.64494959257	-0.22768218846666655	1.7585266233166674
O	3.7665901925700003	0.7632896935333335	0.7646896633166673
O	5.97609963257	-0.22638096846666655	1.2294650533166673
O	4.97786847257	-0.05628589346666657	3.198503863316667
O	1.62556168257	-2.3857424184666662	0.8845452133166674
O	2.37898141257	-3.3116110584666663	1.7659533233166673
O	3.67911901257	-3.471589788466666	1.1486809833166673
O	3.45711523257	-3.4236346684666668	-0.2234585066833326
O	4.3990758325699995	-2.8646133184666662	-0.9807679066833326
O	5.69657591257	-2.8124232084666665	-0.5552970896833326
O	5.94759494257	-3.2680487684666666	0.7302258833166673
O	4.91492256257	-3.5355416184666666	1.6582886533166672
O	4.20352703257	-3.6734132984666665	-2.2372106466833324
O	5.14572306257	-3.2488117084666666	-3.158264766683333
O	3.9944971325700003	-5.103633138466666	-2.1627945966833324
O	3.02368917257	-3.035309388466666	-2.8416455166833328
O	1.39641896757	-0.8994893584666664	-1.3441190316833327
O	4.04210203257	5.4383534615333335	4.577120823316668
O	2.81302003257	6.327258011533334	3.1765851333166673
O	-0.9327601474299998	9.753167151533333	4.248753763316667
O	-3.0871774574299997	7.145103001533333	2.695178083316667
O	-6.65675791743	7.031919531533333	1.4065738933166674
O	-7.48139083743	7.895328121533334	-2.2006650766833324
O	-6.57103703743	11.303069741533333	-7.108709226683332
O	-5.31530964743	7.771908891533333	-6.624739446683332
O	-4.03136688743	5.956945181533333	-3.519328516683333
O	-6.06260235743	2.8170764615333335	-2.7976453066833327
O	-3.43969208743	0.16155690953333346	-2.0988213266833324
O	-4.54992456743	-3.4153805284666667	-1.3463105546833325
O	-0.96850002743	-4.161909778466667	-0.6625135416833325
O	0.09692657657000003	-3.8256725784666665	-4.389302176683332
O	-0.72236432743	-4.687732908466667	-7.882885626683332
O	0.31805456157	-1.8170151784666664	-10.155436496683333
O	-1.77259021743	1.0826755755333335	-11.389612286683333
O	0.87617120857	3.8247317415333337	-11.512585186683332
O	9.819597252569999	-0.3985683084666666	-8.294356056683332
O	12.182768112569999	0.09684800053333342	-5.293228316683332
O	11.188756212569999	4.051070701533333	-5.3328082266833325
O	9.459817732569999	4.922295531533334	-8.588076396683332
O	2.72474568257	2.7797717815333334	-15.432026586683332
O	10.327241262569999	9.422064541533333	-1.4949808966833327
O	7.27154979257	8.376645861533333	-3.5936841466833327
O	4.87960968257	11.318125141533333	-3.582457286683333
O	3.85517113257	12.653884941533333	-0.1323961616833326
O	-1.4425458274299998	13.779977241533333	0.5410839233166673
O	-2.9077892574299997	11.944737941533333	-4.415268036683332
O	-1.00324284743	7.923144231533334	-8.352745776683333
O	-1.5024478474299998	4.504701361533334	-6.7746537866833325
O	-4.15184138743	1.8154782715333335	-7.5105825766833325
O	-2.72679586743	-1.6067812184666663	-6.691522116683332
O	-3.8032007974299997	-7.094028048466666	-5.1124022966833325
O	-3.0277625274299997	-9.974127258466668	-7.487436516683332
O	3.10998114257	-9.440950158466668	-7.210282416683333
O	2.75402665257	-7.052373788466666	-10.155178356683333
O	-3.72651042743	-15.019123358466667	-4.206558906683332
O	-0.7610557874299999	-12.661230758466667	-4.318568936683333
O	-1.13124095743	-10.211817358466668	-1.4124607666833326
O	-4.48362022743	-10.474595658466667	0.34211529231666743
O	-4.51230800743	-6.833455208466666	4.745923173316668
O	-2.90987285743	-3.6569237684666662	3.4122378933166675
O	-4.40608085743	-0.3026830784666664	2.9549593633166675
O	-1.2606860574299998	1.1683835985333335	1.8333684533166674
O	0.35809991467	0.4868239875333335	5.231534463316668
O	-0.4953311704299999	2.9339003315333336	8.120170153316668
O	0.23682270557000004	0.7245965535333334	11.106359513316669
O	-0.7523008074299999	-2.6202623184666662	12.477047313316667
O	2.65493732257	-4.243630188466667	11.928800513316668
O	1.53941938257	-0.6688577784666666	16.202306113316666
O	5.07435598257	-1.4262823284666664	15.067727513316667
O	7.4911165225700005	-4.219646348466666	14.337385013316668
O	7.82308427257	-6.049913038466666	11.118491013316667
O	10.466054212569999	-8.353466438466667	9.632199423316667
O	8.03101589257	-9.208529858466667	6.776719143316668
O	0.31893530727	-6.291528188466667	8.283054853316667
O	-3.1835464774299997	-5.1230859784666665	8.966189413316668
O	-2.5867796574299997	-1.5545681284666664	7.809636283316667
O	-4.87863171743	1.3546559935333335	7.552931703316668
O	-6.78104474743	-1.4624155984666665	11.715388113316667
O	-8.832148887430002	-1.1440331884666666	8.574094953316667
