71

O	-0.042500487933333164	-4.783959535116667	0.7218045439999996
O	0.8814335980666669	-3.758529135116667	0.5563890599999997
O	-1.3672548119333332	-4.249998305116667	0.9381142029999996
O	0.4253569280666668	-2.958873325116667	-0.43928810800000034
O	-1.7930546009333332	-3.1459902451166672	0.3172614036999996
O	-0.8609962259333332	-2.742267665116667	-0.5987006630000005
O	-1.3519907629333332	-2.7774330251166672	-1.9220817100000005
O	2.0836330280666666	-3.215546055116667	1.3194736499999995
O	3.1816711180666664	-3.381787925116667	0.24038296639999962
O	3.541772768066667	-4.864411965116666	0.34179420859999965
O	-2.373708761933333	-5.1023849451166665	0.9898785209999996
O	-8.331892901933333	-2.130932375116667	4.8769152
O	-7.426423951933334	0.49590418188333313	2.3255350599999995
O	-8.479718831933333	3.961298174883333	1.1459328989999997
O	-7.057296201933333	6.992679064883333	2.9095722199999994
O	-5.338982151933333	9.901465584883333	7.921527859999999
O	-3.0114745519333335	8.459839224883332	5.3251481499999995
O	-3.276302681933333	5.270571214883334	3.2231343299999997
O	-3.1682516919333334	6.0335737048833336	-0.5093308470000004
O	-0.6774739829333332	3.658031494883333	-1.9467440100000006
O	0.4159051680666669	3.3234393948833327	-5.504695470000001
O	2.457836888066667	0.25241969988333307	-4.7314299
O	5.205490218066666	2.032515124883333	-2.6716947900000005
O	7.241537218066666	5.223512094883334	-2.5939352500000004
O	7.613493638066666	6.257336084883334	1.0477081379999997
O	5.581415418066666	8.755452194883333	3.0114135799999997
O	5.6082480880666665	7.086286794883334	6.444164949999999
O	11.022286458066667	-1.7094572751166668	5.603606729999999
O	10.179566858066666	-5.448842865116666	5.83796311
O	7.421899598066666	-4.544113845116667	8.771497400000001
O	7.946316508066667	-0.997286085116667	9.973204970000001
O	11.062183158066667	0.7814985198833331	11.25182593
O	8.694372548066667	11.764985774883332	6.33894819
O	9.622270958066666	8.415618444883332	7.82254106
O	4.8921852280666664	-5.420173785116667	13.21198723
O	1.5617972680666665	-6.222948425116667	11.55387533
O	1.6444155380666667	-2.825282405116667	9.80874002
O	-1.2211714949333332	-0.872805101116667	11.358909930000001
O	-4.695880071933333	-2.3577204251166672	10.87490313
O	-8.698262051933332	1.1205211048833332	9.38455293
O	-8.715160761933333	4.653806494883334	10.78234503
O	-5.386771761933334	5.439156584883333	9.02486742
O	0.3349393880666668	6.438323024883333	7.89141364
O	0.9723990980666667	5.527302404883334	4.26431205
O	1.4686694880666669	7.743360684883333	1.1923832399999996
O	3.6759598480666664	5.976331714883333	-1.3345123900000004
O	2.820322898066667	7.338847164883333	-4.7426164900000005
O	5.160025938066667	5.251231704883334	-6.88651006
O	8.657677468066666	6.163896834883333	-8.08546794
O	9.483000658066667	2.113463724883333	-10.40363857
O	6.140674968066667	0.5147945068833331	-9.5813873
O	3.351193688066667	1.6513719348833331	-11.90600327
O	-1.4395396469333333	-1.0957817251166668	-10.53246407
O	-1.504926149933333	-1.0637481751166669	-6.781374100000001
O	-4.130098821933333	0.6629408668833331	-4.596494290000001
O	-2.795216651933333	-0.3549775301166669	-1.6349881900000005
O	-3.630653581933333	-4.319095185116667	-2.6243073600000004
O	-6.880175551933333	-5.576741255116667	-1.8643151700000002
O	-7.080287151933334	-8.351377365116667	-4.47994915
O	-6.540332611933334	-8.863410885116668	-8.149593659999999
O	-3.4276771819333334	-11.021879025116668	-7.966131490000001
O	-8.603880391933332	-12.982008125116668	-6.75367091
O	-5.476630871933334	-14.705832625116667	-5.4980354700000005
O	1.0318687480666666	-14.228909925116668	-6.99298508
O	4.721549708066667	-15.185419025116667	-7.00840972
O	5.592304338066667	-11.537676725116668	-7.758534140000001
O	-1.3160573289333333	-6.923933445116667	-9.305635749999999
O	-5.444674201933333	-4.128971115116666	-6.599015240000001
O	-8.231751121933334	-2.155015395116667	-4.967959100000001
O	-10.091354521933333	-3.970772875116667	-9.62542568
O	-9.503488111933333	-0.2666625381166669	-9.14167487
