43

O	29.100792788436365	13.161043635678233	22.437453471182366
O	28.98575296471046	12.762519844709644	20.998102900896228
O	28.233878462712124	14.21416693250854	22.87596084101921
O	27.534197447849643	17.179083111931988	24.97478322188691
O	26.910002555045782	17.763905824643537	26.249000109416002
O	26.24216000345799	16.414589259369098	27.14963665051195
O	25.53537424901587	16.509153242820744	28.405654008416498
O	27.42143119515487	15.587977174290543	27.4367031684501
O	25.018388667139178	15.823632320461337	26.014379459959105
O	24.975182503053418	16.90095282707539	24.956208808326167
O	25.492538099941434	14.61996868676726	25.48641642245044
O	24.611972172160023	13.70858633366204	24.9848085897088
O	25.032658247471048	13.096915954130296	23.80576089654419
O	26.291971087308216	13.010919398850092	23.317379723728717
O	27.054128010075402	14.090782473807057	23.622189105978492
O	26.730338288604212	14.569053306601607	24.900717867883237
O	24.11830594262304	12.75698558556288	22.788125792836258
O	23.56578076269228	13.780510821987864	22.57754020409209
O	23.5698770502686	11.541729984619108	23.065262781592498
O	22.766582684657727	10.828688524101768	22.169414438542308
O	23.52099184103328	10.63650621232622	20.942409827039995
O	24.220088375517683	11.932291536638466	20.583223741017196
O	25.50767105646326	12.329186012880017	20.23937405977547
O	25.871658804622047	13.717079475932382	20.186654163676764
O	24.938829564358304	14.711776661274396	20.164649878582868
O	23.651508187615793	14.227985033490757	19.89399629068042
O	23.38844592187779	12.830626415971873	19.974481128674576
O	22.001991824957123	9.93234479538149	23.012738409004026
O	26.310589480176507	16.757063198772865	24.127539833384063
O	21.936306139522486	8.624585730898154	22.906483563162084
O	21.855698781897534	10.370781862275452	24.381991423952616
O	20.962809438323298	9.566068987217385	25.12480522919166
O	20.31383305988384	10.37281445704105	26.110927748363096
O	19.9595729241478	11.727698037718143	25.6993534623425
O	20.067390336993004	12.734926097259445	26.67899937706348
O	20.270379324183597	14.101290174217926	26.435976180611153
O	20.57648369958193	14.336446559839143	25.089154814751897
O	21.187890044845684	13.335603441749514	24.308772762610857
O	20.71729652076087	12.086714389354979	24.56852825107535
O	20.952669084069697	13.729909678346234	22.90976657834041
O	20.961214210901915	12.914408324749118	21.870565652441876
O	19.54331154475722	13.71717820533132	22.88386868673467
O	21.24065943489695	15.050631656693081	22.714769874079003
