76

O	0.6637312386428572	-2.3596115634642856	-5.250961571635714
O	0.08057314564285722	-2.4720918534642853	-3.1044737216357143
O	1.1624171486428572	-1.8248157934642855	-6.299881531635714
O	0.5492329086428572	-1.4861874234642856	-3.9991791616357144
O	-0.5978999193571428	-3.0045117834642854	-5.221987621635714
O	-0.8724717090571428	-3.1061198834642854	-3.835711241635714
O	-1.7002511753571428	-4.200722983464286	-3.370946261635714
O	-1.4950825133571426	-3.1568703834642853	-6.364538411635714
O	1.9718633986428573	-0.9695195834642857	-3.6600065116357143
O	2.354895528642857	-0.48952304346428555	-4.9215549816357145
O	3.085603558642857	0.6007029002357144	-5.237081511635714
O	2.812355978642857	1.6345779865357142	-4.3191922016357145
O	2.978778278642857	1.1170902845357142	-3.0213906216357143
O	1.957719108642857	0.19296404653571442	-2.8311699116357145
O	0.08765114164285726	-0.17250507546428562	-4.2557076416357145
O	0.24918185864285725	0.1687872025357144	-5.594667801635714
O	0.09291527964285728	1.3653815045357143	-6.234059751635714
O	-0.7742665967571427	2.2057172265357146	-5.512044761635714
O	-0.27634841835714274	2.2556225365357143	-4.242643811635714
O	-0.0882878073571427	1.0088908855357144	-3.5937522616357143
O	-6.290212201357142	7.242193836535715	-5.118126771635715
O	-6.919287411357143	4.919726196535715	-2.203413591635714
O	-8.586332281357143	4.968844266535714	1.265655188364286
O	-6.492992481357143	6.036702946535715	4.244408638364286
O	-2.322525081357143	9.635870466535714	6.760260348364286
O	-1.7986277003571427	6.008624166535714	5.776137568364286
O	-3.147112851357143	4.010927516535714	2.877478308364286
O	-5.126692281357142	0.9289239005357144	3.9872300383642862
O	-3.724710781357143	-1.8832871034642853	1.7889803883642859
O	-4.8584290813571425	-5.486183313464285	2.0846023283642854
O	-2.652636411357143	-6.375452463464286	-0.8994070816357143
O	0.7109982686428572	-5.943924313464286	0.8511530883642859
O	2.415532858642857	-6.574047063464286	4.167516238364286
O	4.716316878642858	-3.5946645634642858	4.757366328364286
O	4.074396958642858	-0.6034395334642856	7.005983738364286
O	6.011822098642858	2.0454577665357143	5.036789038364286
O	5.9670587786428575	5.8038009565357145	5.459548168364286
O	13.848165698642857	-2.4100655334642855	-1.5596349376357144
O	10.383335998642856	-2.7667890834642854	-3.0112574516357142
O	10.140037398642857	-2.6093959734642853	-6.831663271635714
O	9.329043398642856	1.5249088925357144	-6.499921751635714
O	10.254167098642856	2.6984186065357143	-3.0087318116357142
O	13.378506498642857	2.2415902865357142	-1.0399452016357142
O	8.407401408642857	0.8342351725357144	9.993233648364287
O	10.067709798642857	1.1490997555357145	6.617081668364286
O	9.610796898642857	6.520034326535715	-7.945908441635714
O	5.989693838642857	7.027609486535715	-8.938307541635714
O	4.998199558642858	5.970990536535714	-5.407164491635714
O	3.275334798642857	8.914636776535714	-3.852320241635714
O	0.11937865564285721	10.062121026535713	-5.671564381635714
O	-0.2825450433571427	13.845017476535714	-5.981299401635714
O	-3.419026461357143	13.140927376535714	0.9657055683642859
O	-1.6567624023571428	9.924041026535713	2.1661037583642857
O	1.985014408642857	9.727617316535714	3.2432459783642864
O	2.4349486986428572	6.054802596535715	3.896757448364286
O	0.9690915786428572	2.6025346965357143	3.440316468364286
O	-0.3490530833571428	0.02338248753571437	5.863348298364286
O	0.13229197764285727	-3.4804756634642855	4.500201768364286
O	-2.468493581357143	-5.664006323464285	6.157505348364286
O	-1.6769168643571426	-8.976851413464287	4.458635238364286
O	0.5379130586428572	-11.777276423464286	5.782070898364286
O	4.248565068642858	-11.970541823464286	6.568707198364286
O	4.769461228642857	-11.476915623464286	1.2798668083642857
O	6.515233608642857	-8.956516953464286	3.5422881283642855
O	0.023787135642857282	-14.645546323464286	2.031197538364286
O	-2.2806778713571427	-12.350224623464287	0.10883078836428584
O	-6.981910381357142	-5.9876986234642855	-2.4195923116357143
O	-8.027807351357144	-2.5373124934642854	-1.1000814030357142
O	-4.897710291357142	-1.2001150334642854	-2.6581247916357142
O	-6.135863171357142	-1.9277839834642854	-6.225500321635714
O	-8.692188291357143	0.39330564453571437	-7.753427951635714
O	-10.349792901357143	-1.9871957134642857	-10.260768171635714
O	-9.297468541357143	-4.413584903464286	-16.385084551635714
O	-10.098529751357143	-4.048817533464286	-5.761511321635714
O	-11.686809101357143	-1.0105907834642855	-4.153485231635714
O	-15.093090001357144	-3.597642323464285	-1.9919635326357144
