32

O	25.20049116585345	16.934364629162022	25.565721355697352
O	23.970471488845263	14.49060223457294	25.31150589827649
O	23.25223847047735	13.069951475072338	23.42304099690387
O	24.649321034909498	15.204598661778059	24.399138697348896
O	26.814530661914933	13.535381061294265	20.05135651980667
O	25.49412590130212	13.176438110490196	20.435162540925017
O	22.80266051224391	13.836730508099343	24.55271988207283
O	25.199683040196447	11.959911931875132	20.988537304114367
O	24.171647989889678	10.953364092855285	20.996510826849697
O	23.094153565819447	10.777541675229218	22.069184175247255
O	27.788205520844688	13.306028106790466	21.106593941868642
O	27.152997038170547	12.53208610081534	22.082822282195536
O	26.4222208858543	11.466690310388293	21.525158563259613
O	25.979196860428218	15.823105792828922	22.32430014200552
O	27.24375859730389	14.953231964716258	22.467602144917713
O	27.11393041125023	14.223797892001265	23.730960391459366
O	26.299062969575715	13.02886995711859	23.214203565801988
O	25.008578439897455	16.49628734485853	24.286173349568347
O	26.363751007336052	16.600776462507447	23.6023163921161
O	24.827815073126096	14.763478530609724	26.49958456938063
O	24.69285548365961	16.110285102592236	26.56022679153579
O	25.171178099899834	16.635279576273867	27.813589521557148
O	27.636850646761832	17.90821208096574	27.725473045994544
O	27.36117879733786	15.55734756811056	26.76521758735804
O	27.295985777769864	15.523229282130293	29.032503004419546
O	24.172854618719057	17.753082607691848	27.7931547033211
O	28.340371079466504	15.854508400978839	22.117583938091357
O	22.723919551478968	12.11240658820144	22.604732016003805
O	22.37404655951484	12.78904970648805	21.528918418797
O	21.921566978333175	10.331479530064817	21.09629072387527
O	22.900977307873617	9.466698108527506	22.59140262001448
O	26.831649819083356	16.350016040411113	27.889952812066543
