103

O	-4.52485285624035	-3.5477442437333333	3.8068977761280705
O	-2.84438088044035	-0.7312285537333332	-0.22856840187192945
O	-5.83543669624035	-3.6772193437333334	-0.9426931998719295
O	-4.76289406624035	-3.8453711837333335	-1.9067653938719296
O	-4.15773819624035	-2.249644833733333	3.6787992661280704
O	-4.92314085624035	0.03739381326666685	4.29117663612807
O	-4.89326673624035	-5.312003683733333	-1.9866956438719294
O	-3.70463051124035	-1.6997628437333332	2.5112217461280704
O	-3.14260964124035	-3.356701043733333	-1.6845200938719294
O	-3.06527279424035	-0.8907692437333332	5.01354938612807
O	-3.59394869224035	-2.4382022637333334	1.3653652761280706
O	-0.4449343762403499	-2.405790613733333	-2.6595220938719293
O	-5.04169678624035	-1.1945115937333333	0.009027357128070568
O	-3.8284765062403503	-3.766744303733333	1.5235789561280706
O	-1.31347412624035	0.4622320652666668	-3.1877348138719293
O	-4.372278076240351	-4.340047853733333	2.6685644161280706
O	-3.89427366624035	-1.4655089137333333	0.31104283812807054
O	-4.27832753624035	-1.1766288937333331	4.73616721612807
O	-5.35074138624035	0.05476554826666685	2.9206095761280704
O	-5.22302186624035	1.2555746142666668	4.93393198612807
O	-4.14366415624035	2.256442216266667	4.715666316128071
O	-3.04517057824035	1.6240112562666669	3.93306346612807
O	-6.83308018624035	-0.1546239857333332	2.9742378061280705
O	-7.00987629624035	-1.5961431137333333	2.6285872361280704
O	-5.18117132624035	-5.584356873733333	2.5285847961280705
O	-2.7562498045403503	0.060704589266666886	-1.4014102548719296
O	-1.39345431624035	-0.3288136817333332	-2.0261125638719295
O	-1.6319260162403502	-1.689622963733333	-2.5939108038719296
O	-2.70734324074035	1.5223782162666668	-1.1518535278719295
O	-3.97946949624035	1.782477906266667	-0.38854697587192943
O	-4.07056344624035	2.3746426962666667	0.8540905861280705
O	-5.20739975624035	2.9265264362666668	1.3805501661280706
O	-6.39293282624035	2.413595276266667	0.9172187561280705
O	-6.37617173624035	1.5902196962666668	-0.14923004287192948
O	-5.23498607624035	1.6394038562666668	-0.9692938268719294
O	-2.99757397224035	-2.0620880737333334	-2.3484119838719293
O	-2.22282080524035	-4.119753273733333	-2.5383151538719293
O	-0.77445137624035	-3.7337339137333334	-2.2514172338719294
O	-4.9109268762403495	-3.4035993937333333	-3.5629056038719296
O	-4.84212047624035	-2.067296783733333	-3.7893922438719296
O	-4.8947927062403505	-1.6092030437333331	-5.075486163871929
O	-4.55647201624035	-2.4396530337333333	-6.100962903871929
O	-4.11206791624035	-3.6900740237333336	-5.788109993871929
O	-4.0892027762403504	-4.0928695237333335	-4.45724459387193
O	-7.4781747562403496	0.8696529292666668	-0.4135998048719295
O	-5.33985505624035	3.853846316266667	2.3353341761280704
O	-2.62601314224035	1.8193798462666668	10.24318154612807
O	-3.27663705624035	4.8536283462666665	8.06234736612807
O	-0.15810331624035	4.913788716266667	5.9209877761280705
O	3.1190024837596497	6.996827116266667	5.8333974061280705
O	3.2855947737596503	10.089023786266667	3.6510221861280705
O	1.3189358737596497	11.938688166266667	-0.47432912417192946
O	1.0786231637596497	8.243487626266667	0.6250452761280705
O	4.349943143759649	6.415100286266667	0.006363204128070565
O	3.13387732375965	3.147279736266667	-1.6007165538719295
O	5.686594683759649	0.5632431932666668	-2.8068636638719293
O	2.8032096437596503	-1.7006607437333332	-3.6707855138719294
O	1.3067181937596497	0.2917204630666669	-6.594241343871929
O	2.5845708437596495	2.236110406266667	-9.59462446387193
O	0.4275520737596499	5.336195536266667	-10.08845825387193
O	0.92476095375965	8.874943826266668	-8.868994803871928
O	-2.66611867024035	9.907087846266666	-8.09154435387193
O	-8.72466584624035	1.6834597462666667	-10.11987381387193
O	-11.04313500624035	-0.6066917927333331	-8.12722279387193
O	-11.84002509624035	2.4575257562666666	-5.56237718387193
O	-10.76379542624035	5.669796306266667	-7.199348143871929
O	-13.37010138624035	4.116546726266667	0.6839988361280704
O	-10.07062205624035	5.470191356266667	-0.6936429818719294
O	-9.29850417624035	8.497289216266667	1.4147901361280706
O	-8.90399311624035	7.731094176266667	5.117471696128071
O	-4.69220970624035	10.139546086266666	7.56110327612807
O	-2.6917141362403503	12.522028466266667	3.0446756161280706
O	-2.73087560654035	11.451942566266666	-2.7762354738719295
O	-0.6621873662403499	8.327625706266668	-3.3714703838719293
O	2.87017974375965	7.862199806266667	-4.80203684387193
O	3.0899969637596496	4.416848416266667	-6.444373543871929
O	6.514400583759649	0.057920388266666845	-8.01040015387193
O	1.40682756375965	-2.890388103733333	-12.78295865387193
O	6.431260163759649	-5.4123545537333335	-11.281641553871928
O	5.69381475375965	-5.369022303733333	-7.54017941387193
O	8.86273371375965	-5.3562351537333335	-5.42965865387193
O	6.335833473759649	-8.491095053733334	-1.9232304138719294
O	7.333996213759649	-5.479662433733333	0.08383916412807058
O	4.354150583759649	-3.147434403733333	0.3399472331280705
O	4.3749146437596504	0.07518928126666685	2.3768754061280704
O	0.64867198375965	0.5538470972666669	1.4255603061280706
O	-0.3350709362403501	-2.4669717237333333	3.4369084861280705
O	-0.44112220624035015	-2.2387575837333333	7.261165006128071
O	-0.03665780624034998	-5.887465583733333	8.187267566128071
O	2.37666222375965	-8.685640823733333	7.603758096128071
O	0.13251225375964992	-10.804389533733334	5.43466617612807
O	-0.4910150662403501	-10.456203733733334	11.039649646128069
O	-3.33681801324035	-11.572850133733333	8.78575427612807
O	-4.14356912624035	-14.068953933733333	6.08904587612807
O	-3.49971944524035	-13.651822333733334	2.4372642961280704
O	-4.87761719624035	-15.242553233733334	-0.7312233578719295
O	-2.29866742424035	-13.294544533733333	-2.8080790438719294
O	2.94799614375965	-9.044583833733332	1.9502029661280704
O	5.55712653375965	-7.376955373733333	4.040060646128071
O	3.4651771537596496	-4.408060503733333	5.022092536128071
O	4.281070853759649	-1.3828136037333332	7.1196920961280705
O	7.30272731375965	-5.259333533733333	9.180227406128072
O	8.979522313759649	-2.364111453733333	7.416148976128071
