84

O	0.19587398873333378	1.1538453544418341	5.400866466266667
O	1.4975382147333338	1.174663571441834	4.818932316266666
O	1.8978503047333337	0.009936702441833978	4.211079296266667
O	1.6437723347333337	-1.1565151365581658	4.866435016266667
O	2.299640454733334	-2.353606026558166	4.696298916266667
O	3.448952384733334	-2.233975366558166	3.9166237562666666
O	3.2675584447333335	-1.346238516558166	2.864008736266667
O	2.5308448447333336	-0.16861861755816598	3.017208596266667
O	3.1704584847333335	-1.9976703665581663	1.5440906562666668
O	2.5742164247333337	-3.202297556558166	1.3140456262666669
O	3.2615870147333337	-3.9349687865581657	0.3198727892666669
O	3.7645777647333336	-3.134723386558166	-0.7209537757333331
O	3.5789654147333336	-1.7518864465581663	-0.6091586137333331
O	4.265687034733334	-0.8587216465581661	-1.607972123733333
O	3.5666790547333336	-1.388072476558166	-2.877098343733333
O	5.660319164733334	-1.328278466558166	-1.5299784437333332
O	6.344711674733334	-0.5000819165581659	-0.5000647137333332
O	7.028578914733334	-1.088769186558166	0.3509325802666669
O	6.073807294733334	0.877723119441834	-0.6264376517333332
O	6.996231934733334	1.7734453334418339	-0.0016099367333331505
O	4.770342814733334	1.383774135441834	-0.8840520687333331
O	4.626425884733334	2.773327213441834	-1.133059374733333
O	3.8569998247333337	0.48971754244183396	-1.4475286037333333
O	3.0460234447333336	-1.124519056558166	0.4672923492666669
O	-10.301790905266667	1.8179781834418338	6.302442736266666
O	-6.9902784052666656	0.899087897441834	7.855632246266667
O	-0.5688985942666662	3.817048463441834	9.272291266266668
O	1.2125158617333338	0.593424815441834	10.141510066266667
O	-0.8919884152666663	-1.6756683865581663	7.910618296266667
O	-2.0124308952666663	0.806255887441834	5.266656806266667
O	-5.230437065266666	2.470821803441834	4.190716116266667
O	-7.4514718152666655	0.705828303431834	1.6821938962666667
O	-9.931871605266666	-4.323347806558166	-0.5714830077333332
O	-7.132495905266666	-2.366248726558166	-2.167374023733333
O	-4.205694615266666	-0.503620206558166	-0.6025751317333332
O	-4.157102355266666	3.200837123441834	-1.5933445937333333
O	-0.4873305092666662	3.776247073441834	-2.607667783733333
O	0.7579054187333338	7.1181134634418335	-3.875750263733333
O	4.293583084733334	5.667904843441834	-3.9442501737333333
O	3.7520434647333336	3.1883698034418337	-6.773568193733333
O	2.0582447647333337	3.011029343441834	-10.193622973733332
O	0.6161212587333338	-0.4824347465581661	-10.669570533733332
O	-2.8412292852666665	-1.7902468265581661	-9.946111843733332
O	-2.0229741152666665	-5.306809376558166	-8.681649713733332
O	-4.217557055266666	-7.813594186558166	-6.9003633937333335
O	11.105249494733334	-6.708602006558166	-6.257028193733333
O	8.468387384733333	-8.848867976558166	-3.9189293437333332
O	5.466176104733334	-9.916505346558166	-5.997078573733333
O	5.227710904733334	-11.626082346558166	-9.381965463733332
O	-4.4736397652666655	-5.424202046558166	-13.680487933733332
O	-1.4110596952666663	-7.344542266558166	-12.581696533733332
O	7.252003604733334	-12.754093446558166	-0.7222334697333331
O	6.619915584733334	-10.529647646558166	2.296601826266667
O	4.071372454733334	-8.507330356558166	0.28472169126666685
O	0.7175405747333338	-9.375961146558167	1.8927149862666668
O	0.41914559673333374	-8.253802956558166	5.526222676266666
O	-1.406012985266666	-10.660530446558166	7.848750786266668
O	-4.523156755266666	-8.897585496558166	9.121433106266668
O	-4.273033555266666	-5.792614316558166	6.900799846266667
O	-7.558386665266666	-6.865201746558166	5.329371386266667
O	-6.302771295266666	-5.729936696558166	1.879723236266667
O	-5.8369689552666655	-8.016118046558166	-1.1258617797333332
O	-4.198910395266666	-5.713651056558166	-3.620978963733333
O	-2.5453447052666665	-2.374414616558166	-4.216197533733333
O	-3.6430768352666663	0.720294756941834	-6.152505223733333
O	-0.6081284312666663	2.594959533441834	-7.448988673733333
O	-1.588967945266666	6.196198693441834	-7.865649773733333
O	1.730469734733334	7.621848443441834	-9.050759623733333
O	2.8463135247333335	8.180905503441835	-12.653531433733333
O	-5.881057085266666	9.534526963441834	6.118212886266667
O	6.697418464733334	9.691039703441835	-7.830338023733333
O	3.9275391647333335	8.181891053441834	-0.13887990073333314
O	0.7856726997333338	6.735926483441834	1.4831645962666669
O	2.2940716147333338	3.2537982934418337	1.118400646266667
O	5.097835274733334	3.949662383441834	3.5538758262666668
O	4.253093694733334	4.1342810734418345	7.258556436266667
O	6.968325144733334	6.499791073441834	8.558622436266667
O	7.669608214733334	6.801968553441834	13.427795666266668
O	13.379355694733333	6.753584233441834	10.304258466266667
O	4.5651742947333345	8.508453843441835	4.750550956266667
O	1.2124536337333338	7.815026343441834	6.310555846266666
O	2.0202305547333337	9.207165983441834	9.745310666266668
O	-0.2724561212666662	12.397510453441834	5.905168916266667
O	-2.5189545352666665	11.749879853441834	8.933567756266667
