97

O	-3.035785963017544	5.144289580912281	-1.7338479628473682
O	-7.011003793017544	0.22393165091228062	-2.025097729847368
O	-5.729407263017544	1.1722571769122805	-0.5079934698473683
O	-4.664205823017544	-4.46977866908772	-2.338952895847368
O	-4.810359273017545	-0.1028748090877194	-2.5876170118473683
O	-1.251021843017544	-4.40100852908772	-1.4945886395473682
O	-3.749920433017544	-2.4818237690877196	-2.8203016818473685
O	-4.028899763017544	1.0494081149122805	-2.595059131847368
O	-3.625266531017544	1.9212174559122805	-3.4934109018473682
O	-3.0180031160175442	0.8973912019122805	-4.166546081847368
O	-3.5356675360175442	-0.46126556908771943	-4.408132411847368
O	-4.879137383017544	-0.24435579908771943	-4.012612631847368
O	-5.873133013017544	0.35048421891228054	-1.6767531938473683
O	-3.305709667017544	-1.8692663590877197	-4.064689101847368
O	-4.307557523017544	1.4766120729122805	-0.3551406018473682
O	-2.669637155537544	-4.42612322908772	-1.3757734760473683
O	-3.703025673017544	0.10488345091228046	-0.30634432184736826
O	-3.240497163017544	-4.162484709087719	-0.02082215184736813
O	-4.648805803017544	-1.2162282490877194	1.3560026981526316
O	-3.840604773017544	-2.3399771990877194	1.2126504681526316
O	-4.196482873017544	-3.089554299087719	0.09819673815263186
O	-5.251146853017544	-2.5811040390877196	-0.5420679708473682
O	-6.354540893017544	-2.2314461690877194	0.28613213815263183
O	-5.925059643017544	-1.0663574890877197	1.0447628481526319
O	-3.946136833017544	1.9058452419122807	2.858982838152632
O	-3.3977206000175437	2.3314187409122806	1.6470922581526317
O	-4.287366513017544	2.4678901309122807	0.6612373881526319
O	-5.121833253017543	3.5547278009122807	0.9529186281526318
O	-5.661730343017544	3.3917906509122804	2.2246872081526314
O	-5.101377753017545	2.5627880009122803	3.1919045581526317
O	-3.630472133017544	-0.2347033290877194	1.090940738152632
O	-3.578244746017544	-3.747755029087719	-2.3571897108473685
O	-2.790805210017544	-5.96138252908772	-1.3307412048473681
O	-5.706392343017544	2.8330031309122807	-4.440229131847368
O	-7.026146133017544	2.7624242609122804	-3.993128121847368
O	-7.205275803017544	3.2231090909122804	-2.690213661847368
O	-6.142194313017544	3.7676038709122803	-2.0300796308473683
O	-4.870768503017544	3.9730258509122804	-2.715790361847368
O	-4.477408793017544	3.1221100209122805	-3.749674071847368
O	-3.8144387030175437	4.2053835609122805	-1.8093994408473681
O	-0.6411594130175442	0.36151004891228056	11.78273669815263
O	-0.7226686530175439	3.4929702209122806	9.741858698152631
O	-0.5894815130175441	4.629814860912281	6.131606368152632
O	-4.239383853017544	4.78472438091228	6.090685238152632
O	-5.092045303017544	0.9798150229122806	6.872577488152632
O	-1.644666993017544	-0.5508867590877196	6.374319018152632
O	1.302179316982456	-1.6824539390877193	8.48557029815263
O	-0.07582389301754411	-6.843481389087719	6.390215408152632
O	3.447623876982456	-6.04908572908772	5.162844388152632
O	3.0785607469824563	-5.74359985908772	1.4574634781526317
O	5.713207736982456	-5.03870819908772	-1.0709651948473682
O	3.1230394069824556	-4.825958699087719	-3.873578661847368
O	2.246729166982456	-8.52873340908772	-3.9183317518473686
O	4.000277636982457	-11.98126375908772	-3.615866581847368
O	1.6180414469824558	-14.266939559087719	-1.7080305208473683
O	-2.166103668017544	-15.43538975908772	2.600348248152632
O	-10.842885613017543	-10.25273405908772	-4.099270361847368
O	-9.839633913017543	-13.29082735908772	-2.062607555847368
O	-13.695529203017543	-6.246632799087719	0.46994275815263187
O	-10.365592973017543	-7.927619709087718	1.5420509681526318
O	-10.292482643017545	-7.443401819087718	5.303951538152632
O	-10.447652713017543	-3.7542952990877194	6.520512168152632
O	-7.0595040730175445	-2.5400240790877193	10.55881389815263
O	-4.5767729030175435	-7.4822299990877195	10.477164398152631
O	-3.419241101017544	-11.801582159087719	6.551391718152632
O	-0.912019933017544	-10.473396759087718	4.080916708152632
O	3.610240476982456	-10.435744459087719	-0.11878871184736828
O	7.096311666982457	-5.846175349087719	-8.455917091847368
O	9.825925996982457	-3.8012979690877198	-6.802943931847368
O	7.036625376982457	0.5216807779122805	-8.037607031847369
O	7.354708296982457	0.6899170939122805	-4.260318941847368
O	4.252776906982456	-0.5381958190877194	-2.625264021847368
O	3.5895241869824557	-0.5518847790877195	1.0733596381526318
O	0.3081086869824561	-1.9188224990877196	0.3874896181526317
O	-0.46225997301754385	1.4694179049122806	-1.1432771358473683
O	-1.335739983017544	4.598525830912281	0.9666206981526317
O	-0.608957543017544	7.409693650912281	-1.4949309655473682
O	2.1946981569824557	8.49518699091228	-3.7196208818473684
O	0.7965701169824562	7.868609960912281	-7.152118901847368
O	-7.457521183017544	13.693159840912282	-2.462424014847368
O	2.307746826982456	13.84965054091228	1.5836305881526316
O	-1.944781281017544	11.96428064091228	-0.24867412184736826
O	-0.7244846930175439	12.30705904091228	-3.865568141847368
O	-2.885509085017544	11.05730151091228	-6.684238881847368
O	-2.937675432017544	10.01224799091228	-10.376727761847368
O	-2.460408158017544	6.43424523091228	-11.589199701847368
O	-3.311546764017544	4.566958680912281	-14.82006240184737
O	-0.926502143017544	1.7614050349122805	-13.791240101847368
O	3.364753906982456	3.9030736809122804	-6.953737851847368
O	5.494610826982456	4.876073230912281	-3.987262601847368
O	2.976107566982456	4.031579010912281	-1.3240508598473681
O	3.0867042469824564	4.15215079091228	2.422640878152632
O	3.021316826982456	7.91860271091228	2.7844189381526316
O	6.259109796982456	8.10428931091228	0.8202132181526316
O	7.649233596982457	5.13103476091228	2.5403131981526323
O	7.044569896982457	6.880217230912281	5.878980868152632
O	9.878731896982456	9.30616999091228	5.209987558152632
