24

O	29.719002906151147	11.376940495186526	21.572885370399124
O	22.094849859567926	12.367726793958195	24.109931595574526
O	22.48239785085535	10.53137039357579	24.373258089613024
O	21.295840486347423	10.215767885820695	23.81793285935828
O	21.084037722740423	10.667007613558896	22.468850928133833
O	21.730426782306267	11.893401121254318	21.893896809382845
O	23.143041644395886	12.201962998555663	21.757036928923153
O	23.568535455912844	10.820052479727858	21.608933090396107
O	22.520901133477587	10.120918998359587	20.715952258186928
O	21.868726240376795	9.567912519808269	21.979290802785297
O	24.699900081934196	10.483523607815297	20.77759180862004
O	24.975343959587466	11.343100999218546	19.76028988207312
O	24.084941524128947	12.049296871011364	19.281710150831394
O	26.439603456810968	11.614503855988028	19.94057859571461
O	26.716697765810217	12.820167778195795	19.271780955845635
O	27.37077800916326	13.825198396498866	20.081595828647657
O	28.04239665253145	13.28548155797491	21.193376772277574
O	28.249111549919697	11.957976187125197	21.09821805544555
O	27.17979984238795	11.12490885455742	20.975177083156417
O	21.028920330909187	12.874443084571968	22.84477158342559
O	19.570630959244134	12.412245421391628	22.811199115664742
O	19.50289161527553	11.878912974018736	21.49546917394794
O	19.759325109578842	10.516978420833954	21.817613604982512
O	22.537194947271043	10.25623610104667	25.78419964185676
