84

O	1.6922110706271192	-0.9418488688711864	-6.249295058774576
O	3.445893130627119	-0.6408407758711863	-2.2023190687745764
O	4.2514724306271185	-0.5790931108711863	-3.3807621187745758
O	3.5472736006271193	-0.6956218548711863	-4.544457018774576
O	2.2208320706271194	-0.2971290218711863	-4.6899936587745765
O	1.5569499206271191	-0.6285138188711863	-3.5101258487745763
O	2.1067251206271194	-0.2830671468711863	-2.305137428774576
O	1.8032494206271192	-0.005401408871186286	-1.0004099717745762
O	2.9302389306271195	0.48116502412881373	-0.4104835067745762
O	3.7643574306271197	-0.48499080387118626	-0.8633905119745762
O	3.1426545906271195	1.5528826711288137	0.46048329122542375
O	4.990438920627119	-1.0228858488711863	-0.3938711077745762
O	5.254670850627119	-1.3900031088711864	0.9922391612254238
O	4.470597960627119	-0.4590978748711863	1.8531101312254237
O	5.242768010627119	-2.198158728871186	-1.4079594817745762
O	3.783054000627119	-2.609061008871186	-2.005943168774576
O	2.7376550806271194	-2.896818608871186	-1.1623420737745762
O	4.033355210627119	-3.568122028871186	-2.708385958774576
O	3.0870767306271194	-3.028098848871186	0.1652387812254239
O	1.6579769106271192	-3.0689183288711863	0.7065399712254239
O	1.548687800627119	-4.553345368871186	1.1071812512254238
O	2.8720984606271194	-5.062948118871186	1.7066926912254237
O	2.8367319106271194	-4.615833648871186	3.163841311225424
O	2.8561469906271193	-3.119209258871186	3.0567133112254234
O	1.911526360627119	-2.527615728871186	2.086428891225424
O	-2.6079334593728807	-0.6551613658711863	-9.699001478774576
O	-3.6365089693728807	1.2340040111288137	-6.665008458774577
O	-6.907588969372881	3.212511011128814	-5.766555738774576
O	-9.74837977937288	1.4516761011288137	-3.8893065087745757
O	-13.118764009372882	-3.513220638871186	-3.0060821887745766
O	-10.28697072937288	-2.394186418871186	-0.7732798917745761
O	-6.942254039372881	-0.7160724738711863	-1.6375068177745762
O	-6.5954580693728815	2.639610981128814	0.20303306122542386
O	-3.0438208393728807	2.484015951128814	1.609967671225424
O	-1.518827569372881	5.2495069211288135	3.7431246612254236
O	1.787770810627119	3.3510492011288138	3.7130225312254233
O	0.7104656206271192	0.4387286801288137	5.912166721225423
O	-1.2755828133728808	-0.40338806787118625	8.909332141225423
O	-3.0626602493728807	-3.696277048871186	8.316523771225423
O	-6.641098439372882	-4.2671707488711865	7.186739731225424
O	-6.130257479372881	-7.459708458871186	5.157213471225424
O	3.8718691306271196	-9.982667798871187	5.807844921225423
O	6.776165510627119	-10.185394198871187	3.321657501225424
O	4.1157821006271185	-11.539667198871188	0.47098986122542374
O	0.8362048906271191	-12.391802998871187	2.090363631225424
O	0.06900913062711911	-14.771344598871186	4.975711671225423
O	-6.263801329372881	-10.369882898871188	8.538216671225424
O	2.606968190627119	-14.458301398871187	-3.601813418774576
O	2.6122657506271194	-11.535705698871187	-6.084307268774577
O	0.14168767562711915	-9.691876798871187	-3.825899388774576
O	-2.9836045493728807	-9.387203458871188	-5.750315708774576
O	-2.796426329372881	-7.602919848871186	-9.076598338774577
O	-6.8354306193728815	-4.124296728871186	-10.159319348774577
O	-10.440978409372882	-4.980308198871186	-9.170547998774577
O	-9.42486093937288	-4.885401358871186	-5.428575118774576
O	-8.00515797937288	-6.386727868871186	0.09173449322542382
O	-5.916817769372881	-3.547107808871186	1.5273444612254237
O	-6.8576262093728815	-0.8506362858711862	4.098706101225424
O	-3.740031499372881	0.2447827525288137	5.998345891225424
O	-1.0120002893728808	4.409370081128814	8.976941021225423
O	-0.13202772237288088	3.892103241128814	12.649031281225424
O	4.170758780627119	-0.5230062978711862	11.751924581225424
O	1.289075420627119	-2.961958168871186	12.017914581225424
O	4.411472330627118	5.215408691128814	12.287591781225423
O	4.3363036406271185	5.905736691128814	8.566571871225424
O	2.966336620627119	9.327960881128813	7.668996121225424
O	3.2501896006271194	10.000029671128813	2.011106011225424
O	2.164327550627119	6.638865271128814	0.5912079012254239
O	-0.9713982833728809	6.098159821128814	-1.5391756877745761
O	-0.021305385372880903	2.511107721128814	-1.8636343877745762
O	3.0765667406271193	3.5196574011288138	-3.978442178774576
O	2.7675580206271193	4.427105771128814	-7.605763798774577
O	5.916767010627119	6.483256601128814	-8.012239788774576
O	7.588577370627119	9.490037761128812	-6.481741448774576
O	10.093522690627118	8.886594801128814	-10.530772268774577
O	12.411367090627119	6.154120721128814	-9.310355988774576
O	14.70420749062712	4.337113201128814	-3.3102419587745757
O	16.92199589062712	2.617297961128814	-0.7494102307745761
O	14.24955069062712	3.264624961128814	1.9033089912254237
O	8.09002301062712	8.128394611128813	-0.9720832310745762
O	3.348500380627119	7.996887981128814	-4.021883328774576
O	0.11514998662711912	8.104554081128814	-5.969043948774576
O	2.3727126306271193	12.935365301128813	-6.593421188774577
O	-0.855579030372881	12.631756001128814	-4.6243059987745765
