102

O	5.272284331995081	2.4593262367540984	-3.725965327232787
O	5.575495551995081	0.5014715177540985	-2.506953023232787
O	-0.2924566800049192	-2.7505770132459015	-7.901557687232787
O	5.650297771995081	0.9399231367540986	-3.9962738272327867
O	3.3193359619950806	-1.8989573632459016	-1.7706301023327868
O	4.678585561995082	-2.3095643932459016	-3.4646292372327867
O	6.641528721995082	2.1518271467540986	-3.8643959072327867
O	1.294038751995081	-2.0704541232459013	-7.705521247232786
O	3.8645917519950808	1.0588933367540985	-0.06208879723278682
O	4.170982871995081	0.35996223975409847	-2.382732997232787
O	0.19123786699508083	-4.7522200332459015	-3.304719897232787
O	2.355658751995081	-5.585111373245901	-3.710400357232787
O	3.9969018119950808	0.10036020275409852	-0.9540419132327869
O	-0.6022951000049191	-3.3700736232459017	-6.518345047232787
O	4.12474283199508	-1.3503454332459015	-0.7287303172327868
O	-1.4235918900049191	-1.8576007532459016	-7.865791367232787
O	3.5678315519950807	-1.7161854132459016	-3.1727822972327866
O	3.673183721995081	-1.8587758032459014	0.605705552767213
O	2.6724157119950807	-1.7235772732459016	-4.285233967232787
O	2.1397493019950806	-2.8963394232459017	-3.875087207232787
O	1.3692777119950807	-3.6037285932459016	-4.6618422072327865
O	1.7201003419950807	-3.5330370632459016	-5.971347127232787
O	1.9847133619950807	-2.253938613245902	-6.458069417232787
O	2.615749961995081	-1.4443466632459014	-5.593899837232787
O	1.3142505219950809	-4.968152093245902	-4.105948877232787
O	2.2831855719950807	-2.5351259432459017	-8.714331947232788
O	-0.13358116900491918	-6.176947073245902	-2.989418467232787
O	1.072081611995081	-6.830885803245902	-2.320872337232787
O	-0.3340496000049192	-4.243161343245902	-8.773407687232787
O	2.5394675119950807	-3.9074312332459016	1.621119972767213
O	1.4557176019950808	-4.819479333245901	1.6369887027672132
O	1.4926507619950808	-5.576569943245902	0.5160915327672131
O	1.8078486219950807	-4.778322283245901	-0.5867234472327869
O	2.822400241995081	-3.8833969632459016	-0.642366897232787
O	2.984998031995081	-3.1873429332459016	0.5518314627672132
O	-1.2781541530049192	-5.758167923245901	-2.1984397732327867
O	-2.397322998004919	-6.500902163245902	-2.157226556232787
O	-2.467504138004919	-6.923802623245901	-0.8095651572327869
O	-2.1383951580049194	-6.229702253245902	0.32107686276721314
O	-1.4986097780049192	-4.999922483245902	0.10519417276721321
O	-1.330365557004919	-4.759982623245902	-1.278195801232787
O	-4.13805677800492	-6.6150194532459015	8.617668202767213
O	-5.83676331800492	-6.836883993245902	5.234137642767213
O	-5.717118378004919	-5.311752553245901	1.7843407927672132
O	-3.5617639580049194	-8.221580623245902	0.4085802727672132
O	-0.6501004870049192	-8.013233403245902	2.859904512767213
O	-1.1880374790049193	-4.555904943245901	4.366627522767214
O	-2.4445257580049193	-2.7748294132459015	7.3970165127672125
O	-0.14651939900491917	-2.1916502932459014	10.341141402767214
O	4.635798651995081	-1.3874563832459015	11.331249502767214
O	3.028595861995081	-1.1767185402459015	7.917027182767214
O	1.0520211619950808	2.0239045167540985	7.368864272767214
O	2.175033391995081	3.2708992867540987	3.968768122767213
O	0.9554356219950808	6.504637976754099	2.4351952727672135
O	2.896075911995081	5.665721516754099	-0.7078645472327869
O	6.399175131995081	6.201316846754098	0.7994969627672133
O	8.318717741995082	8.4132742267541	3.0671588627672133
O	10.777778741995082	6.354686976754099	5.1074258327672135
O	10.369737941995082	4.846145106754099	8.542394902767214
O	12.275942441995081	1.5705176467540984	8.121833012767214
O	14.48482054199508	-4.105927853245902	-2.273112673232787
O	15.801847541995082	-3.2475290432459016	1.186015532767213
O	11.323805641995081	-9.819219603245902	-1.250982158232787
O	10.63424744199508	-7.0785854732459015	1.355172572767213
O	5.834377541995082	-10.7955982732459	3.5393959327672135
O	1.8869852219950807	-10.3071636732459	7.283842992767214
O	4.632703741995082	-6.627572033245901	10.302645102767213
O	8.746915591995082	-2.4603422432459015	9.383476602767214
O	7.145099811995081	0.2654899367540985	7.3363690027672135
O	5.89895036199508	3.7702346067540984	8.224279702767213
O	6.1710305919950805	5.977584976754098	5.143070402767213
O	4.16911198199508	10.698328526754098	2.4269378827672137
O	-8.861465978004919	0.5660387797540984	6.560965202767214
O	3.181583511995081	11.327022926754099	-3.008115997232787
O	-0.3650201967049192	12.172576926754099	-1.879940887032787
O	-1.9836800980049192	8.9212607167541	-5.854796417232786
O	-3.586356198004919	7.508566466754099	-2.656163970232787
O	-1.4602855580049192	4.603053796754098	-1.520185458232787
O	-2.229117188004919	2.3448981667540987	1.445435612767213
O	0.8323537619950807	0.2922716177540985	0.45205084276721297
O	-0.6521553780049192	-0.7874193972459015	-2.7756638232327866
O	-3.3809463480049193	-3.2574453132459014	-2.8091867472327867
O	-5.051023938004919	-2.7893420632459014	-5.902507917232787
O	-6.95564738800492	0.06075946375409852	-7.564313527232787
O	-4.480712428004919	0.5523362637540985	-10.374462457232786
O	-6.308846888004918	-10.3003677732459	-11.442159547232787
O	-8.585140308004918	-6.104282213245902	-7.450021297232786
O	-8.13627656800492	-3.7124241932459014	-10.281880207232787
O	-5.055888828004919	-3.9119356332459017	-12.386617697232786
O	-3.129454418004919	-2.0112719632459015	-14.967842697232786
O	-0.4709360000049192	0.46099343175409846	-14.188578897232787
O	2.593820391995081	1.7292299767540984	-16.03891759723279
O	3.072180231995081	4.274901666754099	-13.267536697232787
O	-3.107178028004919	4.246920976754099	-7.652191977232786
O	-5.916828828004919	4.248462346754099	-5.135517087232786
O	-4.7427986780049185	1.3138266267540986	-3.1227146572327866
O	-6.08855744800492	-0.4101911052459015	-0.04831775723278686
O	-9.12299058800492	-1.9559499632459014	-1.6947146882327868
O	-10.37688945800492	1.4889338867540984	-2.595649948232787
O	-9.395772208004919	2.9191357367540984	0.765730642767213
O	-11.502152658004919	0.21964355475409852	2.4533026127672137
O	-14.665139358004918	1.9540219367540983	1.3224359027672132
