27

O	25.769833045438027	10.821961405040085	18.693275962229976
O	24.517736616619803	10.820209850925279	18.060461868396516
O	23.442457422661445	11.040150512432273	18.813430127001446
O	23.386534501832905	10.772863529202455	20.210412691166514
O	24.289665894589383	9.736465293009896	20.44514863238068
O	25.471753807123548	9.88961799334796	19.68436406005171
O	26.47885651302826	10.744323178944418	20.365140640539877
O	25.734359896958342	11.844688870821315	21.015021698489257
O	25.425867388486907	12.743479933629889	20.23634100407847
O	25.59225635019836	11.277108938115557	22.336766702915497
O	26.60653191699654	10.24395005054712	22.441260744085994
O	27.8966086244794	10.58362068018713	22.975552573626643
O	27.60414041131657	11.931226587405254	23.23595190605605
O	26.51372334512176	12.026295353150145	24.127703212367816
O	25.3790908053631	11.814859555493193	23.46942368281777
O	22.338333688715306	10.83919170808819	21.27836705036325
O	21.76492099891304	11.866542150925216	22.131948395477313
O	20.25598988147314	11.976498960913752	21.840789043909542
O	20.994398732378016	12.129432999490197	20.495170849952988
O	21.30608256860271	10.81627031375982	20.276573519764668
O	21.922577300846417	12.4831736468993	23.403599767435068
O	22.382379871817527	11.307746583056897	24.617277055499805
O	22.76554823225412	9.891246110309684	23.53926536999246
O	22.387082108253562	9.735364986952638	22.19698846926414
O	22.217952243195725	8.88587348764202	24.455371027734074
O	29.240337510973177	12.794680391156387	23.287959275771865
O	22.938543665063072	12.335737864258341	18.75414496242312
