74

O	-3.412766514823528	-5.454332632609804	4.8116199706254905
O	-2.0392717448235285	-5.209159502609804	5.302765460625491
O	-1.3197983377235283	-4.113281812609804	4.807898370625491
O	-0.025426214823528248	-4.357742962609803	5.296376830625491
O	-0.4599659818235282	-4.540106922609803	6.56426199062549
O	-1.3348777347235283	-5.510587162609804	6.39129940062549
O	1.0152823251764718	-3.291240482609804	5.07673702062549
O	-1.9420137218235283	-3.043541872609804	4.07842509062549
O	-2.3602999358235284	-3.8184591026098036	2.8832636406254903
O	-2.347342782823528	-2.761391322609804	1.7976596206254905
O	-3.0041321148235283	-1.6786069826098038	2.4256176806254905
O	-4.066822694823529	-1.6625394526098036	3.1464146906254906
O	-3.831755824823528	-3.298418122609804	3.9896236806254906
O	-4.402181034823529	-0.8803301216098037	4.2649858206254905
O	-0.8502778548235282	-2.4765305826098034	1.9474173806254904
O	-2.459983384823528	-3.5589860626098035	0.5940706435754904
O	-1.3029718578235283	-3.5308805326098036	-0.3002164103745095
O	-1.1312614848235283	-4.491414382609804	-1.3180854993745097
O	-2.4092207548235285	-5.011373222609803	-1.6480756093745095
O	-3.060004774823528	-5.484169682609803	-0.5635323593745095
O	-2.6665957148235284	-4.996844372609804	0.6814013388254905
O	-2.692614604823528	-5.639238492609804	1.8498860306254903
O	-2.374754794823528	-5.847281212609804	-2.7386164193745093
O	-4.787669534823528	-0.7919376536098037	-8.64488359937451
O	-3.8972791748235283	2.324348147390196	-6.586899989374509
O	-2.4844677248235283	5.785630857390196	-6.95505953937451
O	1.2545000551764718	6.180317817390197	-7.112034949374509
O	5.393433095176472	4.140108887390197	-5.420797799374509
O	1.9389601351764718	3.3939521673901965	-4.144342719374509
O	0.5772821351764719	6.157719727390196	-1.8851663893745094
O	-0.7936310178235282	4.222465257390196	1.1458525436254905
O	-2.2990402458235284	6.072103887390197	4.111721040625491
O	-3.173482884823528	2.7059208673901964	5.57528335062549
O	0.3806187951764717	1.4256544873901964	6.328091060625491
O	3.643314285176472	2.8402515973901963	7.703164190625491
O	6.567512825176472	1.3341020073901964	5.787116780625491
O	8.437952415176472	2.6657502673901963	2.7884553706254906
O	9.086051145176471	-0.6196078425098037	0.9206944556254905
O	10.38411524517647	-1.0358374176098037	-2.6490465893745094
O	5.131812375176471	-8.308289882609804	6.44795482062549
O	2.302635005176472	-10.838199932609804	6.015777270625491
O	3.085874495176472	-10.895352332609804	1.9186438406254904
O	6.483178585176471	-9.312072542609805	1.2930557296254905
O	9.874985945176471	-9.932046922609803	2.8838366506254904
O	12.720881045176471	-1.8982969826098037	3.1681697206254906
O	3.652462515176471	-13.240667232609804	-2.7197741393745094
O	0.5523711351764717	-11.552928632609804	-4.23327082937451
O	2.1396281951764715	-8.154720322609803	-3.4564850493745096
O	2.871575425176472	-6.632326842609803	-6.85585741937451
O	-0.15399072482352816	-6.083948202609804	-9.112971059374509
O	0.4271717151764718	-6.834165102609804	-12.83396674937451
O	-0.2951600648235282	-1.2681796956098037	-11.70775344937451
O	2.9293260151764713	0.39746326639019625	-12.93588654937451
O	4.112954735176472	0.7571848073901963	-9.28334418937451
O	6.924665815176471	-0.008000951609803741	-4.12809419937451
O	4.632906315176472	1.2775799573901963	-1.3765273193745098
O	4.814214775176471	4.526071387390196	0.6506842932254905
O	3.2418302151764715	4.028576307390196	4.064546020625491
O	0.5062849651764718	6.3088000573901954	8.61064199062549
O	1.8417938251764718	0.18714799539019622	12.94018605062549
O	5.285847605176471	0.18727618839019622	11.30597555062549
O	-1.6307729448235282	4.5479919173901955	14.39313855062549
O	-3.848741554823528	4.300067237390197	11.35489625062549
O	-8.982892834823527	6.558399587390197	5.95038990062549
O	-6.992337474823528	4.300925707390196	3.6431213506254907
O	-5.827637024823528	5.141604707390197	0.13372680762549044
O	-4.425678884823529	1.6900307873901963	-0.18360288437450956
O	-7.835681744823528	0.007187180390196279	-0.08368874137450955
O	-10.10389609482353	0.2808347173901963	-3.1476483393745096
O	-13.52956585482353	-0.04327820260980375	-1.4815047093745095
O	-17.843929854823525	-4.4190293726098036	1.1196148486254904
O	-10.853755924823528	3.5184610573901964	0.6533029511254904
O	-9.981386814823528	5.118784457390197	-2.6551300393745096
O	-11.455142454823529	9.486172767390196	-1.3143041493745096
