74

O	-0.8076705466779657	-0.08998843910508456	0.7288397423050846
O	-1.9081693846779657	-0.7503849401050846	0.2636572783050846
O	-1.8093757626779656	-2.1370231791050847	0.35754051930508457
O	-1.2896834496779657	-3.0030889291050844	1.2090840873050848
O	-3.3164539066779657	-2.4704974291050847	0.5628453153050846
O	-3.4741582466779657	-2.3285251191050844	2.0720576073050845
O	-2.916801926677966	-3.5818031291050847	2.6627251173050843
O	-3.337281426677966	-4.635373239105085	1.6763253873050847
O	-3.319952386677966	-3.9447122391050846	0.3423988283050846
O	-2.8904357666779656	-1.0166963591050846	2.3407269773050845
O	-3.718716796677966	-0.24268113110508455	2.8426580473050844
O	-3.100916976677966	-0.26296228510508457	-0.4624418536949154
O	-4.528476726677965	-0.5936333221050846	-0.22447095049491542
O	-5.3947576666779655	0.5617359968949154	0.1935051443050846
O	-5.272087156677966	-1.4078144391050846	-1.2196110126949153
O	-7.869499336677966	8.342027680894915	1.4554789373050845
O	-4.645695976677966	8.137928440894916	-0.5098912306949155
O	-2.7300531666779655	10.008160180894915	-3.2072330626949155
O	-3.5215687266779656	9.251345120894916	-6.826869252694916
O	-5.051982326677965	5.563687050894916	-9.714817272694914
O	-3.8514077566779656	5.161207340894916	-6.108434692694916
O	-0.03501682667796557	5.407509450894916	-5.848383622694915
O	0.8938445033220341	2.4603232408949154	-3.6365032626949154
O	4.4701527733220345	1.5736080108949153	-2.7340917926949153
O	3.158732973322034	-1.1814797891050846	-0.48246564469491543
O	1.7754234533220343	-3.505559849105085	-3.1877248526949153
O	2.770839703322034	-4.792191509105084	-6.620225772694916
O	-0.3782208166779657	-5.069554089105084	-8.742811562694914
O	-1.8125557976779656	-2.615422159105085	-11.233688842694914
O	-5.553435306677966	-3.1641729991050846	-10.646928042694915
O	-7.773894186677966	-13.008411019105084	-5.731768702694915
O	-6.4421356966779655	-10.460858419105085	-3.2884218726949155
O	-7.769896166677966	-10.641844219105085	0.3077861893050846
O	-10.591378826677966	-7.779659629105084	-0.6935874816949154
O	-10.777956336677965	-7.467186149105085	-4.4593287526949155
O	-14.215736976677965	-2.6010343191050844	1.4657807273050847
O	-11.636845876677965	-1.8082978891050847	-1.2331153626949156
O	-13.236387876677965	4.3495832508949155	-0.6142851746949154
O	-11.408759686677964	9.092472270894916	-2.6656568026949157
O	-7.680070306677966	1.7161446508949154	-9.231519652694915
O	-4.3217616966779655	1.0833549608949153	-7.651688832694916
O	-0.7394932706779657	1.2442872608949154	-8.928980302694915
O	1.4283457133220343	-1.2045203791050847	-6.981205252694916
O	4.993224443322034	0.08084383509491545	-7.205258182694916
O	6.733824713322034	-2.5812646291050845	-5.126985222694915
O	8.481688223322035	-5.717113569105084	-6.389841442694916
O	7.218751933322035	-8.824574839105084	-8.173038512694914
O	4.718410153322034	-9.754885399105085	-3.5622199326949153
O	2.647047453322034	-9.564146419105084	-6.745520362694916
O	13.396519423322035	-6.364887409105084	-2.9048573826949156
O	9.778997623322034	-7.322791799105084	-2.1260510526949155
O	8.200409823322035	-4.491375019105084	-0.1439046886949154
O	10.428765823322035	-1.4079039291050846	0.03258081530508458
O	8.610549523322035	-0.7751639501050847	5.041237307305084
O	7.815919643322034	2.4967281308949154	3.2567400473050845
O	4.142040123322034	2.3439554608949154	2.2326882373050845
O	2.238338283322034	5.194811060894915	0.5652066773050846
O	-0.8997971526779657	3.1261473108949156	0.6637719733050846
O	-1.0527125846779657	3.1131137708949153	4.469066457305084
O	-2.1549053886779657	6.332484070894916	6.209774227305084
O	-0.3827691966779656	6.073478360894915	9.572226327305085
O	3.081020863322034	5.577624900894916	10.949387357305085
O	2.576460643322034	2.0325742008949153	12.239107357305086
O	0.4837716933220342	6.580541310894916	14.870164657305086
O	-0.9002195116779657	3.1106320808949155	15.485915857305086
O	0.13362591332203433	-0.40560763410508455	16.398592057305084
O	1.1501603233220343	-3.0648426891050846	13.961986857305085
O	1.3566003833220341	-6.856069609105084	14.114299857305085
O	3.198540123322034	-6.835019859105084	10.767803357305086
O	5.047921863322034	0.9227818098949154	8.300711737305086
O	6.122243153322034	4.389628570894915	7.236912677305084
O	2.7714654333220343	5.421935770894915	5.825841467305085
O	1.5970047933220342	8.596037230894916	4.140119857305084
O	6.013515283322034	10.480882380894915	3.7941228573050845
