95

O	2.4130504126763634	-3.765724518	-0.4821058176000002
O	1.1858600626763636	-3.3574609179999992	0.06835919839999982
O	0.43798515667636345	-3.462267528	1.2307297064
O	-0.8740415373236365	-2.7142202279999994	0.9653538663999998
O	1.0432916226763636	-3.277570838	2.5436405563999998
O	2.7845882326763634	-4.8136655379999995	0.07495086439999976
O	2.3848596526763632	-3.7695217679999997	-1.9620898036
O	2.4854119426763632	-5.058973438	-2.5120108936000003
O	2.048662832676363	-5.0512195879999995	-3.8538413136000003
O	2.8910679226763634	-4.172642798	-4.5726506736
O	3.726796832676363	-3.2611954879999994	-3.8840276036000003
O	3.1450021726763633	-2.8367623379999998	-2.6901689936000004
O	2.5601084726763634	-3.317805708	2.4562230364
O	3.4495637726763633	-2.3771147779999997	2.0179460564
O	4.815728072676364	-2.373281798	2.0617051564
O	5.392231862676364	-3.409307748	2.7418612664
O	4.628544072676363	-4.580843098	2.6944096163999998
O	3.296414502676363	-4.318360158	3.0465101463999997
O	-1.6045664373236364	-2.2493897479999996	1.9624119664
O	-3.1007716273236365	-3.601221548	-1.3340540966000003
O	-1.1732137473236364	-3.131603458	-0.38551360160000026
O	-2.433601137323637	-2.5597766979999994	-0.6621681646000002
O	5.478413572676364	-3.319558258	-4.1986763036
O	-2.3892565573236366	-3.6013734779999993	-2.7606013036
O	-2.4991835973236367	-4.903896878	-0.8464856932000002
O	-2.384695907323637	-4.793209138	0.5877680363999999
O	-1.5947414273236364	-5.804174478	1.1791437463999999
O	-1.5652336273236365	-5.539589638	-1.4373924866000003
O	-1.4046580173236365	-5.764181838	2.6265932964
O	-0.1563328326236365	-6.3306978979999995	3.1764526864000002
O	0.9545896026763635	-6.612833678	2.2303557964
O	0.5835517536763635	-7.032969908	0.8544772663999999
O	-0.6117357163236365	-6.396004168	0.2549604263999997
O	6.328812162676364	-2.012685318	-3.4575831236
O	6.616913782676364	-2.3965649279999997	-2.0059066536000003
O	5.708216332676364	-3.5028442679999996	-1.6389702416000003
O	5.953643132676364	-4.394158478	-0.4183657286000002
O	5.614771312676364	-5.765917888	-0.8752665956000002
O	5.549072552676364	-3.5996406179999996	-5.6241664336
O	6.131358372676364	-4.550015418	-3.6725813536
O	6.075529172676363	6.265590512	3.4480625264
O	8.665983392676363	3.4924773819999997	3.4116743464
O	7.252007262676364	1.4500965820000002	6.3256476064
O	3.686126042676363	2.7324791420000007	6.4337378064
O	1.4063090826763636	4.950264802	8.5267817964
O	-0.4151349943236365	3.445382842	11.4729630164
O	-1.3263400273236365	-0.05004682299999963	9.4073048164
O	-3.844181707323637	2.2211706820000003	7.6333960464
O	-4.270530847323636	0.4247640420000003	4.2696557863999995
O	-6.694275717323636	1.7353214020000005	1.6404032364
O	-5.427782017323636	-1.0378940199999995	-0.6337885366000002
O	-6.8784870273236365	-4.039796527999999	1.1507074264
O	-10.118122967323636	-4.984429808	2.9525310864
O	-9.188991197323636	-7.128715418	5.9406590164
O	-5.909536257323636	-8.466700697999999	10.6090385164
O	-3.6427962273236365	-14.120366357999998	2.0383916963999997
O	-0.6631837773236365	-14.568316757999998	-0.2980540436000002
O	1.8087787726763636	-13.896186358	2.9666777563999998
O	-0.15874050252363653	-14.135240457999998	6.1442384163999995
O	7.582099362676364	-11.247251857999998	5.1011176364
O	4.458255902676364	-9.581592698	6.5263488864
O	8.326915732676364	-5.022462408	9.0412335564
O	7.689612152676363	-0.2615630499999997	11.529158216399999
O	-1.6936530973236366	-5.3271778979999995	12.2496357164
O	-3.5282291973236366	-3.8489673379999996	9.3095676164
O	-8.013491817323636	-2.722798878	5.2552784564
O	-11.266962067323636	-0.8545414969999997	0.9005235463999998
O	-13.548411267323637	-2.8185685079999994	-4.726211703600001
O	-10.188526567323636	-1.0587129529999997	-4.4988804636
O	-10.544102467323636	2.7360275620000003	-4.3818609536
O	-6.078841277323637	2.856605162	-7.3563906036
O	-5.292072837323636	4.9313027620000005	-4.2566560336000006
O	-3.1881906873236368	2.6190030220000002	-1.9244449536000001
O	-1.8276699773236365	4.0156112020000005	1.4057725664
O	-0.3590968703236365	0.5542523520000004	1.7738622563999997
O	2.0384870726763635	1.0484418720000004	-1.1939480216000002
O	5.086358372676364	3.517927342	-0.8005245266000002
O	5.572833922676364	4.647214782	-4.4014418236
O	3.617478762676363	6.140173322	-7.1590984336000005
O	3.4765311026763634	3.1189205220000007	-9.4312037936
O	14.275040532676364	3.373548282	-7.6466489936
O	9.746940112676365	6.9524329520000006	-5.4783856436
O	8.097540662676364	6.3590288820000005	-8.8440704236
O	8.203436402676363	2.9078282620000007	-10.3084053136
O	6.596109942676364	0.7419468920000003	-13.0176723836
O	3.5657781626763634	-1.4735950049999995	-12.4884807836
O	2.1467602526763634	-4.585785648	-14.1736161836
O	-1.1452694173236364	-4.092945948	-12.2565391836
O	-0.9709242173236365	2.8271215020000007	-7.7465942536000005
O	-1.1172572673236365	6.139926412	-5.9610682536
O	0.9023289986763634	5.117487932	-2.9507198936
O	1.9295891126763636	6.984442282	0.1702622763999998
O	4.371360482676364	9.411432642000001	-1.4222921746000003
O	1.5737922426763635	10.771991642000001	-3.5721828836
O	-0.8511807153236366	10.833441942	-0.7054513706000002
