41

O	20.364861916286383	11.380440848147229	25.02363846615274
O	21.57533968163667	11.572836691106575	23.046557142293658
O	26.88829127043899	16.42121056008156	27.776912178392646
O	20.93402897885266	12.531781129096832	24.088218219079234
O	24.91473872746803	11.839354325210685	22.631986622909167
O	23.75595250575975	13.71913297136435	22.534840284474456
O	19.46950592157968	11.962926154528308	24.10298792117416
O	25.301520762833228	16.22982049536548	27.096107958086087
O	23.076405317180264	8.93444175812915	23.015798141083568
O	22.765820140526273	11.246040214204212	23.742309755358466
O	28.710489465951145	13.981593391975373	23.76451704939075
O	27.464510391717152	15.246184459716583	22.218118664349838
O	23.362386192268808	10.213381622038552	22.89579878407627
O	27.796636762250394	15.597201050585081	26.83406017540881
O	24.188377011671612	10.875873390527161	21.870860099590217
O	27.225336497406495	15.644062518750367	28.94335726098556
O	24.313108719827316	12.910230513993355	23.375257733489736
O	25.12803029379712	9.997460728768742	21.10367754819959
O	24.766699831574044	13.606521423619677	24.536639219789166
O	25.9716474731978	13.821041395984096	23.962699073122703
O	26.82172419141215	14.677645547320589	24.469264211992744
O	26.22904763001791	15.759865245343477	25.035313648370177
O	25.149308001969374	15.488163514893131	25.873974478515873
O	24.361178012470706	14.481910321996077	25.465635146000558
O	27.80687645761419	14.987860513751576	23.417152734852966
O	24.606386361178885	17.51213668227797	26.80544712365601
O	29.88764527547854	14.458704115645322	22.976202966128113
O	29.49998944339439	14.55580354235714	21.50361776003509
O	27.63454233181535	17.9458799103285	27.44804578991871
O	27.453011135027605	10.089158970405231	20.055143580976235
O	28.83919604244797	10.35153072408368	20.18261862183566
O	29.027726185405644	11.679268966614016	20.362974548521155
O	28.067433048728752	12.180302600909732	21.24589713103456
O	26.736194755089066	11.944159964396185	21.172796020801094
O	26.44701853349653	10.635805293258999	20.796466186217415
O	30.683146900319926	13.342033085834366	23.457132859766457
O	31.999735117380858	13.481384795628006	23.68749811716525
O	32.59775116927862	12.627788156280047	22.731615793444888
O	32.16828253582501	11.40766505120664	22.2896930365224
O	30.888291984062164	11.029503784305312	22.72202068382023
O	30.31778666594356	12.035766178608988	23.535411580184988
