88

O	-4.482583789414545	1.2474111884909094	1.3370738239090902
O	-1.3693830434145453	3.5010867252909095	-1.2908756130909098
O	-1.363479600414545	-0.5278977447090905	-0.6368623490909098
O	-4.417097549414545	-0.11880253470909063	1.0198135839090903
O	-1.2291350234145453	5.975047495290909	-0.6794102560909097
O	-3.1133048664145453	4.77011831529091	-1.2734072820909097
O	-3.091841222414545	-0.5351315947090904	1.2036273939090905
O	-4.851631019414546	4.90411987529091	0.8510789439090902
O	-5.381048019414545	2.8611303452909094	-3.29760749609091
O	-2.390313379414545	0.0708579452909095	0.20106857390909028
O	-2.3857089054145453	1.4678002022909094	-0.13502370209090975
O	-3.444537479414545	1.6828167132909095	0.5800326639090903
O	-1.7285530404145453	-0.1234886447090906	-1.8651984930909098
O	-2.137130637914545	1.2284354774909094	-2.0961883590909096
O	-2.2103062850145454	2.4544382352909095	-1.3135563070909098
O	-2.160813571814545	-1.2059298447090905	-2.6774485760909097
O	-3.4303772094145453	-1.3831625847090905	-1.8968543180909097
O	-4.055860119414545	-0.29058568470909063	-1.4077325450909097
O	-3.4033981494145453	0.9528151292909095	-1.5921053600909096
O	-5.288814879414545	2.5383738952909094	1.4571627639090903
O	-4.933088639414546	0.19086829529090954	-2.3040860360909097
O	-3.2383700994145452	3.4681283252909094	-1.6597126520909096
O	-1.7676310234145451	4.67264990529091	-1.0086309461909098
O	-4.376218279414545	3.6825356752909095	1.3101480139090904
O	-5.941176759414545	5.11405917529091	0.08961767390909037
O	-6.216384519414545	3.9385263352909097	-0.6495920320909097
O	-6.272914339414545	2.8382438552909095	0.46209178390909034
O	-5.790594169414545	0.8900006822909095	-1.5161109320909096
O	-5.395488099414545	2.1705348332909096	-2.0494928090909097
O	-4.410358299414545	2.1308266702909093	-3.94161978609091
O	-4.3263050994145456	0.8631750472909094	-3.2992307460909096
O	-1.3597916164145452	-2.2482032647090904	-2.88092244609091
O	-2.9060776854145454	3.4620815952909094	1.1993346739090904
O	-5.545351579414545	-1.8023461047090907	8.43906511390909
O	-1.9973584244145453	-0.6170031047090905	7.845427583909091
O	1.5661231605854549	-1.3309461047090907	9.15671863390909
O	3.475810140585455	-4.04859841470909	7.4412176339090905
O	3.900572310585455	-9.513960874709092	5.04211551390909
O	3.8963101205854547	-6.256284734709091	3.1082717239090902
O	2.0950881205854546	-3.02995010470909	3.6872872839090904
O	4.601622250585455	-0.1579220547090905	4.11578409390909
O	3.340579720585455	2.5989473352909096	1.9045705739090903
O	4.7799465205854546	5.977396105290909	1.3243218739090905
O	1.9087305205854546	7.11048361529091	-0.7779454910909097
O	2.478537030585455	4.800198265290909	-3.7286968360909096
O	5.3247854505854555	3.5441600952909096	-5.8479842860909095
O	4.624273320585456	-0.11346711470909066	-6.7244847260909095
O	5.9530516105854545	-3.228092684709091	-5.011094826090909
O	3.017116380585455	-5.57358722470909	-5.51661620609091
O	2.319311680585455	-8.93817147470909	-3.8990608960909094
O	-3.953402389414545	-0.32476036470909064	-10.955111236090909
O	-7.521930899414546	0.8540073382909095	-10.42777404609091
O	-8.205586389414545	-2.5838843647090903	-8.02243521609091
O	-5.362381269414545	-4.881529184709091	-8.33196708609091
O	-4.183114909414545	-6.436454084709091	-11.67687216609091
O	7.466441880585455	-7.07494896470909	-8.50348375609091
O	3.956920120585455	-6.858883134709091	-9.70038216609091
O	-11.020297239414544	-6.505698694709091	-6.02180965609091
O	-11.323711489414546	-5.180004334709091	-2.4840776960909094
O	-7.445092209414545	-4.89906682470909	-2.2372679860909095
O	-6.708749669414546	-7.26679161470909	0.4971685339090903
O	-8.150319409414545	-6.51712444470909	3.9371877339090897
O	-9.463875419414546	-9.54469957470909	5.90991275390909
O	-4.738770779414545	-7.19049618470909	8.08464159390909
O	-2.220818385614545	-10.071229974709091	7.954041613909091
O	-0.5740364194145453	-8.385717954709092	4.89444169390909
O	-0.21782444941454515	-9.98829807470909	1.4624652239090905
O	1.3126639905854547	-7.21126160470909	-0.5402474750909096
O	2.3151934805854544	-3.5984953847090906	-0.6322226010909098
O	5.565786440585455	-1.7560555347090907	-0.7037799610909097
O	5.344731940585454	1.5776786912909095	-2.50367081609091
O	8.144374920585456	3.7975061752909096	-1.2296200770909098
O	7.310687320585455	6.96324434529091	-3.21154602609091
O	8.853604620585456	8.07067009529091	-6.51578810609091
O	3.5944751905854546	8.00285048529091	-9.78959011609091
O	4.401695690585456	4.383026485290909	-10.46298757609091
O	6.477028000585456	12.121740525290909	-6.9047703860909095
O	4.467423310585454	11.68200642529091	-3.7084955060909097
O	1.2202975805854548	8.78419986529091	3.36819078390909
O	1.6009550705854547	5.70875862529091	5.62360216390909
O	-0.8223015694145452	3.9201969052909096	3.50260383390909
O	-3.533825549414545	6.183402275290909	4.82150066390909
O	-5.112744969414545	5.88338024529091	8.29301627390909
O	-6.294374169414546	9.47779111529091	9.01555093390909
O	-11.469264559414544	13.591232625290909	7.6719380439090905
O	-1.5959352004145453	9.504202605290908	7.3686156839090895
O	-0.7084910494145453	6.84911948529091	9.89653963390909
O	2.855420500585455	9.49953056529091	11.70358573390909
