39

O	28.83345309020489	12.089415055621092	19.170030092959003
O	29.36464627371103	13.157010780074653	20.074624145329032
O	28.29354756512632	14.135790854143893	20.324267917056158
O	27.875145105513514	14.0445153399786	21.691765087594757
O	26.449844037541787	14.426782058973558	21.540980840697703
O	26.789434497949152	15.819557818766514	21.181469630931794
O	25.457979395396528	16.368181896127968	20.888560576535806
O	28.24037202279047	14.512979022194367	22.994803234606593
O	28.92683287805087	14.0099598448197	23.883750796665012
O	27.12962434024512	14.899914103395037	23.981109070054718
O	26.44360970681154	16.07813545406293	23.97942845767698
O	25.08931918046327	16.185694531099273	24.315984570960705
O	24.646059537116557	14.983206028037243	24.753165453409093
O	25.006869439943333	13.717348211333645	24.35321039333229
O	26.276835282783956	13.761422564656106	23.886252061624276
O	24.32248471259942	12.960903134534991	23.28192661014502
O	23.21412370011063	13.587671836376998	23.06589210448836
O	24.21264624327903	11.61872452870877	22.987051628835673
O	23.213567326198714	10.807202130127976	22.39390263755966
O	23.653355240864556	10.073266769051006	21.096498386975753
O	24.33124804840242	11.1707239185115	20.344741965010257
O	25.447706762180353	11.447804698514052	19.649488166787894
O	25.55920845840997	12.745739482343065	19.13477006455947
O	24.727935454031645	13.764051235928378	19.480282137876877
O	23.570637237205357	13.543650409571944	20.090282032540628
O	23.365926400480454	12.169870244535137	20.23356589751245
O	22.63176673837792	9.883163375902502	23.359892684634932
O	21.529411476543967	9.33469983999714	22.816800033782464
O	22.27047273413676	10.601315190857953	24.578095459783636
O	21.149295388561242	9.774685787235242	25.07035030865565
O	20.31964238824213	10.81928301230921	24.442430702390784
O	20.307359063002917	12.075151628836307	25.1765947484265
O	20.434199535088794	13.438901898340532	25.236611720320216
O	21.438752781938632	14.232871397519277	25.683398813911822
O	22.409862888390233	13.37078010264001	26.20016834464411
O	21.87083895077175	12.416293746484993	27.04035400800664
O	22.8410091909791	11.511708753716576	27.54001912426919
O	22.074268334788634	10.413754773320369	28.083931497486397
O	20.658694729274295	11.800312915230284	26.495434117348868
