41

O	27.866307566359968	13.50189558619001	20.919263118498375
O	27.538335283591127	13.698394633771082	23.38658968708953
O	28.457095056992472	15.042813938989543	22.34797594797915
O	27.719513230835858	14.421233495110247	24.56812253792645
O	23.743994306513073	11.185777260196609	22.899344333415666
O	24.15750116374773	13.095421863877968	22.078045030197796
O	26.598684952323136	14.510921379766236	25.328757836931526
O	20.929209536855513	9.976639247450228	25.414300319985685
O	21.536818453454938	8.662506385853117	23.113103690661678
O	25.92258787321463	13.32578752469836	25.060558393733803
O	25.619076887349355	12.593024564406662	23.930062821686043
O	26.575006932020386	12.842670357028359	23.07057478013258
O	28.492376700125234	13.803743163225247	22.211097089282354
O	26.611887903020005	15.405401740700064	26.45763781922382
O	24.654670328079508	12.258775470585745	22.856031791679484
O	28.629248410253076	13.432964540001098	19.672723520565842
O	27.260585735888483	14.583486156503714	20.11396129961044
O	29.573486275100784	12.318806928661136	19.83640454725406
O	28.94217030434799	11.317489803963225	20.727295659861717
O	26.489077210396353	15.043973633858695	21.216085727053482
O	25.68467742227674	16.086976584449815	20.50580380117781
O	22.592666877315878	10.70033934497067	22.249226676359836
O	22.061087888079356	9.840467685078707	23.4085388041831
O	23.214341584672	9.836839572837647	21.138329961668333
O	21.034073877048993	10.624355737169495	24.098637645236227
O	20.923913858138302	11.237700622132667	26.08223245383226
O	21.543779231719384	12.449312511049785	25.60678926402106
O	22.21519674921841	13.052470343459314	26.705867213905908
O	23.100701547630937	14.130283506616387	26.585873773048334
O	23.835641289159746	14.095260988740776	25.398922351973123
O	23.1929093952109	13.863057884784102	24.336538990124915
O	22.02195661024588	13.074401250605256	24.46921779644439
O	24.611115699619845	12.909176540950188	19.44266315591384
O	23.634125596564612	11.874853795885869	19.667582325671237
O	24.110598557371333	10.796365883468683	20.378744198401296
O	25.348346416181432	10.471670635269255	19.870994207337972
O	26.16251943630935	11.298760032797261	19.09823790538988
O	25.715498881507514	12.542340618175729	18.880385788487526
O	23.947339482622517	14.036270071386724	18.98618470996989
O	27.147045671953855	11.01753576457607	18.23657823266231
O	23.769146458390583	15.410972974779389	23.113659264350645
