102

O	-1.7609674996199987	2.6270124963833337	2.1674076366588335
O	-0.7978871376199987	1.7945580643833337	2.5450215366588336
O	0.38021670238000116	1.9664246062733337	3.373354536658834
O	0.35957976238000144	3.4407094443833337	3.4117232266588338
O	0.6978417623800013	3.901019654383334	2.2208793766588335
O	-0.2781879976199986	4.305636994383334	1.3881573266588336
O	-1.0634139156199987	5.165551994383334	2.0759712866588336
O	-1.6938572166199988	5.0581253943833335	3.2823512366588337
O	-0.8057979376199986	4.0936739043833335	3.8758462766588337
O	0.5412386123800013	3.9787463043833338	0.40222312565883367
O	0.06532450238000154	3.018015294383334	-0.35287068734116633
O	-0.32256931761999863	4.323010494383334	-1.3911113833411664
O	-0.6289938276199987	5.583338884383334	-0.7168823273411664
O	-1.7929194906199986	6.1828458143833345	-0.14998362334116638
O	-2.8928607526199985	5.348301424383333	0.6234925476588336
O	-3.0221129056199985	4.591989434383334	-0.5008321923411664
O	-2.5027778316199987	3.4369486043833337	-0.3414421583411664
O	-3.3175300376199983	2.866891642383334	0.5482961036588336
O	-4.5501260076199985	2.6438616503833337	-0.0720036653411664
O	-5.004851447619998	3.4438018243833337	-1.1230231533411663
O	-4.379689847619998	4.675611554383334	-0.9437221933411665
O	-5.138454057619999	3.1783826843833336	-2.6408321133411663
O	-4.0677009876199985	3.6219198143833338	-3.3472541433411664
O	-3.2680710176199987	2.8232381973833336	-4.073062913341166
O	-2.8902521936199985	3.349667434383334	1.7587386366588338
O	-3.807145627619999	3.9927760943833337	2.394650456658834
O	-1.0845814466199988	0.4115299743833336	2.3717712666588335
O	-0.6582577076199987	-0.3035774156166662	3.3793248066588335
O	-2.5133283906199986	0.5018279943833337	2.161434736658834
O	-2.8252059456199987	-0.8636134056166664	2.4036323466588336
O	-3.2812021976199985	-0.7690261856166662	3.797088166658834
O	-3.887305807619999	-1.5892823756166665	4.808028976658834
O	-4.560892797619998	-1.6692198456166665	3.6153297266588336
O	-3.2002637076199987	0.6498470443833337	4.0001065366588335
O	-4.332284677619999	1.0193517093833337	3.1152180666588336
O	-5.149366427619999	1.6756703883833337	3.9119734566588336
O	-4.758814207619999	2.6635701873833337	4.760203776658834
O	-3.4074059476199987	2.705454087383334	5.026757856658834
O	-2.7147106106199987	1.5004474143833337	4.9151034766588335
O	-6.2844627276199985	0.9329402943833336	4.621799986658834
O	-6.736116827619998	-0.40585626561666643	4.341325106658834
O	-5.809236197619999	0.5401369143833337	6.033748206658833
O	3.1358951823800014	4.916282374383334	-7.4096739733411665
O	2.2124672223800017	8.080949764383334	-5.5443969933411665
O	4.946886302380001	7.6368481043833345	-2.9382025133411664
O	5.388336802380001	3.925691064383334	-2.833559163341166
O	8.004712622380001	1.4014703323833335	-3.8491688633411663
O	10.82624872238	0.26003379438333374	-1.5432744633411664
O	11.688274722380001	-0.36628913561666643	3.3295655766588337
O	8.319955922380002	0.11246041438333365	1.6520799166588338
O	6.930448022380002	-2.9639587156166667	0.024953564958833607
O	3.2871502823800016	-3.1545928056166663	1.1270120466588336
O	1.1636574523800012	-6.1810641156166675	0.09304802582883362
O	-1.7213974986199987	-4.2695528656166655	1.6469519066588336
O	-0.5726974276199985	-4.322075185616667	5.307473766658834
O	1.0148602423800015	-7.126234695616667	7.659123096658834
O	3.440209622380001	-5.343158945616667	10.004379776658833
O	7.179633092380001	-4.8778133556166665	9.648832116658834
O	7.575079782380001	-1.3832768156166662	11.142196276658833
O	-2.0902580227199987	1.8075318133833336	13.881249876658833
O	-4.487547567619998	4.6190644543833335	12.842108876658834
O	-1.2403516016199987	6.9476826743833335	11.994225176658833
O	1.8179480123800014	5.399475804383334	13.681425576658834
O	1.3835482923800013	11.906369474383332	8.321618806658833
O	3.2681213823800013	8.504466784383334	8.144355376658833
O	6.637179062380001	9.249058624383334	6.576793556658834
O	6.446827722380002	10.900083774383333	3.0869631066588337
O	9.82815942238	8.962602614383334	-0.6382029863411665
O	11.939068822380001	4.997163024383333	2.637898286658834
O	10.051264622380002	1.6251761693833338	7.2409255566588335
O	7.2512852623800015	-0.5778981356166661	5.861332426658834
O	7.282104762380001	-4.313950995616667	5.051809976658833
O	3.738034412380001	-5.648547665616666	5.400880146658833
O	-0.08240975761999869	-9.625416705616667	3.7957754866588336
O	6.822616722380001	-2.432812285616666	-9.980432623341166
O	-5.850191777619999	-15.246418205616665	3.595695686658834
O	-5.967587037619999	-11.802507105616666	5.241742736658834
O	-5.437292587619998	-9.186544805616666	2.5456331566588335
O	-4.4553578276199985	-10.615523705616667	-0.8012255233411664
O	-7.490658077619998	-6.816439495616667	-3.0124311633411662
O	-4.017293317619998	-6.399703855616666	-4.516933883341166
O	-2.2110041176199986	-3.768790135616666	-2.8026934733411664
O	1.2058897323800015	-2.3893456956166665	-3.553817193341166
O	0.7646051523800015	0.04983827438333366	-0.8040441203411665
O	-1.8065688266199986	1.4211562483833338	-2.8095358933411663
O	-1.3608797536199986	4.1203084143833335	-5.618326883341166
O	-4.505707207619999	3.9129776843833337	-7.771433463341166
O	-6.775124077619998	1.3344664483833337	-9.251201443341166
O	-9.719122897619998	1.8696789353833336	-6.950971383341166
O	-8.437142097619999	5.458592174383334	-11.136872123341167
O	-10.550232357619999	6.563840334383334	-8.205877233341166
O	-13.634810577619998	5.605258034383334	-6.279718313341166
O	-13.565503977619999	3.4350488043833334	-3.2422116433411663
O	-16.02567337762	2.823956705383334	-0.40772292634116636
O	-13.90784447762	-0.23644659561666614	0.6029166826588336
O	-8.004501137619998	-2.108456745616666	-4.847736173341167
O	-5.480002387619999	-3.1014387956166662	-7.481322613341166
O	-2.8708032036199986	-0.6091367056166663	-6.534233963341166
O	0.5518035423800014	0.2784450843833337	-7.710267803341166
O	-0.45704336761999853	1.7984567293833336	-11.051327423341167
O	-2.1003534893199984	-1.5027738556166663	-12.002534923341166
O	0.7230869123800012	-3.5542668056166664	-10.609615423341166
