44

O	24.324704788277703	14.579646729884521	23.811238397078355
O	25.772849661913554	15.678032182580498	25.147279719592664
O	25.03792904571589	16.528944251690177	27.0735103512897
O	23.50833106250333	13.559461748596373	23.561504684977145
O	24.1559656670956	12.599301454841653	24.364183132533636
O	23.82513535270386	12.883530471115472	25.632537937182413
O	23.85496795842921	14.193371121705212	25.913795862248993
O	24.93859505804329	14.699561473849293	25.097386099634182
O	25.05219350216044	11.989314364609696	23.395288377522512
O	20.425235209190365	13.494744701965038	23.111869519314887
O	24.161395357014563	11.167039354307924	22.753118701275156
O	23.86884846159511	15.682823059841784	23.284456122250322
O	25.82607775716362	12.629249071006708	22.797925558879154
O	23.122806469750284	10.71799385495161	22.044216786141025
O	23.671507706397403	10.825364041820524	20.73337836734982
O	22.28738783116987	9.926150767654057	22.92380861987783
O	25.00008443057657	16.489210990709054	23.14242590577931
O	22.046897687607903	8.621604035451828	22.879860069237914
O	24.54574029592715	12.066533532147266	20.520217131001864
O	21.95072257338848	10.463356521006498	24.234642314366106
O	21.25603890401326	9.592463585843493	25.122883331683408
O	20.521904436934527	10.162947365034512	26.22637645483654
O	25.800248763293474	12.293159484702585	19.958468258748542
O	26.50822829152252	13.547589643116128	20.12210267631835
O	25.920024804645294	14.678539752606916	20.608329672580282
O	24.584704649149653	14.51603377862889	20.485670806294817
O	23.893856570667147	13.296061273736907	20.48468748059115
O	21.706563843022835	16.899258456261126	26.165808092202145
O	22.959164957743727	17.568924705752792	26.64116838791699
O	23.826816785828886	16.374077451874456	27.035404212757147
O	23.21753840941411	15.143732745297893	26.743507268665507
O	21.837436349840402	15.690106653603992	26.551434741899364
O	26.05723553431733	16.4501647788024	24.038649456926475
O	22.0886074353365	16.86539793045562	23.091584836660033
O	22.702384851433205	15.793972644789914	22.295395220709842
O	20.721777176838376	13.328099686466214	24.526299353042592
O	19.72885326137264	13.995229561004516	25.266366973921727
O	19.486548747839862	13.749776995057948	26.61838948175599
O	20.16473188770713	12.596228867078949	27.073212773337858
O	20.1553710773603	11.551194986359135	26.138478942627774
O	20.706567228127494	12.039267146014119	24.92821244575471
O	19.9855012502011	14.765302803116967	22.915107197414294
O	19.215973627240814	12.813891189789386	22.964724746531502
O	21.13110724276061	13.163538622856619	22.070777557044128
