44

O	27.421376854712477	14.662371676144817	24.617749385094676
O	27.583047238547802	13.731063943562859	21.076078946935734
O	28.765792815319188	14.83238316075603	22.55063480392999
O	27.433878721780022	13.694734592304068	23.640791813278508
O	23.76784416849863	11.248754550896194	23.186505745026903
O	24.431858400475317	12.981185371453797	22.18911326868039
O	26.438929569311433	12.827836055090183	23.553519822384228
O	21.0056794014888	9.16976279605183	25.089809891293495
O	21.56290976198796	8.397953287409077	22.642919419595543
O	25.253489304136515	13.00847327591332	24.28273745405722
O	25.29856694613861	14.063096918358632	25.106608291564694
O	26.22361350295819	15.048058268265155	25.28197532086097
O	28.281885851549212	13.667258145721634	22.381557570818924
O	28.485741356721334	14.026603784706193	19.94564252940604
O	26.61562364995247	14.772295677824307	20.681090660820082
O	26.649497579940082	15.324850578364902	21.98075280767162
O	25.320366950807962	15.953250897677533	22.17779523289353
O	29.41775070951623	12.896537634432388	19.774406073397195
O	29.224268011751143	11.907341564958184	20.859176423311254
O	26.77643555648654	15.556439250279194	26.535264697065088
O	24.287712396875513	12.531828045561461	23.329222692111824
O	23.06615559846218	10.365966462866766	22.406186525164177
O	22.417721570778724	9.341072087824378	23.257245013553792
O	23.521706897657282	9.75588777867199	21.167532269374544
O	24.39133631438192	10.739783795196091	20.44128977764805
O	23.914853026073228	11.612439825720823	19.502503503007034
O	24.77530631881722	12.718377526664334	19.2767274791315
O	25.975557897658646	12.38919658138245	18.783569209489485
O	26.47916080216152	11.219087751699918	19.18720902556685
O	25.73283277754021	10.519195802490403	20.139196386639018
O	21.53012462368442	10.120795481061595	24.09694421885354
O	20.569882223669183	10.186723373055202	22.85818134032216
O	19.40714916600723	10.829591587280294	23.495745369709017
O	19.827084633761878	11.178551509525608	24.8887246417612
O	19.997445429284863	9.944544161889915	25.766676571300845
O	19.62609374987582	11.915323042096166	22.43693247992425
O	20.997555128659215	12.562052845791209	22.559198904168397
O	21.504712049175613	13.50628320138511	23.359580178368116
O	21.97732572026269	14.744160525302245	22.927797448246906
O	22.177528895858284	14.984728791464391	21.61080985868128
O	21.948738991643115	13.931699070073208	20.775816547130276
O	21.588958046040005	12.716107814662333	21.308470876343172
O	24.25600037254119	13.90284950439327	18.795697160707086
O	27.51768721643296	10.818377862041173	18.451625333366803
