31

O	22.55152749496976	14.381212110386578	26.85384957692784
O	22.33508200047469	13.195657329836466	27.60682785816482
O	25.425228254206722	17.04178483884439	26.55890757495623
O	25.903809277793428	15.724034335255968	26.453219926935503
O	24.988680015372392	14.67899295897364	26.500421486454695
O	23.653537769337127	15.032320162454301	26.490614586714234
O	23.215074926056115	16.30938282063745	26.157461394810483
O	24.101666894322662	17.338858430200652	26.214847683786594
O	21.526843367641565	14.938761551139642	26.134325926628065
O	21.863465784146392	16.253506079225332	25.850799074385016
O	21.923562320349824	11.304565185478149	24.455661283619744
O	21.451425332293795	12.520190489063634	22.252060082207187
O	22.368226037634386	12.626326313332452	21.05364841280414
O	22.438389490745216	13.975890139051156	20.656031292290958
O	23.643317782158633	14.664541560402542	20.560227509992085
O	24.844473751782136	14.010004084647235	20.873849788211984
O	24.768919932635352	12.655140725806369	20.531960598206695
O	23.58305730311008	11.969787230943194	20.868091096937086
O	21.547710015601194	12.275662331355313	26.704137646111082
O	20.408301153564686	12.738583859864683	26.38360070515204
O	22.447831192985994	11.764789783249752	25.67698329713274
O	22.23775452728784	11.599820554808176	23.113059561716916
O	20.64920129555786	10.980822464890235	24.5482497446601
O	25.81754110982705	14.551923566550482	21.78959373170974
O	25.491600349878833	15.27589439093723	23.000823182235514
O	25.922748837847696	16.731699144274465	22.957811010588543
O	27.235254465007174	15.555480112171288	25.872220065657707
O	28.14660088561067	15.690823796866304	25.133769354991756
O	24.255863680197475	15.163151806478876	23.30996545301188
O	26.31403355856004	11.89862801849867	20.347135993973428
O	23.75434122512198	16.42295026228627	20.83187455996711
