86

O	-1.5217336289642855	2.074910443551786	-7.4466425863928585
O	3.7507133010357148	-0.800875406448214	-3.0805250363928582
O	3.6674888410357145	0.594546594851786	-2.6637488763928583
O	4.296867191035715	1.394181517551786	-3.3846563663928584
O	3.3195735210357147	-1.304416536448214	-1.7094908423928583
O	2.792667141035715	-1.462447316448214	-3.9309930263928585
O	5.166579171035715	0.609590364551786	-4.120602906392858
O	5.173757971035715	-0.7252546164482141	-3.4741092063928587
O	1.2033034110357144	-2.1623492864482143	-0.15831287639285851
O	3.4692633210357147	-2.546276886448214	-1.1819381753928584
O	1.5401179810357144	-0.860565926448214	-4.0987415463928585
O	1.2117637810357145	-1.860911206448214	1.2568435236071414
O	2.4586767510357146	-2.8930188264482144	-0.25047027639285835
O	0.4916483800357145	-1.5531902064482142	-4.709190636392859
O	2.0214035710357146	-1.5321449764482138	2.265271093607142
O	0.046471725935714546	-1.200245426448214	-6.078414276392858
O	0.4879736550357145	-0.983244156448214	-8.380647666392859
O	1.9421355910357145	-1.028026806448214	-1.7824443353928585
O	-0.5551852399642854	0.05646480755178601	-6.041227736392858
O	0.7333706610357146	-1.652924846448214	-1.4478102603928584
O	4.879765931035715	2.7120506535517857	-3.0824085963928587
O	-0.5741364999642854	0.6439389865517859	-7.268150596392858
O	0.29419881703571454	-1.8443629964482138	-7.273628096392859
O	0.4772645740357145	0.373955674551786	-8.09389485639286
O	2.604952311035715	-2.8320237664482137	-3.6689261863928584
O	0.36879121903571455	-2.883563046448214	-4.529132126392859
O	1.5060815010357145	-3.5452658264482135	-4.181771376392859
O	2.8411818110357148	-3.7691748064482136	0.9367625736071414
O	1.7628272110357144	-2.132871316448214	3.5352342236071417
O	3.142149311035715	-2.0286454364482136	2.775129563607142
O	-5.889171408964286	0.31766422355178603	-8.929018296392858
O	-5.068754728964286	2.7668112135517857	-6.1455206663928585
O	-7.227630478964286	5.246037813551786	-4.081202736392858
O	-8.556799888964287	3.908184573551786	-0.8117714663928584
O	-10.979218728964286	-0.46126479644821394	2.5465476036071415
O	-7.289971148964285	0.575997237651786	2.672779053607142
O	-5.0494945889642855	1.832160573551786	-0.03797254639285841
O	-3.686670378964285	5.3222922935517865	0.7448026036071418
O	0.012352987035714552	5.139320933551787	0.14835059360714165
O	2.5761130510357146	7.7762381735517865	0.6309914436071418
O	5.3415767310357145	5.532218453551787	-0.7846756263928585
O	5.447544771035715	3.0669865635517857	2.137357283607142
O	5.245845941035714	2.920816293551786	5.833055193607142
O	3.2720851010357146	-0.05313598244821405	7.000980503607141
O	-0.3771509249642855	-0.27758005244821404	8.01213599360714
O	-1.0775267689642856	-3.8052865264482136	6.726123773607141
O	-4.379693518964285	-5.568746656448214	6.1561163636071425
O	7.472012271035715	-7.136115066448213	2.9186538136071416
O	9.044712551035714	-8.302366956448214	-0.47221287639285836
O	5.305474671035714	-9.689555096448215	-1.6017850933928584
O	3.2295225510357146	-10.049836196448215	1.5619594036071416
O	3.9683589610357144	-11.719133496448215	4.8980501936071414
O	2.230095821035715	-10.969612896448215	8.133957663607141
O	-1.2534444189642855	-3.5098950164482137	12.307668263607141
O	0.45460597303571454	-6.113843696448214	10.19803266360714
O	0.7009206420357146	-12.738176196448215	-0.15362181639285843
O	1.9484502710357146	-13.095462896448215	-3.713868926392858
O	0.6690265160357146	-10.708927096448214	-6.374780996392858
O	-0.25544841696428544	-8.210332056448214	-3.6498537563928584
O	-4.053885788964285	-7.968177156448214	-3.7287707663928584
O	-5.460943108964285	-6.538310216448214	-7.048483006392858
O	-8.626853528964286	-8.239568706448214	-8.317806096392859
O	-9.500803158964287	-2.8580515464482144	-6.541275486392858
O	-12.052628628964285	-3.174987456448214	-3.6867883063928586
O	-9.213873778964286	-2.5770935464482143	-1.1511383513928584
O	-8.120242618964285	-5.077049296448214	1.5255337536071416
O	-5.143442698964285	-3.416575636448214	2.9961993336071417
O	-2.6888449389642854	-0.5746762764482141	2.723978843607142
O	-1.9444643489642854	2.524711973551786	4.735328623607142
O	1.7155165510357144	3.453842013551786	4.515241263607142
O	1.9317951310357144	7.178366983551786	5.2903122736071415
O	5.686884001035715	7.612198863551786	4.899839383607142
O	8.259232311035714	7.656862943551786	7.705211393607141
O	11.356072971035713	2.7233219035517857	5.707952153607142
O	8.881827921035713	0.673254542551786	7.775753913607141
O	12.007878971035714	8.436060673551786	4.9064799936071415
O	10.059199871035714	8.528591023551785	1.6457182236071415
O	4.025420811035715	8.412115303551786	-4.0473369963928585
O	0.22720697003571458	7.828393763551786	-4.197258036392858
O	0.8651413360357146	3.992712653551786	-4.524929856392858
O	2.6350643610357145	4.509682993551786	-7.799266766392858
O	0.32611503903571454	5.329046393551787	-10.87132718639286
O	2.7782419310357147	7.144321513551787	-13.197800736392859
O	2.6516251810357145	9.169735553551785	-8.683335336392858
O	-1.1614587589642855	9.296546073551786	-8.707952396392859
O	-1.2675054089642854	13.959267003551785	-7.795357436392858
