70

O	3.2584675647142856	-3.2576448117142864	2.444208927408164
O	1.9102086947142858	-2.730783091714286	2.110142227408164
O	1.1394888747142862	-3.164678031714286	1.0160519634081642
O	1.3067380147142857	-4.526141851714287	0.7165533514081641
O	2.151154534714286	-5.075844211714286	1.7870459774081642
O	3.4305438447142853	-4.458382451714286	1.6931259474081641
O	1.406272944714286	-4.957170431714286	3.042810767408164
O	0.02909982471428596	-4.541243941714286	3.009813967408164
O	1.343127294714286	-6.150306331714286	3.547657147408164
O	-0.712035326285714	-4.286057331714286	4.192518327408164
O	0.23090077471428594	-4.196648451714286	5.320535937408165
O	1.660719484714286	-4.024324941714286	5.201758477408164
O	2.394649184714286	-2.453588571714286	5.622800027408164
O	-0.27089198428571404	-2.9847491617142863	1.0281100254081643
O	-0.758420137285714	-3.6724060517142862	-0.2152666705918358
O	-1.251004245285714	-2.820364511714286	-1.181578012591836
O	-2.617771195285714	-2.8012328017142862	-1.4963543825918357
O	-3.5223857852857137	-3.5753470617142864	-0.7634542625918358
O	-2.9000562852857144	-4.766771621714287	-0.3632912335918358
O	-1.576271124285714	-4.723410071714286	0.10281841940816416
O	-4.666440795285714	-3.135974431714286	-0.2116136425918358
O	-7.0736577852857145	6.118260138285714	-4.5092848325918355
O	-8.119126225285713	5.440392548285714	-0.9305552125918358
O	-6.802387975285714	3.8913572882857137	2.2737685974081643
O	-8.167338385285714	0.3929617682857139	1.6675840474081642
O	-6.770123635285715	-0.07169910671428609	-1.8310008425918358
O	-3.8969792552857143	2.362142428285714	-1.764172432591836
O	-2.9243273852857143	5.706307338285714	-3.265306562591836
O	1.033726994714286	2.378151738285714	-5.753402212591835
O	2.9220818547142855	4.956578908285714	-3.630053252591836
O	4.541099294714286	2.827132058285714	-0.9653142725918359
O	6.821484554714286	4.258193458285714	1.7433448974081642
O	7.068167624714286	0.782654468285714	3.275283067408164
O	9.127629284714287	-0.8771412717142861	0.49532201440816415
O	12.049730784714285	-0.08308717471428606	-1.804888742591836
O	11.389051584714286	-1.611983041714286	-5.250497552591836
O	7.889141674714285	-3.082767081714286	-9.719549212591836
O	5.2411837047142855	-3.1947604817142863	-12.404377112591837
O	3.867350844714286	-12.561293091714285	-3.312223572591836
O	5.208087104714286	-11.355213991714285	-6.632251092591836
O	-0.3446905722857141	-14.194232591714286	-5.833515882591835
O	-2.773737405285714	-11.910350491714285	-3.9966814025918356
O	-0.6745285952857141	-8.889827881714286	-5.033425022591835
O	-2.896189255285714	-6.998690791714286	-7.475394252591835
O	-6.134719925285714	-5.699664721714286	-5.944843662591835
O	-10.453942045285714	-2.389482441714286	-8.857966342591837
O	-7.523994515285715	-0.5292240387142861	-7.268752302591835
O	-6.7177924052857145	0.8406980382857139	-10.714751212591837
O	-2.949155415285714	0.46952889728571395	-10.043582212591836
O	2.6370239847142862	-1.428805511714286	-10.105410712591837
O	4.276566694714286	-0.32976813871428606	-6.864313472591835
O	8.875809914714285	1.627966608285714	-3.1472452525918357
O	12.074757584714286	1.570235078285714	6.542458927408164
O	11.077322484714285	5.102920958285714	7.522078337408164
O	5.469514554714285	5.241790758285714	8.454710747408164
O	3.9283012147142857	3.0318839282857137	5.704553137408165
O	1.601557544714286	4.446745558285714	3.009487107408164
O	1.2184772847142857	0.7748283482857139	1.741024417408164
O	-0.5735967742857141	-0.22643253471428607	4.943720217408164
O	-4.171420175285714	0.715998858285714	5.3971058974081645
O	-4.495186895285714	0.7051963582857139	9.195401757408163
O	-11.538808015285714	-4.667476671714287	12.308501187408163
O	-9.020794775285713	0.9238356182857139	11.159878187408163
O	-5.430994655285715	-3.3740716617142863	14.356857187408163
O	6.0081841947142856	-6.619421701714287	13.422340587408163
O	-0.575217070285714	3.3575580582857136	7.720093807408165
O	-2.7023341852857143	5.382624358285714	5.341903817408165
O	-5.535593855285715	6.143785138285714	7.7298865574081645
O	-1.344709575285714	9.647928308285715	7.1343138674081645
O	-4.714904005285714	10.997737408285715	5.919140267408165
