36

O	23.59537625002754	12.1073667899636	22.96640469391813
O	24.15436413293287	13.382661725480075	22.923469872034172
O	22.99448620875425	14.12878976656888	22.742135191961946
O	21.77495846999063	13.352817854304606	22.613086146591964
O	22.15521305843231	12.210183033072846	22.81834867365439
O	24.107800916458743	12.710978983964837	24.312460204902884
O	22.98907595455313	12.484005546040247	25.102612511452353
O	22.019684190299948	11.548474044691806	24.97137137500869
O	22.44701375454151	10.466311050813049	24.31106060743786
O	23.77800906948869	10.845242333940913	23.55602591446474
O	22.91063273530737	15.356634608496012	22.313573731091257
O	21.461757341442926	11.019620756701453	22.674830557609926
O	25.17489678129862	13.656967900111432	21.936825830889443
O	20.101671088779916	10.713875906416234	22.70091136778261
O	20.259507934145542	10.458823746785173	21.255379155368534
O	20.566547774229498	11.83087812843799	20.630609779323017
O	19.25658423957366	12.503586237627408	21.058953161688404
O	19.20761142818347	12.843364770117894	22.494917440830772
O	19.071407214046427	11.564361698925453	23.257037713616917
O	25.586144287345626	14.992391973370482	22.07594950815682
O	26.568041003866366	15.290200365471009	21.105041253818445
O	27.243690041452865	14.226803792198751	20.48690093947856
O	26.437478082171328	13.225582610624192	20.017131581468725
O	25.359247921134404	12.905087334314617	20.794077080294567
O	20.919007793296334	11.949547011719687	25.64614455423756
O	20.941746324821423	13.431038730002747	25.56450041224668
O	19.92218553829184	14.281208081735418	25.373113727044
O	20.25768877617097	15.441406705854499	24.667866539434574
O	21.454798777509495	16.015130182456332	25.05967754789168
O	22.535883238736297	15.26983864068773	25.521764199696065
O	22.16476595237285	14.008150055074623	25.857215169929937
O	23.77637935189152	15.76520801384373	25.215606269905166
O	25.093417203527906	15.594162717021753	25.49089846641878
O	25.52773087893783	14.754052666053116	26.628608521142656
O	26.02761660224933	16.637766436930168	25.008175564509074
O	26.762647848895853	12.377123629567276	19.02074988026925
