40

O	26.204724407776823	14.39102364622509	21.651015464110518
O	27.330097681144327	13.59764923156062	22.133591307189402
O	26.63960905210999	12.533050933707806	21.9284250866434
O	26.34373793098678	11.961113007408263	20.768975426893434
O	25.625332491791692	12.862961825657024	20.052479779801708
O	24.411378272927355	12.53715635155126	19.459204652892613
O	23.821633495733924	11.275812471305198	19.67975593932951
O	24.592817728839425	10.33002143550747	20.390793028062763
O	25.695059284012014	10.829848556761924	21.16152656582637
O	23.685593684359738	9.483234698047625	21.24384442239701
O	23.06351683379259	10.446763020317217	22.208452663032578
O	22.585941054852846	9.785242656061417	23.460435924892955
O	22.152158215751573	10.861711247077459	24.33918218537857
O	22.951938651462914	12.05523051153633	24.661832487630903
O	23.841713102232085	12.691862259509312	23.363957278691938
O	24.29616311766178	11.103077309276358	22.762381391916673
O	25.019618798970793	13.16120007027935	24.077167141263935
O	23.472984030448274	13.48438633229047	22.34434231192063
O	22.07780360561205	10.237070022157589	25.670895232357314
O	21.578017661533327	11.410525962209338	26.43662564696656
O	20.609051390799237	12.083957931756771	25.576599135001757
O	19.898850829436395	11.033804222275375	25.0071692968007
O	19.438178909079006	11.145570424980676	23.78803066835981
O	19.378988025927086	12.4440611060817	23.260071190480232
O	20.198330612698733	13.46313114593146	23.73399216259617
O	20.5711167618156	13.363722594811403	25.11239613080702
O	18.2042274062404	10.289899050176952	23.83376008944431
O	17.110592493177656	11.202337934762271	23.66911769918301
O	18.329066286785903	9.40044880548427	22.740617584104463
O	17.67888376540671	9.645382753530312	25.05759425405802
O	21.608435586825614	8.851608638988433	23.3192596587212
O	26.49067778299134	13.445651897215248	19.058753007501494
O	28.5984571396001	13.417684951953067	21.351011335923154
O	28.63263899127901	12.223474445513371	20.679027269200038
O	29.682873829395472	12.311815575019365	19.74837158741331
O	29.55713143278564	13.73577698324339	19.21066796662596
O	25.216116871840583	15.095501633214436	21.160134389601513
O	27.17780842088597	15.303619731255973	21.02401970584899
O	26.105181415912305	15.22591830141025	22.80650274809373
O	23.597277199859377	13.624333358556184	19.203634694671063
