76

O	3.6038709576327594	6.619602831655173	-0.5417454918275859
O	0.5097526636327592	4.400885731655173	-2.6125710788275858
O	2.7706759176327593	3.157595951655172	-2.445350088827586
O	1.8006372576327594	3.9884858916551726	-1.844738628827586
O	4.930039387632759	2.3057515156551727	-2.138018808827586
O	3.847961827632759	3.154035471655172	-1.683582318827586
O	4.213347037632759	4.285605101655173	-0.8662931048275858
O	5.599782787632759	4.538460671655172	-0.5973549218275859
O	3.616183607632759	5.5304908616551725	-1.1286453328275858
O	2.3622098376327596	5.359584761655173	-1.9244271188275859
O	1.0694147576327593	3.2556805116551724	-0.8864236588275859
O	1.3889743576327591	2.8381465176551726	0.42579042217241414
O	0.6910440776327591	3.8170494216551725	1.350679961172414
O	1.4280245276327592	4.941421111655172	1.600528641172414
O	0.9811145576327591	6.219253441655173	1.2654055011724141
O	0.03765842563275923	6.145596651655173	0.23088683517241412
O	-1.0419346073672409	5.3204160316551725	0.6265079191724141
O	-0.6178276943672407	4.051694661655173	1.048210871172414
O	6.174663037632759	-3.9605961683448276	8.397205191172414
O	5.125802727632759	-0.7098429483448274	10.062945631172413
O	1.4722096876327593	-0.7835262083448276	9.030564711172413
O	1.6211688376327593	-3.123074438344827	6.055936351172415
O	0.6414009476327591	-6.624166568344828	4.993951421172414
O	-2.8557531123672404	-7.202329588344828	3.689136631172414
O	-8.80265243236724	-6.198682978344827	3.859647101172414
O	-6.442050482367241	-4.891337838344827	1.216777541172414
O	-2.8538879223672406	-3.688114378344827	1.496656141172414
O	-0.4810335110672408	-5.672247058344827	-0.7705211958275858
O	1.576728397632759	-2.9020493283448277	-2.488996218827586
O	4.222544787632759	-3.7009791183448275	-5.102243468827585
O	5.090139397632759	0.004454701655172366	-5.245876218827585
O	1.843453417632759	1.2009724106551725	-6.923170428827586
O	-0.5887410813672408	0.16940029165517245	-9.640803518827587
O	-4.102290952367241	1.1088473326551724	-8.495098228827587
O	-6.674261982367241	-1.0298598283448277	-6.7979532988275855
O	-8.31645561236724	1.5246041246551725	-4.4924351188275855
O	-10.75613735236724	0.9095777376551725	-1.645334428827586
O	-3.5738734923672406	10.568074941655173	-6.044119318827586
O	-1.3640742153672407	12.944060311655173	-4.041336278827586
O	-3.4179170023672407	11.741984081655172	-0.5801672478275859
O	-6.661628072367241	10.039787231655172	-1.617233768827586
O	-9.39041780236724	11.051341991655173	-4.043448118827586
O	-11.71454815236724	-0.04981483834482758	-8.668606648827586
O	-11.04396765236724	3.4507179716551724	-7.433677578827585
O	-5.781499442367241	12.699031311655173	3.9995708011724136
O	-3.2724835723672405	10.691995991655173	6.076653131172415
O	-4.065669332367241	7.653362951655173	3.961149771172414
O	-5.667294192367241	5.1633167916551725	6.177134841172414
O	-3.5974815423672406	4.048233221655172	9.157983191172413
O	-5.468511062367241	3.7300682616551724	12.476574431172413
O	-3.8163446023672405	-1.2979189583448274	10.307855731172413
O	-7.043229492367241	-3.253719948344827	9.807701031172414
O	-6.876012352367241	-2.613581298344827	6.019751411172415
O	-9.50124992236724	-0.7115847583448274	4.019193221172414
O	-7.906573782367241	-0.5080933883448278	0.6054558171724141
O	-4.713920812367241	-0.9416203583448277	-1.397235558827586
O	-3.7876937923672407	-3.4146925883448276	-4.116591688827586
O	-1.2580102943672409	-1.9546997783448277	-6.498089888827585
O	0.6832229976327591	-4.781751448344827	-8.046848378827585
O	3.1072532276327594	-2.796651418344827	-10.205753898827586
O	2.7343073476327593	-1.8704914083448274	-13.879848668827586
O	6.202782347632759	-11.346907788344827	4.254318071172414
O	6.797341607632759	0.5500644516551725	-14.226543368827587
O	7.840671817632759	0.08264320165517236	-10.607914768827586
O	11.12356074763276	-3.465981198344827	-4.511155298827585
O	8.20829878763276	-1.9707572683448273	-2.562496218827586
O	6.037096487632759	-3.8512141483448277	-0.03692769682758587
O	4.2164856576327585	-0.6507539283448274	0.6346236011724141
O	7.261957637632759	0.9534992766551724	2.230480981172414
O	8.40747185763276	-0.1795839683448277	5.694548191172414
O	12.12319564763276	0.5885356416551724	5.572979971172415
O	16.439898247632758	5.586326481655172	6.2021004911724145
O	10.74935694763276	-2.1716155283448275	1.692530221172414
O	8.97878972763276	-4.642451648344827	3.912578411172414
O	11.77737424763276	-5.080853008344827	6.433544461172414
O	11.33848844763276	-8.419355588344827	2.080878021172414
