52

O	17.527213643004274	16.29937485410912	25.64678152532531
O	16.162630134689675	15.858666048793754	25.924053406163804
O	12.122544213836077	14.096081004706283	27.21901641769786
O	15.660059450331078	16.08334768569062	27.177008895521876
O	13.987179541466634	16.34101245129241	28.756745543743904
O	15.039309547982079	14.50882917094005	28.989256855229996
O	14.284543549375059	16.464494943209118	27.38856302861063
O	13.447393554988633	13.271204137084887	28.704159360439665
O	16.4782115578487	16.215891400212342	28.05532028895436
O	14.347152031883253	15.312286961976577	29.6209834631105
O	13.857469092245111	14.09343097804964	25.01458579811718
O	17.090116596407345	15.431131576173359	23.569411977578895
O	13.337329241739472	14.76595923012977	30.538436385270302
O	14.816762298595194	13.5517245674835	24.262387370544403
O	20.195678036986063	12.202384045639887	23.481488046832425
O	12.652631472476846	13.644740761218994	29.81817854008364
O	14.778927282671596	12.27021782554241	24.508463597949785
O	17.774685136645026	12.625367979959917	24.501735751127185
O	13.171086536810403	13.3806792584178	27.345233748928848
O	13.997486322163068	12.142996832113166	25.544557658816665
O	14.206504738737431	10.387895326751977	27.980740382354
O	14.100289856017541	13.39901506520062	26.176213252306045
O	12.353282031890284	15.77813217264116	30.80975036863076
O	15.987212778476636	9.531812419157278	26.934074957580325
O	14.161091317248315	17.924085060443666	27.053500347202547
O	19.213683175082366	15.497045654346346	24.077777947731978
O	15.41574062828302	18.542672156582512	27.58292374363913
O	18.56484244747699	13.394846105178075	26.37670000886896
O	14.039875609048563	17.885987023124816	25.562545966939638
O	17.224958057620896	17.589822494411344	24.945167353134007
O	18.36703321254836	18.422646472582883	25.000664879966315
O	18.204330067664927	19.512471837747327	25.97704463526849
O	19.545849603432647	18.246978088208465	24.163198581659167
O	17.895183690131685	15.372375057291613	24.562919262224984
O	19.90043571799774	13.351529807821946	24.171209401817283
O	19.527846843537922	14.396551475930842	23.11388719030642
O	21.032069952857384	14.033103377228663	24.889097187298745
O	20.336817044125798	15.085467300200218	27.068862427815514
O	20.273790872431334	15.119925160444094	28.435914296877083
O	19.485989166651436	16.175697599078614	28.926320202316152
O	19.471164102494583	17.352231664909553	28.226851613575814
O	20.449311746963982	17.401431866562497	27.27124648853412
O	20.76041604896842	16.265642214929986	26.58677851153755
O	18.680881090140733	13.26237063770747	25.03681592756212
O	17.52932232955898	13.273958847442884	27.30650120465357
O	17.937099947988372	13.38570750347324	28.60650012420346
O	17.446327980793708	12.852321762295713	29.735662475691374
O	16.835752256767204	12.09949229669537	27.117111003164304
O	16.145793066533468	11.586072084884805	28.17975282951487
O	16.445479162666317	11.9272647221398	29.4535069057612
O	15.449403037713779	10.34705291917307	27.961129690748628
O	20.717044781685647	13.90430839330395	26.3438497025472
