125

O	-2.6081724480292303	1.3224342225999997	0.028960727523077434
O	-0.8601662878292304	2.8365093185999997	-0.3017029824769226
O	-3.10862690802923	0.1726118825999996	0.1224397675230775
O	-3.9943966480292303	1.4271242425999997	-1.5289361985769225
O	-5.23767325802923	2.5667728484	-0.06750077247692254
O	-1.9682803080292306	3.3215907056	2.3248441775230773
O	-2.6260513780292305	1.6501703515999997	-1.5082784729769225
O	-4.835925528029231	3.9017814125999997	-2.4618992074769226
O	-3.5359685680292303	3.6078586965999997	-0.1653165624769226
O	-4.0335522180292305	2.6249680334999996	-0.7318929634769226
O	3.8814428519707693	3.3859637256	-1.2346824584769225
O	-3.67264138802923	5.162167052599999	-1.0676068864769226
O	-1.8628727920292305	2.3747111546	0.5288253975230774
O	1.4161392219707696	4.3585339026	-5.753729492476922
O	-1.3599599720292304	4.6170486325999995	-1.2200274314769226
O	-1.6163004570292303	2.0539919226	1.9104848475230773
O	2.2898820719707698	3.9943225025999998	-0.00816845247692255
O	3.9042089519707694	3.5035463966	-5.209604532476923
O	-5.63195284802923	4.0332468126	-0.19624716247692264
O	2.81627777197077	2.5869580041999996	-6.9458040124769225
O	-4.82774057802923	4.7192343426	-1.3538188554769226
O	-4.928756148029231	1.1148690125999998	-2.3721723244769226
O	-5.01856390802923	4.487247722599999	1.0951246575230775
O	-5.70687290802923	4.0605267426	2.3229173875230775
O	-4.61673785802923	5.8753893726	0.9017777675230776
O	-3.91523719802923	3.7497702926	-3.5827219524769225
O	-3.0047751080292304	4.8072823426	-3.7966841424769227
O	-1.9369341280292303	5.3101729526	-4.3879810224769225
O	-1.0760155800292304	6.3613731726	-3.8542562024769227
O	-1.3647721230292305	6.9439638625999995	-2.6335344524769226
O	-2.7241966180292305	7.0129142926	-2.7262190824769226
O	-3.4892825280292303	5.9598892826	-3.386490302476923
O	-0.7674723130292304	4.0068809226	2.0439336375230774
O	0.4280634419707695	3.9399344625999997	2.650089547523077
O	1.1832837219707697	5.0758747226	2.6042218175230776
O	0.8925914019707696	6.0015437326	1.6442865175230774
O	-0.34996014902923034	6.070119742599999	1.1418295775230773
O	-1.2381182440292304	5.2041034025999995	1.6851519375230772
O	-0.2266709630292304	3.4142156576	-2.6448205124769224
O	-1.1221909080292303	3.4203237526	-1.6037515184769227
O	0.6623453419707696	4.3025954726	-1.9923122634769226
O	1.8707407419707698	3.9217394526	-2.314477894476923
O	1.9067412219707696	3.9850909225999995	-3.6369728824769227
O	0.9438567419707696	3.8858182626	-4.564613912476922
O	-0.09475310602923037	3.2651352395999997	-3.9812295924769225
O	2.6622139019707696	3.7661983526	-1.1478553234769227
O	4.9557596319707695	4.4045777126	-1.1571970194769226
O	4.22155815197077	5.4003924926	-2.0066459224769226
O	4.83761292197077	4.612519862599999	0.3686779975230774
O	3.41992740197077	6.0144328626	-1.1225160104769225
O	2.4479728219707697	6.962773932599999	-0.9659833594769226
O	1.8943563919707698	7.2739994326	-2.1179043914769227
O	2.6043357119707697	6.8241936726	-3.1721149924769225
O	3.7443869419707694	5.920394592599999	-3.151880302476923
O	0.7774052019707697	5.5195060626	-6.291655652476923
O	3.80496635197077	5.1843080426	-7.023883252476923
O	-6.099133018029231	1.0377512925999997	-1.5594273694769225
O	-0.6062992900292303	7.1170160525999995	0.3476664175230775
O	2.56130489197077	5.1746492326	2.7289020675230775
O	2.9645918019707698	3.8793451626	-6.302334072476922
O	10.94559457197077	-0.9729260874000003	6.432308157523077
O	11.48822517197077	-0.47352217740000047	2.7174159775230775
O	9.47047597197077	-0.07590236740000034	-0.47649049547692257
O	9.363340771970769	3.7203620525999996	-0.4740062854769226
O	7.950234911970769	4.1175349226	2.9481415175230774
O	6.2947633519707695	0.8413957525999998	3.605618467523078
O	6.923583851970769	-2.3915795974	5.5616346675230774
O	5.67061003197077	-2.8982347574	9.130644167523077
O	1.9409500519707699	-1.3510666674	12.031915767523078
O	2.1100460919707698	-0.9476061274000003	8.219179347523077
O	1.3152497919707695	-4.186791807400001	6.4253053775230775
O	-1.1136787340292305	-3.0201166974000007	3.6784892875230772
O	-2.7490154980292303	-5.6656626174	1.4282671475230773
O	-4.44578531802923	-2.8711118674000007	-0.5099639364769226
O	-6.84207075802923	-1.7598707174000001	2.2291725275230774
O	-9.13146857802923	-3.3729304274	4.844432427523078
O	-9.02717600802923	-1.2236201674000005	7.981068427523078
O	-6.958372558029231	-1.7035751374000005	11.122360667523079
O	-6.298778358029231	1.9478721645999997	12.033587767523077
O	-13.63927212802923	9.0007677726	7.048411327523078
O	-11.00251172802923	7.7403772125999994	4.659825827523077
O	-9.89039670802923	10.2312048426	2.0021745675230775
O	-6.71492797802923	11.313225672599998	4.487198417523078
O	-7.36007890802923	10.011144612599999	7.921383277523078
O	-0.4764768880292304	13.3965891526	4.780971457523077
O	-1.1922734340292305	9.919181002599998	6.370169777523078
O	5.1995482719707695	9.3581959226	7.059912107523078
O	8.68692424197077	5.4604432926	8.450466177523076
O	5.16600946197077	2.8665052016	11.998377067523077
O	-0.8005992346292304	2.4552783295999996	12.282325667523079
O	-1.9186189380292302	0.4027925825999996	9.332683067523078
O	-3.10407712802923	-3.2198456474000006	9.065615867523078
O	-5.47885523802923	-3.4515408174000006	6.102369007523078
O	-7.798427028029231	-7.1030375674	2.2322869275230772
O	-13.60885772802923	-2.4461224274000006	0.6991762975230773
O	-13.57235182802923	-1.6503816574000005	4.411869857523078
O	-12.37197342802923	-7.2624917074	-2.2410258314769225
O	-8.831580568029231	-6.225267917400001	-3.1243630324769227
O	-6.49928892802923	-9.167770747399999	-3.716440852476923
O	-4.21625922802923	-6.235159497400001	-7.556066172476923
O	-1.3846884320292303	-7.0507696674	-5.181535922476923
O	-0.7168921340292304	-4.0501824174	-2.9315760224769223
O	1.9770873219707696	-3.8729633374	-0.2983697624769226
O	0.9523234019707697	-0.34434046740000035	0.4946331875230774
O	1.78167693197077	0.6456124325999997	-2.8237298124769223
O	5.55748650197077	1.2280293025999998	-3.6841656124769226
O	5.53670750197077	0.9506248125999996	-7.423850462476922
O	4.68343368197077	-1.6626131674	-10.079246562476921
O	1.8585346219707697	0.26335555259999976	-11.642958532476921
O	9.861651671970769	7.9041533226	-12.048392732476923
O	9.84821347197077	2.1006209306	-9.868742662476922
O	7.303904381970769	1.4733287025999997	-12.570482732476922
O	4.641875091970769	3.9708399525999996	-13.256921232476923
O	1.3534574919707696	4.5415483426	-14.973750332476921
O	-2.0124649280292304	3.5509716655999997	-13.677537032476923
O	-5.58211665802923	4.5556061225999995	-14.535403132476922
O	-6.83218914802923	2.1888584146	-11.834349732476923
O	-0.8695875875292304	-2.5515918174000003	-8.962946552476922
O	1.7882975419707696	-5.0458513974	-7.955920372476923
O	3.33537589197077	-2.8258812574	-5.306868362476923
O	6.16463394197077	-3.4358361674000006	-2.922541092476923
O	8.997955831970769	-3.4014912274	-5.4676904924769225
O	7.405230961970769	-6.3343905174	-7.227306382476923
O	6.58664608197077	-8.053447947399999	-3.9897291024769226
O	10.28106287197077	-7.850925447400001	-3.0270203424769226
