93

O	3.9685457923859655	-4.526074169561404	0.08918032164912204
O	4.181277252385965	-4.787826969561404	-1.240991771650878
O	4.107355492385965	-6.289471149561404	-0.881169466350878
O	3.9368398423859654	-5.911349829561404	0.607218701649122
O	2.875777392385965	0.763879636438596	-1.189270027150878
O	1.7828051143859653	-0.06965226956140391	-0.7294679153508781
O	3.6973324123859657	1.201980958438596	-0.20427169135087808
O	0.9194972060859653	-0.5569503895614041	-1.633104489350878
O	2.524101212385965	-0.909216109561404	0.23174396164912192
O	1.6182158433859652	-2.016975679561404	0.21812336164912205
O	2.3886115623859654	-3.0180552795614037	-0.45607549335087805
O	2.679222952385965	-4.002806979561404	0.6145478016491219
O	4.936609492385965	-3.8058516295614035	0.9326415616491219
O	3.804092312385965	-2.438794019561404	-0.547279627350878
O	4.807616522385965	-2.476486239561404	0.41382546164912193
O	5.9331454923859654	-1.6764401095614039	0.14044298164912195
O	5.919585332385965	-0.8862186995614039	-1.017164705350878
O	5.244981112385965	-1.4934823795614038	-2.079298043350878
O	3.9141126223859652	-1.6894707195614038	-1.615843082350878
O	5.643838702385965	-1.552290699561404	-3.5056937083508783
O	4.290960922385965	-1.455137329561404	-4.227475348350878
O	2.5747629823859652	1.073002098128596	-2.558055868350878
O	3.5915636323859657	2.066596350438596	-2.911102418350878
O	3.2658697523859654	3.057663970438596	-2.075094574350878
O	4.4018094123859655	3.488228090438596	-1.524520737350878
O	5.693535572385965	3.384982790438596	-1.9298478973508781
O	6.001883092385965	2.0749692704385962	-2.338178418350878
O	4.861090182385965	1.593388411438596	-2.9689208283508783
O	3.8397782523859654	4.806327680438596	-1.235478976250878
O	3.9985334423859653	4.347274100438597	0.16649917164912198
O	4.481334252385965	1.286432646438596	0.9218163416491219
O	4.635970872385966	0.368915460438596	1.8117568316491222
O	4.987004092385965	5.168462850438596	0.8418316716491219
O	5.408849322385965	4.116910960438596	1.8812446416491218
O	6.186642002385965	3.180209360438596	1.1022815416491218
O	5.913511362385965	1.7977902464385962	0.9329956416491221
O	2.1898074023859655	11.007851270438596	1.7197219416491218
O	-0.7888038476140347	8.834482710438596	0.916659891649122
O	-4.519579367614035	9.536631720438596	0.127957521649122
O	-5.474799637614035	9.996589730438597	-3.512353068350878
O	-4.162795257614035	8.573318020438595	-8.035902788350878
O	-2.8438249776140347	6.9626513604385964	-4.788032988350878
O	-5.548427567614035	4.740771370438596	-3.218186358350878
O	-3.5467574276140352	1.583453899438596	-2.3633716983508783
O	-5.225465797614035	-1.4668758495614038	-0.806946386350878
O	-1.7879807076140348	-3.100867599561404	-0.543127407350878
O	-1.2527238076140346	-3.600853609561404	-4.269734588350878
O	-3.110903297614035	-4.7248733395614035	-7.3667573783508775
O	-1.9385685076140347	-2.666918399561404	-10.332669098350879
O	-3.389106257614035	0.491747933438596	-11.820255148350878
O	-0.17248774761403474	2.313910170438596	-12.815892948350879
O	7.768745282385965	-3.8809629895614037	-10.128585718350879
O	10.719350362385965	-3.723341659561404	-7.706923448350878
O	10.803501002385966	0.3789002784385961	-8.141596538350878
O	8.837266892385966	1.2503903544385961	-11.265317548350877
O	12.126288742385967	6.417851300438596	-5.426827088350878
O	8.523555672385966	5.856547020438596	-6.636920288350878
O	6.953414382385965	11.564349550438596	-3.7360762183508784
O	2.2692757423859655	14.299804450438597	-2.717554388350878
O	-0.27513781761403466	7.188563420438596	-10.240855768350878
O	-1.5089781976140346	4.369469520438596	-8.066207508350878
O	-4.772995077614035	2.448999140438596	-7.848354148350878
O	-4.131795877614035	-1.0830818695614042	-6.576974998350877
O	-6.155238577614035	-5.684404299561404	-3.846396128350878
O	-6.638898077614035	-8.980966249561403	-5.713692388350878
O	-0.5819288976140347	-10.207264249561405	-6.312826868350878
O	-0.8228419576140347	-8.277449239561404	-9.562301838350878
O	-8.082824427614034	-13.060716749561404	-1.477881255350878
O	-4.632885057614035	-11.714643349561404	-2.420572338350878
O	-3.814972547614035	-8.878533399561404	-0.03098351835087798
O	-6.7386519076140345	-7.870715509561403	2.176672251649122
O	-3.1131097576140343	-7.0491452895614035	6.045864901649122
O	-4.985969667614035	-3.742882459561404	5.702274721649122
O	-2.850068437614035	-1.4327663695614041	3.593833981649122
O	-3.646479157614035	2.182742260438596	2.7932464216491217
O	-0.43955948761403474	2.3905976804385958	0.9535380216491218
O	1.7492881123859654	1.900489421438596	4.047023891649122
O	1.8249957103859653	4.8534632904385955	6.657526811649122
O	2.524124532385965	2.9995348904385963	9.876512851649123
O	0.9746962243859653	0.286115014438596	11.946372951649122
O	3.6698424123859654	-2.323173129561404	11.292244051649122
O	4.3373385223859655	2.006022729438596	14.895094251649121
O	7.275478822385965	0.08861904443859603	13.489001651649122
O	8.707720822385966	-3.353788899561404	12.967745651649123
O	7.9133190323859655	-5.697508099561404	10.155027451649122
O	9.564177392385966	-8.825739169561404	8.758811051649122
O	6.513412722385965	-9.379996949561404	6.517292041649122
O	0.35235711638596523	-4.064003709561404	8.340460651649122
O	-2.605206507614035	-1.8981325595614038	9.339585051649122
O	-1.408243547614035	1.184637553438596	7.501754121649123
O	-2.889280297614035	4.597020500438596	7.039558911649122
O	-4.624821897614035	2.963719350438596	11.838754151649121
O	-7.115845517614035	3.420360040438596	9.037542651649122
