88

O	1.7414853182698413	-0.28641453961904845	2.0280046906349205
O	0.33204734826984117	-0.6032705606190485	1.8017278706349202
O	0.1465771382698413	-1.9493898846190485	1.6000222706349203
O	1.4971372682698412	-2.3249318246190485	1.9277242006349202
O	2.316332428269841	-1.6362850946190486	2.92805157063492
O	1.3112470582698414	-0.7977405986190484	3.32936035063492
O	0.3169415182698412	-0.24003605261904848	3.9583400806349203
O	-1.0327408453301588	-0.035337253569048474	4.20035112063492
O	-1.7747215417301587	-0.9991958076190485	4.29864147063492
O	-1.3156617047301589	0.9545305833809515	5.34478591063492
O	-0.33780145173015874	0.29283563538095153	6.37771331063492
O	-1.2710110317301588	-0.9553312476190485	6.48334625063492
O	-1.0590551680201588	-1.9289244246190484	7.96245588063492
O	-0.9688588640301588	-2.6826795446190483	1.8617853006349203
O	-0.3405169447301588	-3.5688829046190484	2.81249081063492
O	-0.22362143073015872	-3.1398067846190485	4.11856936063492
O	0.6618661482698411	-3.3267728846190483	5.10704867063492
O	1.0858923582698414	-4.377840114619048	4.38329077063492
O	1.6296053182698411	-4.7889967046190485	3.26021116063492
O	0.6000733982698412	-4.432423544619048	2.3419869706349203
O	0.9883918382698413	-4.715156564619048	1.0165199836349204
O	2.4311229482698415	-5.021208524619048	0.9961047596349203
O	2.999354868269841	-4.630247024619048	2.99766290063492
O	4.036710828269841	-3.8992937346190484	3.55434546063492
O	1.9296285982698411	-2.1171289546190484	6.20075030063492
O	-6.099459391730159	6.836619795380952	5.82110820063492
O	-7.948525151730158	3.9944552653809517	4.15294274063492
O	-6.2668880617301586	3.7926442453809517	0.7865894456349203
O	-7.180944631730158	4.882337575380952	-2.80819410936508
O	-8.89453430173016	2.3716964753809515	-5.06670528936508
O	-13.023576891730158	-1.9513370946190485	-5.981032429365079
O	-9.313861791730158	-2.5074272846190486	-5.71889693936508
O	-6.724882561730158	-0.7420374226190485	-3.59260092936508
O	-3.924098131730159	0.7968512173809515	-5.65339551936508
O	-0.7463950907301588	-0.20469734461904848	-3.9241644393650796
O	2.742738118269841	0.6644670923809515	-5.20979630936508
O	4.114558608269841	-0.8617932186190485	-1.99068052936508
O	3.3084568682698414	-4.545459034619048	-2.95127519936508
O	3.2279041682698413	-6.991369424619048	-5.73146933936508
O	0.17191702826984123	-9.24243649461905	-5.4325976293650795
O	-3.2178938517301585	-8.87715596461905	-7.05206863936508
O	-5.481562431730159	-10.254136154619049	-4.31654802936508
O	0.6345826982698413	-13.049444354619048	3.5442848806349203
O	1.1465326282698414	-12.078815154619049	7.21534436063492
O	-2.893482851730159	-11.059387754619049	7.45460087063492
O	-4.666523481730159	-12.56859025461905	4.49402560063492
O	-5.289020161730159	-13.64675505461905	-8.714328799365079
O	-4.959153721730159	-14.58855715461905	-5.0777514393650796
O	-7.494521391730158	-6.8887945346190484	10.16334037063492
O	-7.021420411730158	-6.706656904619048	6.33455289063492
O	-10.271900971730158	-5.256855514619048	5.09630289063492
O	-10.824682921730158	-1.7394272746190484	6.412109150634921
O	-12.87743839173016	1.8066909953809516	2.7628385306349204
O	-12.38150989173016	-1.6762786146190485	-1.4345840193650798
O	-9.003191221730159	-6.269085094619048	-2.9634667593650796
O	-5.515564001730159	-4.967079154619048	-3.54264491936508
O	-3.5243022117301583	-4.294389504619048	-6.7200828193650795
O	0.1740386982698412	-4.647624304619048	-6.03100599936508
O	2.019761668269841	-2.5662954946190486	-8.56145618936508
O	5.598032788269841	-3.1837937346190484	-7.46856544936508
O	8.012887008269841	-5.842702594619048	-8.75217479936508
O	-3.8141905117301587	10.83456904538095	-5.40978072936508
O	13.439091208269842	-3.1485027846190485	-8.962049859365079
O	11.609287708269841	-4.676078394619048	-5.93386928936508
O	9.789887608269842	-1.8955553046190485	-4.11007935936508
O	9.883049308269841	1.4198317553809516	-6.02896340936508
O	7.289953708269842	5.317193475380952	-2.76419945936508
O	4.228906658269842	3.5833672353809516	-1.3495049493650795
O	0.6203146782698412	4.585993315380952	-2.21344625936508
O	-0.5691297637301588	1.9833973953809516	0.17575927963492033
O	1.0196077782698414	3.6765485653809513	3.2713662706349202
O	-0.7911079557301588	6.630812715380952	4.70884944063492
O	2.089161938269841	8.47174562538095	6.32585179063492
O	5.455849158269841	9.963702345380952	5.40234043063492
O	7.532347538269841	7.487497425380952	7.42618847063492
O	4.680402578269842	11.78994614538095	9.78086010063492
O	5.799820238269842	8.79723147538095	11.808887270634921
O	8.796758108269842	6.660493375380952	12.63518017063492
O	9.956275308269841	3.6850030353809515	10.67378827063492
O	12.300367808269842	0.7898191293809516	11.42798027063492
O	12.012685008269841	-0.28167853461904846	7.756736300634921
O	8.228217488269841	5.509755915380952	3.12510214063492
O	6.754989328269842	8.248505855380952	0.9243243306349203
O	3.138853428269841	7.383388895380952	1.6120188606349202
O	-0.1729911077301588	8.787909685380951	0.3933033026349203
O	0.0017898482698412987	12.03568604538095	2.26745361063492
O	3.202162758269841	12.896498145380951	0.4013232446349203
O	1.9115637882698413	11.52553764538095	-2.8879736493650796
