60

O	22.364217268201624	10.020510893849332	23.368430217184205
O	23.831975513201012	11.8617429400295	23.465497102164942
O	22.191780227214437	8.77614932717384	23.81515236264202
O	20.550927114354565	10.235816785977837	24.759745412495334
O	20.736412699345166	11.112569088902971	22.397748442288087
O	23.316197224700343	12.36572318904557	21.12044917478784
O	21.8775396566191	10.788876991003438	24.56282942075194
O	20.433373387930942	13.70025931278882	24.181950571758993
O	19.22478061619423	11.657038152023443	23.792053519345373
O	20.003795598736772	10.666564624572633	23.489377153994514
O	28.886137594888524	13.653771278983807	24.141332702744187
O	21.433908642372806	14.321400513967172	22.382169441726386
O	23.301390071309743	10.875311386481954	22.7790695721694
O	26.02933770477209	16.27646194021719	27.129995847900332
O	22.981154579328173	12.827723744903075	25.17208331749263
O	23.458996606729077	10.970355785236608	21.318792317016225
O	27.78820873368178	12.721973628547865	22.861457911941866
O	19.730227586024697	10.440408671037158	25.96515939112044
O	28.481626452610552	15.158556856038036	27.193751713214454
O	20.51996121763128	12.4777479082544	21.86416435339472
O	27.267858722837243	15.257545624976402	29.048429647006103
O	20.881975894444697	13.346669631990089	22.93723492502803
O	19.53697492111574	12.126448862083963	20.940992950095787
O	20.083808831367904	11.058709220948026	19.984492103716043
O	18.20718938058189	11.580071551168844	21.34880444755662
O	20.879148785570756	14.602492835356063	25.193290141139325
O	22.019245208233574	15.473897760518987	24.917802068269783
O	22.827348996136003	15.456845959731858	23.87880744498712
O	23.62610474247151	16.281095844164582	23.14264432353145
O	24.11475421713605	17.239149982428636	23.934240538160243
O	23.19710660107206	17.443711868201092	24.98817370386994
O	22.625612106774238	16.359135568284838	25.73088013661223
O	24.038349542151426	13.302325047973877	21.8863617008025
O	25.547095102608974	13.044419949863318	21.612685486682373
O	25.85407268200076	14.213842413669024	20.829010955273958
O	27.020302294648495	14.04859022320145	20.119949890489387
O	27.599366641484202	12.87600681020266	19.732519651014883
O	26.903463927956274	11.73309090427166	20.009121003373522
O	25.708185711601182	11.995496552048452	20.681386039167563
O	24.777469284219546	13.581059631598531	25.150564178222115
O	23.959228066573374	12.627780011991444	24.577341804001883
O	25.57426149467827	13.818064613320779	24.1212044389334
O	26.66478142520533	14.416740788326619	24.190517332089467
O	26.647167029892287	15.117455473739092	25.313871849554587
O	25.681770162003932	15.338544608798038	26.19437560711278
O	24.84447410675256	14.28198855876491	26.288717463364954
O	27.755525954494356	13.778649992260572	23.493114986564546
O	30.070302817298018	14.079122813758342	23.341813957320852
O	29.54972798600236	15.448998473006553	23.5044663470363
O	29.87196723944355	13.427343271312292	22.005018050791783
O	28.618722867798564	15.637745643714236	22.5300598071984
O	27.757014686320684	16.609762827777175	22.115811308137193
O	27.36661985980066	17.38303287735164	23.138408864677736
O	28.229797330664265	17.376927294625936	24.19370639749347
O	29.202310899188355	16.34577324684757	24.451970726329826
O	25.51656462696502	17.57228967433172	26.90841218918134
O	28.417810304755147	17.555888327705297	27.859648565292673
O	26.7957474278207	10.888824907093081	18.95904456839051
O	27.418230646802247	15.134440497266553	19.437381485957253
O	27.54729814856374	16.082419072434647	27.89398858436831
