26

O	22.56343263064899	10.500784524378389	21.364700399127717
O	22.888623295159995	9.554031653049798	22.369408632886422
O	22.778203001489896	12.914970266531038	21.227947608207717
O	22.45912366337886	10.11895885792661	23.476740967636776
O	22.47328916549952	11.542640031414692	23.281720546452394
O	22.90694725323999	11.858254042746047	21.944109227016583
O	22.236459979693528	9.467828047948965	24.741026108139096
O	21.108292846236353	10.360987815457092	21.06285846229109
O	23.368072710009308	10.548861543125584	20.13251109950356
O	27.16869153072155	13.085027543354911	21.25863026414558
O	24.63485013543432	10.221832252644917	20.415104211339028
O	25.541869838798537	10.508456245884876	19.36654316326747
O	25.27562423084436	11.368709361881296	18.369313459399805
O	23.921012122683702	11.608202085592325	18.048632889948255
O	23.049123282295756	11.416935363461246	19.136992940649925
O	22.784154485685086	12.427434391980732	24.357021441200196
O	20.660272169258725	11.65081572596682	20.522567663718554
O	20.763583861456425	10.490334843681264	19.654091825662423
O	26.765709666405286	11.065070368565944	20.02543311332355
O	27.173832086983985	10.282112184786932	20.998333289289693
O	27.53168929662414	10.855389191966925	22.161279760625927
O	27.6967023648483	12.197116709569215	22.07977555810416
O	27.052973426632295	12.400209935071821	20.07876385606151
O	28.964821361876687	10.261975084900055	22.184818145524076
O	29.620838648451176	9.396369052227396	22.661864164125323
O	30.539535649257488	8.73992281099975	23.633339091130576
