75

O	0.2984458229867928	-3.8561579442452834	-0.34275555903773625
O	1.649690257986793	-3.317036144245283	-0.3834145970377363
O	2.398933687986793	-4.647767434245283	-0.45327663603773627
O	3.6750068979867927	-3.9932462842452834	-0.7680282360377363
O	4.164335057986793	-4.404848424245283	0.8354402349622637
O	3.251876217986793	-2.903213774245283	1.5537726049622638
O	2.2432459179867927	-2.664374244245283	0.7365529649622636
O	4.260073587986793	-2.142042174245283	2.116215714962264
O	3.688524207986793	-2.493546144245283	-0.9511103870377362
O	3.994947167986793	-1.695653694245283	-2.1007988550377363
O	4.3467782379867925	-0.565880437245283	-2.6775948350377363
O	5.6641345579867926	-0.450674011245283	-2.3063838850377363
O	6.045559657986793	-1.648932244245283	-2.0644964850377363
O	5.199879937986793	-2.492859054245283	-1.3821871740377363
O	1.660342707986793	-2.9114189842452833	-1.807936545037736
O	0.5505291299867927	-2.197581554245283	-2.365519555037736
O	0.49034392498679275	-1.9450340942452828	-3.7552314350377363
O	1.800934397986793	-1.990777824245283	-4.292969135037737
O	2.296402457986793	-3.2861204142452833	-4.169182185037736
O	2.0785971679867927	-3.8053414042452833	-2.8777980050377363
O	2.289988907986793	-5.1117899742452835	-2.681953635037736
O	2.149837417986793	-1.177941024245283	-5.339392235037737
O	5.637977617986793	6.355192045754717	-6.215658075037736
O	3.830748517986793	6.742031535754717	-2.9530960950377363
O	1.728345277986793	9.508831155754718	-1.1979453610377364
O	-2.029225822013207	9.722264385754718	-1.8263291450377364
O	-5.863898892013207	6.791062835754717	-3.012033305037736
O	-2.451624822013207	5.619913265754717	-1.8291767750377361
O	-2.037874982013207	6.028672315754717	1.949103284962264
O	-0.6014655610132071	2.687161075754717	3.1151855449622636
O	0.12163073898679277	1.8589798757547171	6.753489084962263
O	1.6589101579867929	-1.458640924245283	5.636462524962264
O	-1.4497097220132071	-3.2161926542452832	4.324054104962263
O	-5.049875552013207	-3.595989584245283	5.400757594962263
O	-7.201563232013207	-3.548534904245283	2.273164794962264
O	-9.132346932013208	-0.642739532245283	0.7856161049622638
O	-8.852102302013208	-1.510125634245283	-2.9172136550377363
O	-9.721809432013208	0.660308171754717	-5.919120115037736
O	-3.660909732013207	-10.473283354245282	-3.408348675037736
O	-0.28549299501320724	-11.629985254245282	-4.773250115037737
O	-0.6875698100132073	-8.800221414245282	-7.8100125050377365
O	-4.268761272013207	-7.572531244245283	-7.963207585037736
O	-7.525374792013207	-9.461113074245283	-8.107470785037735
O	-12.172502012013208	-4.457543174245283	-3.1241655550377363
O	-0.10540197831320722	-7.0934993242452835	-12.691514475037737
O	2.601430177986793	-4.5201995142452835	-11.817367675037737
O	0.0665250829867928	-2.9014568842452833	-9.455422475037736
O	-0.6399768600132072	0.531724050754717	-10.818016975037736
O	2.3744671379867928	2.802226925754717	-11.277050175037736
O	1.7146940779867927	7.964983045754717	-9.688050505037737
O	-1.6592210520132071	9.726136025754718	-10.184397455037736
O	-3.336702462013207	7.281042795754717	-7.710382605037736
O	-6.5429731220132075	2.8457605557547168	-5.369811255037736
O	-4.886645452013207	1.944021835754717	-2.0567785150377365
O	-5.945055912013207	2.5851938657547167	1.5184310549622637
O	-4.599272372013207	-0.100007712245283	3.8343589449622635
O	-3.043526062013207	-1.5820452742452829	9.207127044962263
O	-4.909080132013207	-4.269692824245283	11.130757124962264
O	-3.089068662013207	-9.024741724245283	7.565780124962263
O	-6.232488142013207	-8.209829024245282	5.585043794962264
O	-1.0870362470132071	-6.757010684245283	12.439867824962263
O	1.4061140579867928	-4.484322834245283	10.778826924962264
O	2.269038677986793	-1.391541834245283	12.843940224962264
O	6.234860537986793	1.612635695754717	10.040986224962264
O	5.128798367986793	1.4767074057547172	6.408876794962263
O	4.202324977986793	4.382513055754717	4.188088134962263
O	3.6757044279867928	2.1428911657547167	1.303936554962264
O	7.409948787986793	1.1682057657547171	1.110164394962264
O	9.846240487986792	3.661946595754717	-0.32904683203773627
O	13.091649187986793	2.783297725754717	1.4472134649622639
O	18.188520887986794	-1.4720616642452828	1.2385397949622639
O	11.225037787986793	-9.799173984245282	6.119399844962263
O	9.405481367986793	3.398061225754717	4.739088414962263
O	8.505024167986793	6.706168155754717	3.226712064962264
O	8.745083807986793	8.984551475754717	7.489894894962264
