47

O	26.806456274683683	17.186788830382802	25.48484563616115
O	26.148793421619967	17.63854134031792	24.395747066678446
O	27.06154209211814	15.855675478661219	25.593779183021265
O	25.80756311711841	16.725789763933353	23.43818507517882
O	27.26380543449031	15.189116696188801	24.42368205084712
O	26.71264843410361	11.740826434654167	20.184523321127415
O	27.301904304398136	11.99684950360292	22.27256801800582
O	28.760998135666416	12.831609833646581	20.686167310950903
O	26.7210923640241	15.682374480780881	23.277395131271145
O	26.26140482181646	11.591833306953884	21.50962717963415
O	27.89994535760719	12.354281001099835	19.78092371492181
O	28.57858336827977	12.386144965682039	21.998984423017177
O	23.312175549793572	13.165335239638587	21.50953942851878
O	19.97530895038537	13.25659223178141	23.106143004361392
O	24.93010551572463	13.236172727908599	22.99409076047618
O	21.558669183206415	13.70320734138676	21.16895433292018
O	22.44315877628922	11.537116937820237	24.186270524419825
O	21.982276491721155	14.947768233520629	21.995222806958907
O	20.986272183234092	11.182205567954274	25.835687478460294
O	21.632878809327337	12.310425379397987	25.161026809330345
O	22.07513181752134	10.230078643809017	23.987716166808415
O	21.928294096941503	12.458744079726472	21.69438844137102
O	18.829435992362097	12.587948080786358	23.742492092726124
O	23.686234512808255	16.010898333618545	25.8890355979238
O	22.858326634282434	9.054691647752168	20.249476405927833
O	23.741767277085557	10.898083455041	19.224290601130257
O	26.643947134068355	15.080415905008499	21.9337058464545
O	25.34947771441862	10.410061655655795	21.88011280119583
O	21.746435476248813	11.314168215432078	20.895022758767148
O	22.428419195380464	15.659199900084442	25.168118587717935
O	25.248063055404675	15.14151136281044	21.377599120597502
O	21.770331958484547	14.613123350369218	26.11855142995375
O	24.52773644770707	14.66347362849745	22.59568707267756
O	23.336686055902415	9.83821854281389	23.366182421586018
O	22.709426272657005	10.545833358058639	20.205059059000327
O	24.30939256778782	10.7520554896692	22.84550432971234
O	21.66692018461999	10.01095648350399	25.303677531325683
O	23.211264953950607	14.418451717063688	22.237100213466412
O	21.278274827553293	12.984283698693158	22.817851597377807
O	24.267284521079777	12.040386902064471	22.907460127986617
O	23.90443155664998	13.210802590279647	20.357338961765432
O	20.14784913776157	14.410281741721455	23.504689439487414
O	24.56363617929093	13.531124685663007	24.158739188266566
O	23.244751332175728	8.510349083060477	23.163573697518935
O	22.24318589165726	13.439618981558173	25.770554115736434
O	27.800106344895177	13.036598247031007	18.580404072815345
O	29.063407478538835	13.409606345145598	22.76947471021266
