100

O	-3.457479438440678	4.8712553671932195	0.21875967010847583
O	-3.3883579084406783	3.6789508381932197	0.7641903735084759
O	-2.264776908440678	3.1272133251932197	1.1839209875084757
O	-1.1488814441406783	3.82007580719322	0.7157897955084758
O	-1.2412668008406782	5.17085996719322	0.7000586285084758
O	-2.254498648440678	5.472561417193219	-0.23957534149152415
O	-1.9650585504406783	2.6675004511932197	2.422023909508476
O	-0.8428520744406782	1.7497824371932198	2.471271539508476
O	-1.8046572744406784	3.5715804311932198	3.319378679508476
O	-0.3379179584406782	1.1818695171932196	3.7078582095084758
O	-1.494887994440678	0.3061403971932197	4.016373879508476
O	1.0340016815593218	0.8281956071932197	3.246867349508476
O	1.5036690415593217	-0.4388725528067803	3.278486189508476
O	-2.863097218440678	0.8792019371932198	3.6309114295084757
O	1.8545101815593217	1.9223092351932198	2.7464314295084757
O	3.224403541559322	2.01680137219322	2.6532051295084758
O	3.572563651559322	3.3658691331932196	3.175829219508476
O	-3.8209194384406784	0.4356917071932198	2.703604109508476
O	-4.890971588440678	1.2575822771932197	2.2324039195084757
O	-5.258202428440677	2.3705791061932198	2.906954039508476
O	-4.602091638440678	2.5327791761932197	4.080814349508476
O	-3.603456268440678	1.6429691271932196	4.533753859508476
O	-4.217788798440678	5.974824577193219	0.6628877375084758
O	0.1756308315593218	7.17749290719322	3.401674709508476
O	-0.09716622844067824	8.07944617719322	2.164902749508476
O	-0.7642556104406782	7.49386557719322	1.1186883965084757
O	-0.6712392324406782	6.13707001719322	1.5503975895084758
O	-0.40419186744067825	6.11632799719322	2.984354209508476
O	-0.41746260244067823	7.58889640719322	-0.1055706014915242
O	-3.993610698440678	6.97164849719322	-0.1833190074915242
O	-2.7605639184406785	6.61023571719322	-0.7766116964915242
O	-3.8362695584406783	5.49398545719322	3.152728309508476
O	-4.657053368440678	6.132822777193219	2.0847275995084757
O	1.7142413815593218	4.91188372719322	0.5139670025084758
O	2.2809602415593218	6.16490161719322	0.8402935155084759
O	2.795770721559322	6.59112154719322	2.033412619508476
O	2.6837120415593216	5.65847829719322	3.068973399508476
O	2.495861181559322	4.34286292719322	2.777311649508476
O	1.8521278215593218	4.043925127193219	1.6339169095084758
O	1.4008410315593216	4.77471555719322	-0.7702921994915242
O	0.5871562815593219	5.121062637193219	-1.757878210491524
O	-6.5474332584406785	-1.5242047728067805	-5.631003840491524
O	-9.104933508440679	0.1543577671932197	-3.610250490491524
O	-9.110910218440678	-2.48590345280678	-0.8261202604915241
O	-5.860492418440678	-4.307392442806781	-1.3932374104915242
O	-4.696920728440679	-7.75255741280678	-2.554393390491524
O	-4.232245898440678	-10.52230121280678	-0.010337091491524175
O	-3.082729848440678	-11.21424341280678	4.775740359508475
O	-2.6029424684406783	-7.9981038128067805	2.803330609508476
O	0.43747723155932183	-8.09138471280678	0.5258503295084758
O	2.1752820015593217	-4.71996128280678	1.2055258795084758
O	5.530373941559322	-3.9482505628067806	-0.5022940594915242
O	5.187545151559322	-0.42881885280678045	1.0795221825084758
O	5.838731051559321	-1.4719718428067798	4.7054041595084755
O	7.954494981559321	-3.8757378728067806	6.744291799508475
O	5.8648077215593215	-5.371344322806781	9.556887219508475
O	3.970914781559322	-8.65212221280678	9.692141709508476
O	0.9426683615593219	-7.618496112806779	11.791483189508476
O	2.3363206815593216	2.62231900219322	13.988134989508476
O	0.5813884315593218	5.925151387193219	13.089321489508475
O	-2.9567263784406785	3.9131246871932195	12.927222289508476
O	-2.5248183884406785	0.5407491271932199	14.658671889508476
O	-9.038337258440679	3.42858292119322	10.431599589508476
O	-6.843951908440678	0.24755937719321963	9.940022629508475
O	-11.252492268440678	-1.9585845828067798	5.818059369508475
O	-11.64419906844068	-6.236190322806781	2.355234709508476
O	-8.150862728440678	-9.58470101280678	5.056147759508476
O	-3.5154234884406783	-8.75408461280678	8.736865839508475
O	-0.7081864834406782	-7.200111612806781	6.695958179508476
O	2.527448261559322	-8.70390381280678	5.2977647795084755
O	5.115959881559322	-5.86716295280678	5.056112869508476
O	9.93372983155932	-4.08476402280678	2.406370409508476
O	14.261027731559322	0.6205421871932195	2.7632151295084757
O	11.147677731559321	0.9939722871932197	0.5834359175084758
O	11.54303143155932	-0.7756298828067805	-2.822856050491524
O	8.810904031559321	3.31459150619322	-4.871123600491525
O	6.729431981559323	0.3149648471932198	-5.781479800491525
O	3.9383450615593216	-0.12777589280678026	-3.311636620491524
O	1.2041080915593216	-2.7038738228067807	-3.4839147704915243
O	-0.2920990774406782	-1.07372977280678	-0.31917783249152415
O	-1.1058798604406783	2.0512834221932197	-2.187979680491524
O	-4.017269068440678	2.3091490681932196	-4.440782480491524
O	-3.026281078440678	5.07293266719322	-6.775216020491524
O	-0.21334457844067822	5.97779790719322	-9.116138680491524
O	1.0231413915593217	8.944062627193219	-7.162727310491524
O	-9.729896238440679	11.57496347719322	-8.240460740491525
O	-6.505243138440678	6.738688597193219	-9.927967110491524
O	-3.623352278440678	9.13948540719322	-10.306417410491525
O	-3.111210518440678	11.60350725719322	-7.507821890491525
O	-0.5936495034406782	14.01816358719322	-6.068274790491524
O	1.987656501559322	13.10663148719322	-3.517248170491524
O	4.085178501559321	15.148223187193219	-1.0928307904915242
O	6.286809491559321	12.05416459719322	-0.5766461104915241
O	4.492846141559323	5.70448184719322	-6.011380630491525
O	3.674209361559322	2.90696415879322	-8.284611840491525
O	0.5857408115593217	1.7294054671932197	-6.377967690491524
O	-1.6986663794406782	-1.1045895028067805	-7.148274080491524
O	-3.3531559784406784	0.44020812719321967	-10.144367810491525
O	-0.029026838440678215	0.49413106719321975	-11.941953810491524
O	1.0054302815593217	-2.93226295280678	-10.737423010491524
