39

O	83.21006996284888	6.454182664783183	-7.8840084213955
O	77.80639022783535	3.258389700374644	-5.5876553963833695
O	78.9421784366526	3.5401668537239113	-4.9165550717624305
O	76.8201823323285	4.133558671073844	-5.347473940301097
O	81.80110382213824	10.267862647942495	-7.513559553092829
O	81.22276860876661	9.039638371186564	-6.9811081266097155
O	78.58621686589902	6.232748488925105	-7.812754850161188
O	78.77667472618216	4.886485472995	-7.957120804774631
O	78.29056239327676	5.753557971696923	-4.587191882188781
O	80.55509589103299	6.2046571862297055	-6.596567375105147
O	82.70813766188627	7.76222335447441	-8.241262547429216
O	79.20738848660271	4.786117551638914	-4.44952455401438
O	77.12201603810894	5.408247360417131	-5.0906344802281485
O	83.02288081542503	10.201294989226458	-8.194985961047099
O	80.65069044727635	4.846379626740854	-6.601298401747464
O	79.69450098237195	6.837635977997459	-7.283084296301348
O	81.42734591671093	8.026175161728814	-7.829174593735675
O	79.93781606411025	4.279296718794674	-7.584039883044651
O	83.42282695034095	8.882676433676487	-8.464713755035497
O	85.07699250062316	10.493473761565525	-7.543570067277837
O	87.07314950364861	11.471330502287678	-7.831585398440582
O	81.68086677967217	5.4085625343077055	-4.593016993737876
O	89.37710217729955	10.614389135741607	-8.304472371224858
O	89.08490545798503	9.897707461433704	-7.114563540057361
O	88.53800959304634	11.365968860830879	-7.448246350132347
O	80.40744298148735	5.080323589858441	-3.7303527823869733
O	75.97394446396535	6.142380784705804	-4.539763903316423
O	83.77159309452789	5.924618561685051	-7.040539001342369
O	84.01913721956886	11.053087445358642	-8.079234534543339
O	81.42563897991921	4.422517385055702	-5.504721383414253
O	86.34249255064788	10.325933512000415	-7.060586467395569
O	86.89071330287061	11.377262123264998	-9.103370505030057
O	81.81309607011684	6.614663455202829	-4.707339256101321
O	80.45003684549239	7.357639327685297	-8.398770783948919
O	85.09962888696076	9.025302942690331	-8.566719974142115
O	80.1122170513886	2.977977387729589	-7.644143497280136
O	74.87598010192595	5.398826028998023	-4.760306016401585
O	76.35315675014436	7.2075194577104	-5.250026432286143
O	76.03957368698906	6.113971601981509	-3.240240588768355
