107

O	-0.19984149945588225	-1.7605249618073526	-1.2659408308558826
O	1.2981782445441175	-2.1097755018073525	-1.6194923208558825
O	1.8694386045441176	-0.8149628918073525	-1.5314453008558826
O	0.9740125145441177	-0.02834817380735255	-0.5563395798558824
O	0.06878506254411776	0.07000437819264749	-1.6284319208558824
O	-1.0449116574558823	-0.6680505518073526	-1.0897277058558825
O	-1.0124318574558822	-2.3980573118073525	-0.07145397125588247
O	1.9599125945441176	-2.2535519618073527	-0.45147199285588246
O	0.9645181145441178	-2.8838496418073527	0.5176772871441175
O	1.1445781345441177	-2.2503049718073527	1.8151234691441176
O	2.2832063445441175	-2.3140151318073525	1.2912229691441175
O	2.8986924545441175	-1.1576218218073526	0.9980387291441175
O	1.6313324745441178	-0.9227201018073524	0.40196045614411746
O	0.41261269454411764	-2.477850261807353	2.793443879144118
O	-0.18836014845588223	-1.3216778818073527	3.6217808791441177
O	-0.8019162291558822	-2.1747509718073528	4.732534519144118
O	-0.5437442384558823	-3.581120711807353	4.528732069144118
O	-1.3818217124558823	-3.680981641807352	3.4680730991441178
O	-1.0723146544558824	-2.374292691807353	2.732813469144118
O	3.292936894544118	-3.1022192218073528	1.2395607291441175
O	0.5892506745441178	0.7861361211926474	0.4176805091441175
O	-0.5910742484558822	0.4826528681926475	1.0297924891441175
O	-1.8231854204558822	1.1773194101926476	1.4111624991441174
O	-1.4953782674558822	1.9955633381926474	2.4510270091441178
O	-2.4285033254558823	2.9596768981926473	2.618246969144118
O	-3.4281557554558826	3.0566342681926475	1.7216916991441176
O	-3.186377745455882	2.7027709981926473	0.4273457181441175
O	-2.479876555455882	1.6055018781926473	0.24925272514411753
O	-1.2621822304558823	-0.4466431318073526	1.3142090991441175
O	-4.395593825455882	2.980210708192647	-0.2829131368558825
O	4.033567934544117	-3.879141311807353	0.28896214914411755
O	3.177384444544118	-5.019309821807353	-0.051440387455882475
O	2.1654610345441174	-5.147760251807353	1.0221142891441175
O	2.6050325045441176	-5.042054161807353	2.2614441191441177
O	3.8702633345441173	-5.434687001807353	2.119736769144118
O	4.785007154544117	-4.878291981807353	1.0957487291441175
O	-4.948830125455882	4.134175148192647	0.26480374814411756
O	-4.123628035455882	3.4035229281926473	-1.4613779708558825
O	-5.270365215455882	2.0473789581926476	-0.2544132258558825
O	13.002233254544118	-0.02041481980735249	2.6517034891441176
O	11.176470854544117	-3.0367237318073528	1.2312341491441174
O	9.281671454544117	-4.003886631807353	4.337463299144118
O	6.244128764544118	-3.5146713818073527	6.569147839144118
O	2.6806704345441177	-2.7557783718073527	6.291553049144118
O	-0.41652124145588226	-2.1397281818073526	8.505058119144117
O	0.5103281845441178	0.7055290711926475	10.652738699144116
O	3.9406967745441177	1.4667699271926475	9.052395079144118
O	7.034825344544117	0.9446241431926474	6.883889929144118
O	7.077727484544118	0.4785541041926475	3.1010513291441177
O	9.564345354544118	1.9330971681926474	0.7760834411441175
O	10.223336854544117	1.8303446281926474	-2.8735334908558823
O	8.718200384544117	4.693497468192647	-9.321491840855883
O	6.252186464544118	4.549606888192647	-6.405847250855882
O	5.566970384544118	2.3932581781926476	-3.2738123208558823
O	5.436357604544118	4.667610278192647	-0.19595965765588247
O	4.019907844544117	3.5793429981926472	3.196870169144118
O	4.985191864544118	5.711869378192647	6.096279129144118
O	2.8604862645441176	5.590152588192647	9.274302959144118
O	-3.8982087054558825	7.100213058192647	7.936767069144119
O	-9.137665095455882	6.030320178192647	7.058802919144117
O	-6.889724855455882	4.468393768192648	4.5254107191441175
O	-6.486233575455882	7.660623358192647	2.4308087391441178
O	-10.795264855455882	4.301916168192648	1.2655026791441175
O	-8.290830455455882	4.678253588192647	-1.4997932208558824
O	-9.745062945455881	0.14099342519264751	-11.207295300855883
O	-6.912129725455882	-1.9698836518073528	-12.797747400855883
O	-7.049598385455883	-4.561041871807353	-10.047494010855884
O	-6.830366665455882	-2.1258525618073527	-7.211725840855882
O	-3.2912190454558825	-0.8426509418073526	-6.664559190855882
O	-3.308056425455882	2.7636550781926474	-7.8676884708558825
O	-3.2621826354558823	5.593364448192648	-5.4145471008558825
O	-1.2566600384558821	8.528987858192648	-6.372486150855882
O	-1.1701064694558823	10.854161278192647	-3.3752423808558825
O	-0.45652168145588223	11.363082778192647	0.3189543401441175
O	2.011652134544118	13.406540878192647	2.385636659144118
O	1.6042402145441175	14.628996378192648	5.991385849144118
O	5.602677184544118	12.173717778192648	7.962151179144118
O	2.2629630845441175	10.502347918192648	7.3671310891441175
O	2.9130376745441176	8.912455048192648	4.0047554891441175
O	0.8769860145441178	7.296611558192647	1.3657828791441176
O	2.010973964544118	6.9528205881926475	-2.236811550855882
O	0.9420720745441177	4.548272648192648	-4.991670100855882
O	2.1062412045441175	3.0413983881926474	-8.245294910855883
O	5.102325954544118	0.6887578770926475	-7.829140420855882
O	4.520956484544118	-2.9115296818073526	-8.702426080855883
O	5.8989601945441175	-9.154842241807353	-5.9342833908558825
O	2.999494304544118	-10.259931321807352	-3.814776230855882
O	1.2432276545441177	-13.485108821807353	-4.724385910855882
O	-7.400942265455883	-8.485080021807352	5.357804589144117
O	-4.622864835455882	-12.594653521807352	1.7878924591441174
O	-2.027958255455882	-13.393275021807353	-0.8579924288558826
O	0.33448934454411783	-10.913490421807353	0.7569260721441174
O	-1.9954134154558822	-8.128709261807353	-0.44527110385588253
O	-2.1290221754558822	-9.266887151807353	-3.9405352808558822
O	0.6429510245441178	-7.8079222218073525	-6.037388350855882
O	1.5815094445441176	-9.125841811807353	-9.422361320855883
O	-3.165270705455882	-8.354575751807353	-10.237005100855884
O	-3.344981005455882	-5.260120751807353	-8.013629990855883
O	-5.0851717754558825	-5.682580311807353	-4.638363340855882
O	-3.5642557054558823	-3.520396351807353	-2.205391580855882
O	-3.783755735455882	-2.4598128318073527	1.4742193091441176
O	-6.409764265455882	-0.7949171818073525	3.0093994591441176
O	-4.983774295455882	0.1553621201926475	6.364139579144117
O	-7.599033355455882	-2.1142259518073527	7.817735299144117
O	-10.318335365455882	-1.5642285618073526	5.197267069144118
O	-2.585857895455882	-11.135152621807352	13.595450399144116
O	-3.0177396754558825	-12.951589021807353	10.212256199144116
