103

O	-4.696997329098592	0.5565068333802814	1.8102932597169015
O	-2.0411684390985916	-1.4585023966197186	0.3240710337169014
O	-2.4434739490985917	-1.1725449466197184	-0.9269756432830986
O	-3.7522825390985917	-1.2043282266197188	-1.3080949802830988
O	-4.559522859098592	-0.4212639366197186	-0.5413688812830986
O	-4.081234799098592	-0.6072680866197186	0.7615376797169014
O	-2.8574659790985915	-1.0578599666197186	1.2248383297169014
O	-3.2189216090985915	-2.1563482766197186	2.1743003597169013
O	-1.6031901670985915	-1.2494018666197189	-1.9509525402830987
O	-0.3135737550985916	-0.8950439366197185	-1.6870775502830986
O	-0.3487499580985916	0.3263548783802813	-2.3111985602830987
O	-0.024863164098591573	-1.0966740866197187	-0.5186086492830986
O	0.18138008490140844	1.1726059923802814	-1.3212659902830985
O	1.4010720409014086	0.6266532003802814	-1.0737587712830985
O	1.4257812109014085	0.6637690293802814	0.2914943997169014
O	0.5855089309014084	1.4855387633802812	0.8560478297169013
O	-0.6570560989985916	1.4137573873802813	0.6387824107169013
O	-0.8558843070985915	1.6591593943802814	-0.6708055052830986
O	1.4104698609014084	2.6508046233802816	0.7443922497169014
O	2.6309783609014086	3.249236003380281	0.7853812397169014
O	3.2088274309014087	3.2670728133802815	2.052086529716901
O	4.401676310901409	3.9274872033802812	2.3206525497169013
O	5.101478880901409	4.505794973380281	1.3438414597169013
O	4.9358908509014086	3.9801822833802816	0.1636218537169014
O	3.7433815109014086	3.3117750833802813	-0.0800662512830986
O	5.887406130901408	3.9963722133802815	-0.9949079532830987
O	6.996695570901409	4.843710243380281	-1.0873760452830985
O	7.812689230901409	4.254790483380281	-2.238073590283099
O	5.0461048609014085	3.238028973380281	-1.7819296102830986
O	-4.074558449098592	-3.030338036619719	1.5892780397169015
O	-3.9810786490985914	-1.5897019166197186	3.0630291297169014
O	-2.1944117290985914	-2.916104516619719	2.1807802997169015
O	5.302337590901408	10.020772443380281	-6.076825980283099
O	4.490673270901408	7.229698833380281	-8.5825661902831
O	2.5664912009014085	4.031517143380281	-9.3401666802831
O	1.1032982009014085	1.0692575873802814	-7.696669280283099
O	-1.1320203660985917	-1.7003302166197187	-9.0373096102831
O	-4.284122189098592	-0.18544720661971859	-10.521703100283098
O	-3.4543748890985917	3.4203807833802813	-9.671352670283099
O	-1.3476415960985917	6.420393693380282	-8.672837230283099
O	0.5327949209014083	6.875824613380281	-5.330825220283098
O	0.6424202309014083	10.196746403380281	-3.4634267302830986
O	2.2807554409014084	11.342067223380282	-0.28550234918309864
O	1.8070285509014083	11.568912123380281	6.9601735497169015
O	0.16429669390140844	8.812221683380281	4.850924029716901
O	0.6720404309014084	7.145303643380281	1.5009711097169012
O	-2.4650720790985914	7.285144063380281	-0.6005297222830985
O	-3.1591132290985913	5.209925793380281	-3.724906770283099
O	-5.857566949098591	6.312883873380281	-5.917402030283099
O	-7.4986817490985915	3.8778338033802813	-8.314133630283099
O	-10.243312329098591	-1.5679402266197187	-4.876332520283099
O	-10.497557949098592	-6.665605196619719	-3.0673414402830987
O	-7.4598294090985915	-4.760699996619719	-1.7816002702830986
O	-9.34010849909859	-3.0212945066197183	1.0361665497169015
O	-10.66699389909859	-6.366732466619718	1.8999589697169013
O	-7.278604659098591	-8.04896799661972	2.175463379716901
O	-5.7701404790985915	-5.240989666619718	4.1311515297169015
O	-3.6380525390985916	-7.520269736619719	8.359906659716902
O	1.5710763709014084	-6.87546751661972	11.814752499716901
O	4.8217234009014085	-4.794312866619718	11.8675039997169
O	5.954407970901409	-6.229567906619719	8.5496214297169
O	2.8286662409014087	-5.496665436619718	6.685918769716901
O	2.5546758209014087	-1.8006782166197186	5.748185529716901
O	-0.11138669209859164	-0.3802429466197186	8.055041589716902
O	-3.6087514490985915	0.2798754843802813	6.802709209716901
O	-5.249098769098591	3.3208721733802813	7.899881379716902
O	-8.479551809098592	3.7610711633802816	5.936128489716901
O	-10.12061300909859	4.123494883380282	2.5158761597169015
O	-12.009377399098591	6.809867833380281	0.6237698337169014
O	-14.595482899098592	6.474509923380282	-2.1755004702830987
O	-11.319260299098591	5.437656333380282	-4.9193387502830985
O	-8.418075989098591	5.720835783380281	-2.467181300283099
O	-6.5227635990985915	3.5838530033802813	-0.09786688228309862
O	-4.590644369098592	5.137404903380281	2.794212189716901
O	-1.6904646190985915	3.6283014933802815	4.736011649716901
O	1.0471889809014083	4.599311413380281	6.961906549716901
O	3.8042568909014083	6.668656983380281	5.297504209716902
O	7.236413990901409	4.9966763333802815	5.021908729716901
O	10.22924500090141	7.348442873380282	5.0123472497169015
O	12.423491200901408	3.575741223380281	0.2953613897169014
O	11.541262200901409	0.2818400283802813	-1.4343883302830984
O	14.095236900901408	-2.4396193766197185	-1.1668375542830987
O	0.4833144409014084	-11.679952376619719	-2.332781980283099
O	3.4666783509014083	-9.71012307661972	-6.658529200283099
O	6.209675100901409	-9.845987576619718	-3.9867009602830987
O	9.158155980901409	-8.046197066619719	-5.479347500283099
O	11.521098500901408	-5.571725826619719	-4.0213056302830985
O	9.364897700901409	-2.6180067166197185	-5.177954260283099
O	6.6996190809014085	-3.5693749066197182	-2.7063486402830987
O	9.019872410901408	-4.002091276619719	0.1909157867169014
O	9.39017100090141	-0.7236474866197187	1.9638289197169012
O	12.161170400901408	0.013192373380281452	4.457753399716902
O	10.414124800901408	-4.030674296619718	6.543006039716901
O	6.780035430901409	-3.2990694966197185	5.538461469716902
O	5.326371160901409	-5.396974086619718	2.724541499716901
O	3.0414166009014085	-3.1717421366197187	0.7111364757169014
O	0.8637337109014084	-3.6179300666197185	-2.5081667302830986
O	-2.1116639790985916	-5.922618286619718	-2.2417309202830986
O	-3.9742422690985917	-4.895461466619718	-5.4561816302830985
O	-3.1706694290985915	-8.31207472661972	-6.780489200283099
O	-3.4601169890985917	-10.32017147661972	-3.489578550283099
O	-5.989744599098591	-13.20480987661972	-2.9619156102830986
O	-2.0550151990985914	4.452975793380281	13.360575299716901
