94

O	0.18616739702063473	2.284926662269841	0.6742469829301587
O	0.2692869650206347	1.3760252282698409	1.6327130829301586
O	-0.6074155389793653	0.460962589269841	1.9017595029301586
O	-1.6447452119793653	0.35729058926984103	0.9542252729301588
O	-1.9611229519793651	1.486298330269841	0.1689269789301588
O	-1.1552424869793654	2.559455960269841	0.42387033793015877
O	-0.7825931969793654	0.7592253402698409	3.368828612930159
O	1.3375759980206348	2.536651581269841	-0.008101429069841182
O	2.509908468020635	3.082783619269841	0.48321868293015885
O	3.062545508020635	3.590000849269841	-0.6527329350698412
O	4.053453768020634	4.608937759269841	-0.4323695240698412
O	5.086280808020635	4.3703905892698405	0.5129316439301588
O	4.656769038020634	3.2831922892698406	1.2769983829301588
O	3.2600753280206347	3.2551245492698406	1.5705424829301586
O	3.109437198020635	2.700972609269841	-1.8446278770698412
O	3.145281178020635	1.402921549269841	-1.5744747470698413
O	3.8761895880206345	0.6242650502698409	-2.4880216770698413
O	4.279877118020634	1.100750240269841	-3.6500286770698414
O	4.734932038020634	2.349528760269841	-3.654506817069841
O	4.095581638020635	3.119542149269841	-2.7209903370698414
O	5.880171978020634	3.010101239269841	-4.001854147069841
O	6.019353578020635	3.869461459269841	-2.9276109170698414
O	4.7723026180206345	4.315662069269841	-2.8205939670698412
O	-2.427599121979365	0.464241009269841	3.451573012930159
O	-3.3247164219793652	1.078335999269841	2.5068664729301586
O	-2.466648671979365	-1.1896177307301592	2.918746282930159
O	-2.713706381979365	0.8915611002698409	4.759344072930158
O	-1.2846006319793652	-1.7060157407301593	2.8963005329301588
O	-3.2797573519793652	-1.6483605907301593	4.050320122930159
O	-1.2382045919793652	3.594741199269841	-0.40849083286984117
O	1.4789014980206348	1.327006548269841	2.286951532930159
O	0.7065782800206348	12.931895449269842	-2.688645757069841
O	3.591309938020635	10.662488679269842	-1.7253517570698413
O	3.1453614480206347	10.491095029269841	2.0761402729301586
O	1.3935917680206347	8.81524931926984	5.104770152930159
O	-0.08437978397936528	5.4651181092698415	6.144173882930159
O	-1.9714828419793653	4.352628419269841	9.12248040293016
O	-4.431340981979366	8.59797986926984	6.319788642930159
O	-2.6254551319793653	10.047395109269841	3.291227882930159
O	-1.0399605359793653	8.095425189269841	0.4207248039301588
O	-1.3168225519793653	9.091720639269841	-3.264955737069841
O	-0.03361297497936527	7.559751809269841	-6.451313757069841
O	-3.1221690219793654	7.068418439269841	-8.669943797069841
O	-3.3558622119793653	1.055229056269841	-14.36355867706984
O	-1.1418294729793652	2.498084433269841	-11.66451357706984
O	-2.3766903319793653	2.113851694269841	-8.095469807069842
O	-1.4801060719793653	3.368911479269841	-4.662187547069841
O	-4.451916271979366	5.022596439269841	-2.8913160770698414
O	-4.648244641979366	5.548268639269841	0.9529027529301588
O	-7.281873841979365	8.123674209269842	1.894608682930159
O	-8.544967411979364	-2.7115830407301593	7.250307682930159
O	-10.566409851979365	-3.4493452907301587	4.141809112930159
O	-8.351609501979365	-7.835075800730159	6.680113222930159
O	-7.028000351979365	-6.943297100730158	3.202979932930159
O	-0.30825498277936525	-13.736281450730159	-1.6520365170698412
O	2.7253409980206347	-12.359435150730159	-3.555099927069841
O	4.264725198020634	-10.953294250730158	-0.40252792666984116
O	1.2401714180206347	-9.003709250730159	0.7293161229301588
O	0.7046647990206347	-5.72987619073016	-1.1211135190698411
O	-2.269700331979365	-6.452587190730158	-3.3237704170698414
O	-5.537030591979366	-4.944276460730158	-2.307661007069841
O	-7.531929581979366	-3.961850980730159	-5.367257907069841
O	-12.039199651979365	0.520553069269841	-1.8626203170698412
O	-14.023679951979364	3.758489569269841	-2.265385507069841
O	-10.097652081979366	5.255106459269841	0.22310375893015882
O	-8.182643881979365	2.0174875972698407	-0.07083180806984118
O	-6.5380907419793655	1.015608646269841	-3.3338962970698414
O	-3.6638659219793652	-1.3611883107301592	-3.8732157370698412
O	-1.3138679119793653	-2.373165450730159	-6.6725203970698415
O	1.3696608880206347	0.22973681926984102	-7.283994827069841
O	4.971406948020634	-0.858014280730159	-6.402773797069841
O	7.737894248020634	0.9209295272698409	-8.243166707069841
O	10.729914948020635	1.099644418269841	-5.9844539470698415
O	10.420675948020635	1.909447331269841	-2.410789497069841
O	9.996462448020635	0.8394569782698409	1.1419386629301587
O	12.869712048020634	-1.204246640730159	2.5568258829301587
O	10.864466648020635	-1.591341220730159	7.138921442930159
O	8.559479818020636	1.2742544862698408	6.210027522930159
O	5.799515388020635	-1.144245680730159	5.401848562930159
O	7.928845008020635	-3.468522510730159	3.365246642930159
O	7.890608658020635	-2.4496655107301595	-0.2522911590698412
O	10.332180348020636	-3.677774570730159	-2.8315580070698414
O	8.265403558020635	-4.045744570730159	-5.999233637069842
O	8.682050918020636	-7.970660270730159	-1.1902010890698411
O	5.124251598020634	-6.759582980730158	-0.5702940920698412
O	4.050142208020635	-6.12062539073016	3.0533088129301587
O	1.7839115880206349	-3.1363190307301587	3.161764622930159
O	-0.17936385947936528	-1.249468980730159	5.827069212930159
O	-3.015222661979365	-3.1558795507301594	7.563068442930159
O	-4.711881321979366	-0.2932912407301591	9.27514442293016
O	-3.528375651979365	-1.619553550730159	12.64611892293016
O	-3.857281301979365	-5.372387520730159	11.899264722930159
O	6.763425588020635	3.6017590192698408	15.918605522930159
O	-1.2609784319793653	-7.419966510730159	-11.25965017706984
