25

O	85.74854324034087	10.29873974729766	-10.729551744281478
O	83.7792036394476	8.670403937822813	-7.467452345625848
O	83.48532252986917	7.506556776786023	-7.9819140282646615
O	82.22934411367633	6.990356435410774	-8.290555014869923
O	81.39870027060549	8.053924305837455	-8.754551472857466
O	85.43413377568872	6.423209049320029	-6.807909830516035
O	82.02170062380863	9.319792156908203	-8.893541671731233
O	81.63562434400636	10.383234158563168	-9.5870010484244
O	82.83342894681509	11.051990445265108	-10.09563507360905
O	83.54040185252012	11.596038313647474	-9.118813654803755
O	86.94217847192068	11.002471610348092	-10.45864293987926
O	83.24039140102734	9.631996822822948	-8.19665292909371
O	84.87669606394923	7.051904061403121	-7.976920459410418
O	87.06105378365915	11.119247815452466	-9.068096908426227
O	86.01645453588462	9.255171801765997	-8.693838380386214
O	85.66302868227731	9.111015448295422	-10.035403844739712
O	86.7906828220843	6.305957163302352	-6.387285258800571
O	86.34662071284785	5.58669444472827	-5.212038446372545
O	84.9886230808209	5.200779414202133	-5.319470723968614
O	85.68191715876898	8.190799509979943	-7.876965124955956
O	85.83684569116308	10.632881317404234	-8.574388667455171
O	83.40273461615256	10.917712253396227	-7.931086983085612
O	84.87854887030282	5.1962484110603455	-6.615595934459183
O	83.10899646709541	8.293188147398588	-6.29648002574598
O	79.77695860546346	8.223767680939497	-8.017986115091432
