35

O	78.59313662486079	3.204941365193595	-4.173763222425828
O	85.57034900486175	9.86138208050799	-8.449098561695168
O	86.7410193064071	9.626714675765768	-8.338918804465273
O	85.35441215635261	8.79184331866902	-7.306671161426574
O	78.55345414607834	5.4324501318735186	-4.154366424481119
O	81.12863437679225	7.194446917030276	-7.7822087671259546
O	84.26592236356882	7.811031855083035	-7.488255137117015
O	82.3630867452465	10.449908040948616	-7.231729599034965
O	79.27807363975442	3.60493092486646	-6.171167461086489
O	83.11357226736082	8.590218921035762	-8.056824920318293
O	84.47215633212396	10.652679285140842	-8.53511691694068
O	81.76783088249037	8.329590402303095	-8.045299975707936
O	79.86955407264402	7.129068469938943	-7.057246053126078
O	78.61600296240361	6.909132769780891	-7.003968422921106
O	78.10354758606903	5.600431128893358	-6.850813661448838
O	79.20973393612492	4.792724688352619	-6.584671798295232
O	80.58020786347112	3.3865364475851663	-5.582127963233387
O	81.34995507413171	4.590352236706429	-5.401293400251858
O	80.26995412709958	5.4342627443650615	-6.005447870256966
O	80.30054879279598	6.778503555146685	-5.775589308357566
O	80.70024740276466	4.411309239672722	-4.309362891701121
O	79.28492426621683	4.407909591922558	-4.07431396870869
O	77.33348584868406	3.538791345043234	-4.3000127826225825
O	76.61683197736966	3.183773645276542	-5.4491838400200105
O	75.38919724885791	3.8053842585030226	-5.384511512517542
O	75.13161383292763	4.903178737460725	-4.6253233173562425
O	74.0540158480562	4.887119106598462	-3.5486105266097216
O	76.15182922184856	5.491547831293456	-4.205835452361384
O	77.36139294883216	4.893079615349284	-4.039657073422789
O	80.82238795009613	9.331280420282798	-8.371495046009443
O	81.13231627702632	10.628157145981724	-7.923990399818959
O	83.21352305863127	10.010340548907788	-8.249265652508289
O	74.33243533872695	4.965070531510193	-2.268784538788683
O	73.67715429546317	6.136033296329705	-3.714165815631725
O	73.17408402925055	4.090453537340828	-4.089065001773648
