32

O	83.88995728254127	10.757517660028142	-6.930723724924572
O	84.33808686147954	9.420178016746425	-6.5200039623671255
O	84.7618391364076	9.39014648426534	-7.9451100490593936
O	83.53400537147353	8.86375800977913	-8.389720835258935
O	82.33827567792025	9.66799800777304	-8.32459826039996
O	82.73889824257031	10.969877600462492	-7.766804658086616
O	83.69096149564844	7.61053455294279	-7.800627831774664
O	82.57410793567551	6.922316876388651	-7.819311925922274
O	81.29336549742779	7.491537207543842	-7.429234594110948
O	81.2268324006926	8.89579942705024	-7.758655922982975
O	84.91383072714581	7.161215038392276	-7.230742700389376
O	83.03267632840186	5.706087197564607	-7.422291415542732
O	80.6428132768292	6.494928944577568	-6.984390638615148
O	79.63087943855204	6.53766816283601	-5.983485241909409
O	79.29853619061042	5.103321639815109	-5.390931863941692
O	78.29144637372674	4.474447851321504	-6.313971875311636
O	79.62377126591453	4.29188705939786	-6.087983850456338
O	80.73253376499345	5.116768827139456	-7.12122629052743
O	78.61187586406794	5.0865521293484175	-4.171813118635905
O	83.25745037335038	8.812739187083196	-5.99650984641913
O	77.66985755593302	4.2279564782283146	-3.931470828386229
O	77.25218188515579	6.114300402502982	-5.757859587160237
O	76.76541975251907	3.7896277075508316	-4.959649109646969
O	77.77217237523764	3.4930484452662904	-4.343067139483166
O	76.3744553573202	6.212217354819023	-4.648976433878951
O	75.17205982239707	7.000841212355255	-4.978224608472741
O	82.74507051317322	8.110756449670019	-4.974287130172586
O	82.47326134022293	6.734359314320591	-4.529017546490283
O	81.48386372926454	6.311253863431693	-3.533143485069207
O	80.78425979480939	5.243636083213772	-3.2952555070652334
O	81.49208026571132	4.6305035817787195	-6.095707941692708
O	79.19996539724876	7.0832246486745225	-4.95256639880454
