104

O	-2.1373738671014495	-1.0013397186999995	2.0605629791014493
O	2.1282353428985505	-3.4279083187	-7.27670272089855
O	1.7700515028985508	-4.4249176987	-7.838266570898551
O	0.8464289128985506	-3.6025600086999994	-6.36997712089855
O	-1.6928332771014496	0.36620534330000043	0.3588137591014491
O	1.7135674128985507	-1.4863793586999996	-2.445074650898551
O	1.0100737528985504	-3.4136335387	-4.914882260898551
O	1.6351490628985506	-0.3277200886999996	-5.77318017089855
O	-0.2509722951014494	-1.8078358886999994	1.420401209101449
O	1.9181125728985506	-2.225840228699999	-4.763464360898551
O	2.5645449128985507	-2.1464035386999996	-7.193293920898551
O	2.0881200828985507	-1.3604919886999995	-3.714012220898551
O	1.2213184028985506	-0.3813879486999996	-1.6377250448985508
O	1.3433831528985505	0.4495759443000005	-0.6800195528985509
O	1.0170781028985507	0.09494546730000042	0.6490888391014491
O	0.40252687089855055	-1.1548513586999996	0.5642118491014492
O	-1.0899477571014495	-2.7681096386999995	0.7390703691014491
O	-1.1516465881014495	-2.5826788786999995	-0.6878819948985508
O	-0.20868240610144945	-1.4203089686999995	-0.6303984498985509
O	-0.16003412010144946	-0.5786846786999995	-1.7028052048985507
O	-2.1268119971014494	-1.9098162286999993	-0.1951376718985508
O	-2.1072748571014492	-0.7789251486999995	0.6875303291014492
O	-1.7278895871014495	0.11807572530000043	2.6021777191014492
O	-0.5689045018014495	0.1444463393000005	3.3872144191014493
O	-0.28993878010144947	1.4621871613000006	3.6760163291014494
O	-0.7513875471014495	2.5142344513000006	2.949290669101449
O	-1.6039478671014495	3.604313521300001	3.5862006191014495
O	-1.2126666661014496	2.2050545913000006	1.8291937591014493
O	-1.7060883071014494	0.9757978213000005	1.522132289101449
O	2.7722399528985506	-0.1321430096999996	-3.8776803108985507
O	2.552883792898551	0.5272847913000005	-5.100481630898551
O	2.376960412898551	-1.5028337986999996	-5.91693278089855
O	-2.8691684471014494	3.7782928813000005	3.285374319101449
O	-1.1229815691014493	4.5927725713	2.8645081891014494
O	-1.0932733291014496	3.6508118813	4.78540722910145
O	8.67667177289855	-9.954438438699999	-3.3961019708985507
O	5.95329273289855	-8.8260134487	-5.738748120898551
O	2.8433481028985508	-10.3098890387	-4.078408030898551
O	0.0939775368985506	-9.898086638699999	-1.569779095898551
O	-1.9311884071014496	-7.406705058699999	0.1824774191014491
O	-4.32908564710145	-7.5168721487	3.078036569101449
O	-2.646235287101449	-9.157569188699998	6.0615975491014495
O	0.7964771428985505	-9.513909238699998	4.46826565910145
O	3.4030719428985505	-9.615749638699999	1.7047898891014492
O	4.3279568228985505	-6.7554142987	-0.6643113598985508
O	7.8699746428985495	-5.9712450587	-1.696389564898551
O	9.46494022289855	-3.4583163686999994	-3.9561201008985507
O	11.85834703289855	3.3754275213000007	-4.66427491089855
O	9.12446766289855	2.3924673913000003	-2.1920752808985506
O	6.440317662898551	-0.3350843686999996	-1.8726298048985508
O	6.7901412128985505	-2.1505087186999994	1.4792181591014493
O	3.9505055428985503	-4.3140019587	2.972434729101449
O	5.10252636289855	-6.6451650687	5.730547809101449
O	2.4558086328985507	-7.9985541787	8.126383689101448
O	-1.0983166441014496	-2.8612081386999995	11.229022919101448
O	-5.35632590710145	0.37515676830000044	12.235464419101449
O	-3.9175790471014493	0.7633288626000004	8.82536014910145
O	-1.0093698891014493	3.0403846913000008	9.93732521910145
O	-5.89287479710145	5.5150706713	8.647964689101448
O	-2.9653049671014493	6.3836269613	6.4348238491014484
O	-4.39457731710145	11.014718461300001	4.0496920491014485
O	-3.9323461971014493	13.668994261300002	-1.6648477478985508
O	-2.659363727101449	12.796355661300002	-5.209402770898551
O	-5.19343404710145	10.016049871300002	-5.6180019408985515
O	-4.38104684710145	8.2937654013	-2.439105890898551
O	-1.1225599071014494	6.2196559513	-2.697004190898551
O	1.4176832528985504	8.1886701513	-0.5959896738985508
O	2.4646646028985506	6.9326687713	2.844341779101449
O	5.98998446289855	7.4090206513000005	3.7330727691014496
O	6.60605253289855	5.6452729313	7.060796289101448
O	6.327115752898551	2.4255972513	9.090381919101448
O	8.72777281289855	-0.0502862306999996	10.708562819101449
O	8.118825292898551	-2.3887977086999994	13.678618819101448
O	5.62143009289855	-4.8879243187	11.04739851910145
O	6.0697446328985505	-2.9657736986999996	7.827201849101449
O	4.3956169928985505	-0.21551196569999953	6.030795169101449
O	6.21870541289855	1.9723884213000005	3.459960569101449
O	4.70151961289855	4.0528973913	0.6329625291014491
O	5.61900942289855	5.6602892813	-2.620271180898551
O	6.32994473289855	3.0900877813000003	-5.390427080898551
O	3.9676626228985508	2.991399821300001	-8.40395221089855
O	5.48577168289855	2.0161936713000004	-11.739851880898552
O	0.16159870789855058	-1.4603452386999993	-12.345100880898551
O	-3.219395237101449	-1.9811070486999995	-10.711287780898552
O	-6.25576787710145	-1.0820656786999996	-12.783298180898552
O	-12.26266306710145	-3.2566601086999993	-0.2865037448985508
O	-11.66143536710145	-3.0204680187	-6.3162231308985515
O	-9.46744997710145	-2.577598858699999	-9.302062150898552
O	-6.56948088710145	-4.4502189687	-7.6035085308985515
O	-6.22581311710145	-1.5603194886999996	-5.2726803508985505
O	-6.21304503710145	1.1284435363000005	-7.794737800898551
O	-2.7811891071014494	1.7944260813000004	-9.06850236089855
O	-1.9127882371014495	3.6546156413000004	-12.217826480898552
O	-4.65431222710145	7.0319773013	-10.04382204089855
O	-3.5109486271014494	6.1874170213	-6.518934610898551
O	-6.00898244710145	4.300866331300001	-4.345037570898551
O	-4.1469159671014495	1.9184764013000004	-2.234535830898551
O	-5.06437752710145	-0.9300882486999995	0.4316419591014491
O	-6.30869358710145	0.1913444883000005	3.8402451591014493
O	-5.67676120710145	-2.9854075886999993	5.8593882891014495
O	-9.43436518710145	-3.3301183987	5.848826409101449
O	-10.425671837101449	0.41496014030000045	6.071058109101449
O	-12.62099596710145	-13.021615038699998	0.1269304391014492
O	7.875733472898551	11.9910220613	-0.4038339028985508
