34

O	83.81588146486693	12.20760872037469	-9.10502310750883
O	91.28730585507763	12.170867780129955	-7.863831359079164
O	87.92458793244727	10.384858887201728	-9.224854135583552
O	89.06323788560826	11.05457288351201	-9.310201749253121
O	83.95162943531618	9.168099058867334	-6.304276379149364
O	88.50274625631114	12.114641373787286	-9.985147239670358
O	92.5452104348397	7.453938979159612	-6.965000551934791
O	88.58149100265247	12.835394755888615	-11.164853471416066
O	91.088595381786	6.887227346734882	-5.982034605507917
O	87.24497591894618	13.276136617240063	-11.516876045999425
O	86.06522967400943	12.615165306385327	-10.896088957343789
O	86.44653674194932	13.211065833171066	-9.685968978650052
O	87.30280641615897	12.254425240499756	-9.22914039631329
O	86.6627627374679	10.965123296268182	-9.297582150233403
O	85.40783953365187	10.523091511006484	-8.890036511781325
O	84.05553867449214	11.041948406931066	-8.897981910319434
O	83.27617798327492	10.556812017466372	-7.818411976357563
O	84.10031825898699	9.416522409675657	-7.479849961721133
O	85.42842671257847	9.555493674807852	-7.991087764818461
O	86.67288127640556	9.04212150768932	-7.634749635736585
O	87.43944392362337	9.246633848722428	-6.28966629348261
O	88.34733300723839	8.209900873229186	-6.310601333651154
O	88.90346207848638	7.71167416454552	-7.566948239206718
O	89.18516514846498	9.042633292026169	-8.26586272290026
O	87.75613737560832	9.424112744573526	-8.431083302942408
O	88.30700934774809	7.5066906035289245	-4.952667207534161
O	91.40617828843257	9.30912637793945	-7.206202648979206
O	92.33481817059759	10.019590172780523	-7.986725756512534
O	92.03299042364608	11.199010147254734	-8.817195245769353
O	91.71560190598012	10.781613218016231	-10.208496931505508
O	91.51419502515341	9.405895155087817	-10.277808704767033
O	92.07055543160808	8.91091030367051	-9.043946216997726
O	91.19445821982836	7.781600798400081	-7.009517281989713
O	90.28046352433813	10.159907534791254	-8.633214908825655
