86

O	-3.833541264630357	-0.18274526353571435	-3.6291069225464287
O	-2.727827434630357	0.027347745464285644	-4.393754292546428
O	-1.6484501576303572	0.30801118296428565	-3.6097402525464286
O	-1.4776001806303571	-0.5482430745357143	-2.5144862325464286
O	-2.533128744630357	-0.5183547895357143	-1.7060901535464286
O	-3.610901104630357	-1.0963317905357144	-2.5885213225464287
O	-0.607741666630357	-1.3758428805357144	-1.9315642825464288
O	-0.990455962130357	-2.049218620535714	-0.8343977562464286
O	-2.0511095246303572	-1.2486705505357143	-0.6445164675464287
O	-1.332843946630357	-3.4926222505357143	-1.1940629425464286
O	-2.471229454630357	-1.7528454405357143	0.5318139474535714
O	-1.865338733630357	-0.7816221005357142	1.4126734474535714
O	-2.132560404630357	-1.1489861505357142	2.6985023674535715
O	-0.937628717230357	-1.4755064805357143	3.1910293774535714
O	0.03509001536964296	-0.5464092205357143	2.9853306774535713
O	-0.25390200163035703	0.6588266374642857	2.3472985974535714
O	-1.091319884530357	0.33994472666428566	1.2806908674535715
O	1.2992606353696428	-1.1657261005357142	2.8231086074535714
O	2.118180155369643	-0.19835616753571433	3.5273011174535713
O	1.6924023553696428	1.1791870054642857	3.4993372174535717
O	0.6398469153696429	1.6108802994642857	2.6794344874535714
O	-1.589031412630357	-4.138952680535715	-0.16566363054642863
O	1.2993310053696427	-2.5326002605357143	2.6913685774535714
O	-2.467813704630357	-4.011495010535715	-1.7879949425464288
O	-2.9331771346303572	-4.052234700535715	-3.0552079925464284
O	-3.350552864630357	-3.140129790535714	-3.9161441825464287
O	-4.485524054630357	-3.3007646805357145	-4.595352602546429
O	-5.162327824630357	-4.460736810535715	-4.510270152546429
O	-4.227989334630357	-5.456638640535715	-4.447503742546429
O	-3.2995486946303574	-5.267313500535715	-3.4595173925464286
O	-11.286639994630358	-3.9242367905357143	2.1903717674535716
O	-8.452034184630357	-5.094506080535715	-0.07277024154642864
O	-6.454929074630357	-7.154787190535715	2.4916238574535714
O	-3.6836776546303573	-7.223502050535715	5.101765307453571
O	-0.5923873386303571	-5.487874080535715	6.129065507453571
O	1.6393246753696429	-5.696399350535715	9.178539067453572
O	-3.718955084630357	-4.456421590535714	10.432216367453572
O	-6.261024184630357	-4.335726290535715	7.617004167453572
O	-5.968359724630357	-2.433119090535714	4.370980777453571
O	-8.723736824630357	-0.42360473253571435	2.6605454674535713
O	-9.087352674630358	1.6384857394642858	-0.4964814245464287
O	-10.189611774630357	5.0938030394642855	0.6221590774535714
O	-8.822704604630358	11.643930489464285	1.2743935574535716
O	-8.198167084630358	11.751553689464286	-3.7683228125464288
O	-7.636052134630357	8.027120879464286	-3.6907851125464286
O	-5.607195824630357	6.6415399894642855	-0.7936682609464287
O	-4.789914124630357	3.4234138394642857	0.7408421474535712
O	-5.571566904630357	3.210337219464286	4.472595217453571
O	-4.193956314630357	0.6281946014642856	6.929144827453571
O	-6.081372404630357	0.28774391246428566	10.134331967453571
O	5.576938055369643	3.069248719464286	11.691211667453572
O	9.577270105369642	8.287075629464285	-5.495838702546429
O	10.319372405369641	4.667943039464285	-4.7196530725464285
O	8.891288385369641	4.722747969464285	-1.2407945005464287
O	5.128943835369643	4.569362209464285	-1.0966716255464286
O	4.046942185369643	8.025363359464286	-0.09639101454642862
O	-5.014261474630357	4.484231009464286	10.780053767453571
O	-2.185800794630357	5.168806459464285	8.383553337453572
O	-2.8630418346303568	6.807491699464285	4.992306337453571
O	-0.6637822606303571	6.577468109464285	1.9263448474535716
O	-0.960623260330357	7.381319869464285	-1.7437438825464286
O	-3.032347934630357	4.910834439464285	-3.6691095225464285
O	-1.1610508476303572	2.8508206394642857	-6.320888692546429
O	-3.196647894630357	1.6239114394642857	-9.247308172546427
O	-1.679866500630357	-1.6628734505357143	-10.351792022546428
O	-0.5733690806303571	-4.178286180535714	-7.823572622546429
O	2.2060107453696434	-5.725824310535715	-5.826776912546429
O	5.090767105369643	-7.203898280535714	-7.673290242546429
O	4.045501585369643	-10.463171310535715	-6.019922052546429
O	0.584801975369643	-10.319209710535715	-7.573389762546429
O	1.8996242553696427	-9.654333610535716	-11.070065332546427
O	7.482688265369643	-8.724118460535715	-3.4981860225464287
O	4.213777025369644	-8.237071230535715	-1.6266678575464286
O	5.428173045369643	-4.9115913805357145	-0.4244460215464287
O	6.592533855369643	-3.704355410535714	-3.7862635625464285
O	3.8215202353696434	-1.9493066405357142	-5.591209062546429
O	3.8742863753696435	-1.0861510005357142	-9.251721852546428
O	2.190622875369643	2.3302723394642855	-9.442255902546428
O	8.095032005369642	1.0175974214642856	-7.978363332546429
O	6.946478675369643	2.1331284894642857	-4.568193602546429
O	8.201163095369642	0.10263139146428568	-1.6106265035464287
O	5.558112375369643	-0.07250124553571435	1.0599448674535714
O	4.853850685369643	-1.3425024505357144	4.652818617453571
O	6.920387375369643	-0.10013389253571431	7.401398347453571
O	5.171658355369643	-1.6941033505357144	10.345168667453573
O	8.293360235369642	-3.8167684705357146	10.990790167453572
