34

O	76.58385913206388	8.034082318070908	-5.524891064184634
O	79.67118997005566	8.14109200184822	-5.96023800053399
O	78.17225161268013	7.884123278434922	-5.495799953099063
O	78.45735730452726	9.16596775046347	-6.082411834412898
O	79.58623835571387	10.115750281093128	-6.771045859234217
O	80.83056215549554	8.53162455731178	-6.663823841949454
O	80.66914927447958	9.735933399403098	-7.342554626841309
O	81.55913209035957	9.430708961205251	-8.313069378852056
O	81.71522015294916	8.040595729173456	-8.16130513229714
O	80.37501506339765	7.405359341910004	-7.421253295224837
O	80.61141503492962	6.225444235523234	-7.095527608314992
O	79.21546944815302	5.941681230524574	-6.569912030213277
O	78.1155597917219	5.871979055286122	-7.371635797271621
O	79.47424910068878	5.445388994730177	-5.377007893990528
O	81.43325313641189	5.581560843894308	-6.445893980514525
O	77.71047687391035	4.637849645249808	-7.571515450316714
O	79.01890291441582	4.239400705320348	-5.484871236344759
O	79.86601928906097	3.331545107687986	-4.720799826008275
O	78.3751616251505	2.6741941618706493	-4.8553164867935354
O	79.16779524558852	1.972785277676543	-5.9509169407039355
O	77.68347357823947	1.8955085842430242	-5.868608258352225
O	77.57478014396207	4.186856461985509	-4.809305329351465
O	77.64116382629415	5.140741795769134	-3.9693530914896877
O	76.54313761734579	5.663616850862669	-3.2661794197425063
O	75.37372232970208	5.700251637164881	-3.927835732737538
O	75.29112817696135	4.856617328504665	-4.916131885869275
O	76.46872564306352	4.421377777094131	-5.432957832507594
O	74.18025584732473	5.747500438444479	-3.097993886807945
O	78.18351650974013	3.8811494899510444	-6.557206911553157
O	78.2628594983065	6.725606369516142	-8.386851849610167
O	80.44105857942579	5.7911367617903355	-4.536514117700728
O	73.8181849123936	4.483931702518567	-2.8965854268264146
O	74.46848638964352	6.2968699319315276	-1.983250063294907
O	73.17866300718312	6.349486197460559	-3.6947816443672967
