93

O	-1.6742526753125002	-2.555577919523438	-1.337196543171875
O	-1.9509862263125004	-1.1945353995234376	-1.228971704171875
O	-0.9062428793125004	-0.3663891625234377	-1.420362196171875
O	-1.2805200853125003	0.9241686514765624	-1.444659279171875
O	-2.5989123163125	1.2201822054765623	-1.012084422171875
O	-3.0156617363125005	0.45964508477656235	0.022273448828125098
O	-2.8347455863125	-0.8607088795234376	-0.26651002917187494
O	-0.9466180163125003	1.5265845104765625	-2.6452084561718747
O	-1.7861218663125003	2.9210665404765623	-2.827759816171875
O	-1.0051255993125003	3.9985435404765624	-1.931257716171875
O	-0.5472444333125003	3.0643136504765622	0.019826674828125057
O	-0.30433323731250034	4.178188340476562	-0.775379118171875
O	-1.1181315953125004	-2.918407649523438	-0.14000909317187493
O	0.1328806216874997	-2.3868028595234376	-0.12742498217187492
O	1.0515899236874997	-3.326476249523438	0.34888153382812503
O	0.8385689836874997	-4.6463044895234376	0.518926833828125
O	-0.46360064731250034	-4.836598569523438	0.844689973828125
O	-1.4145182363125004	-4.194755019523437	0.11951825382812498
O	1.2365392736874996	-5.676816009523438	-0.286506067171875
O	0.7305838736874997	-6.905443709523437	-0.2326037831718749
O	0.23496754768749972	-7.130071999523437	1.045450723828125
O	-0.4801509533125003	-6.074762079523437	1.5139469538281252
O	0.11197981368749965	-8.493405049523437	1.362243133828125
O	-1.6733170773125003	-6.302793099523437	1.6889516638281252
O	-3.1683643463125004	2.8804621604765623	-2.3223312961718747
O	-2.0912945963125003	3.160222260476562	-4.180478976171875
O	-2.6531572163125006	-3.248686199523438	-2.190718256171875
O	-3.3143679363125003	-1.778170939523438	0.5733645138281251
O	-0.05207097831250029	-0.8868534395234376	-2.352251026171875
O	-9.765909946312501	-8.595223749523438	2.334632893828125
O	-6.3487711163125	-9.389929069523438	0.9387480738281251
O	-6.721783666312501	-8.357412439523438	-2.712236586171875
O	-6.6556358163125005	-5.575966039523437	-5.343289716171875
O	-4.9817051863124995	-2.3231511195234376	-6.092551076171875
O	-5.5147185263125	0.38877851497656235	-8.589851956171875
O	-10.0692905363125	-0.6305301995234377	-5.532690646171875
O	-9.9370303863125	-3.386037899523438	-2.928647506171875
O	-7.1946346763125	-3.848630119523438	-0.34073844717187496
O	-7.8046824963125	-4.781146899523438	3.3021681138281247
O	-5.5650080563125	-5.3540166295234375	6.291781843828125
O	-6.838201566312501	-2.9645689895234377	8.992330933828125
O	-1.7027257273125003	-0.07274845552343767	14.787128693828127
O	-1.7545416363125004	-2.247273219523438	11.700142993828123
O	-2.4950852063125004	-0.5026802885234376	8.397191883828125
O	-3.2351486963125002	-1.4252336395234377	4.839344203828125
O	-6.4379149763125	0.15646874347656237	3.5224689738281247
O	-7.321488756312501	0.6300019484765623	-0.17240162217187494
O	-11.082762086312501	1.2114568404765622	-0.688139296171875
O	-3.7369173063125003	9.595475590476562	-5.455033366171875
O	-4.0858114363125	11.177916570476564	-2.0278889061718752
O	0.5046880336874997	12.465646870476563	-4.8256879261718755
O	0.9153075436874998	10.402966780476563	-1.639330830171875
O	10.741337913687499	8.503194760476562	2.140058303828125
O	11.6406962136875	5.0068127804765625	3.464643453828125
O	11.2061393136875	3.436166050476562	0.06059996882812502
O	7.7104960536875	4.764528050476563	-0.573634317171875
O	4.983308043687499	2.8873775704765623	1.2660146538281252
O	3.9419099636875	5.345109990476563	3.934051943828125
O	0.7012804036874998	7.161877760476563	3.467270663828125
O	-1.0082894643125004	7.620317410476563	6.803584003828125
O	-7.6180058963125	8.975344210476562	4.078637693828125
O	-11.343276986312501	8.454740080476562	4.753576203828125
O	-10.3827653163125	4.876470410476562	1.5663781438281252
O	-6.639610936312501	5.354395830476562	1.6047226638281251
O	-4.5419889563125	4.177434710476563	4.496879583828125
O	-0.9000379283125003	3.273955250476562	4.544800503828125
O	1.5625351636874996	1.5752505404765622	6.911457763828125
O	1.1633782136874997	-2.194406169523438	7.003741143828125
O	4.124749853687499	-4.192219429523437	5.559008333828125
O	4.4859127236875	-7.697308299523437	6.805062163828125
O	5.9542556736875	-9.775878529523437	4.072959493828125
O	4.7740405936875	-9.414591059523437	0.6197878238281251
O	5.2859595636875	-7.9588778695234375	-2.8101747161718746
O	8.4634845436875	-8.718742659523437	-4.651520416171875
O	6.069378863687501	-10.482295929523437	-7.084335426171875
O	7.0292322736875	-6.265914299523438	-8.777658016171875
O	3.4616930336875	-6.393832979523437	-7.449995156171875
O	3.7993693736874996	-2.8530941595234376	-6.174647866171875
O	7.179124143687499	-3.389142549523438	-4.557244796171875
O	6.7652318636875	-4.492729999523437	-1.0026401791718749
O	9.3037839136875	-6.091786629523438	1.207627423828125
O	8.6272367336875	-4.763215089523437	4.700092503828125
O	11.591165413687499	-1.938736029523438	-0.010742812171875005
O	8.431863073687499	0.18397797047656234	-0.038922415171875
O	7.008540163687499	1.1830922534765622	-3.446469586171875
O	3.1873371236874997	1.3202758364765623	-3.214311566171875
O	0.2915979636874997	1.9578529804765625	-5.568772136171875
O	-0.09262024031250027	5.603659240476563	-6.715283686171875
O	-3.5711586763125003	5.4367167204765625	-8.176375586171876
O	-2.0403318763125	5.7997812404765625	-11.644784706171876
O	0.7898941036874998	8.240781540476561	-10.770252166171876
O	-0.2966749973125003	-4.990058129523438	-16.736838106171874
O	5.989601223687499	3.8995535204765623	11.586198493828125
