37

O	81.17880011053659	6.0159575452005605	-7.09509451678652
O	83.83217459988757	10.949249812255328	-7.4192906875986715
O	80.82357324326613	8.722490902095837	-8.457915744545932
O	82.39468496662808	5.58821889767357	-6.993409662028192
O	80.51537836930103	5.052990114674106	-6.572157343192497
O	83.25127798795008	6.191337135616387	-7.86901926953886
O	82.40166855670525	4.528884959000832	-6.211040667554694
O	82.53256321603746	7.073854173793768	-8.665044482737503
O	80.41412807464067	3.433337643578673	-5.4350174215057985
O	81.2676473756242	7.503269351722252	-8.522249360796675
O	83.84754577036863	8.076339551861414	-5.666593794553451
O	80.40633106952515	6.702133247533492	-8.023165716878852
O	82.11516699960067	8.329615460881957	-5.70754184257571
O	81.99096236880585	9.485315470611233	-8.875854058457096
O	81.75882391810526	10.739799825490216	-8.512087100317398
O	82.89516197990761	11.516054649966552	-8.242145670791103
O	83.96713496109311	9.606861598951378	-7.304121787146505
O	83.3137391779337	9.070373845949609	-8.430758176524126
O	83.21392746876474	8.810506422650828	-6.225360083930885
O	81.25141766571772	4.580729330461136	-5.628974399365744
O	83.36003332587042	4.36249948667923	-5.160400220946932
O	79.20710439548272	4.178941157029263	-5.540507906897039
O	78.80842697597964	5.059059822319784	-6.499482526406841
O	77.66486923389893	5.734269263592084	-6.298507763750069
O	77.04725474004725	5.5260321884513806	-5.1667884476996235
O	77.78095653656837	4.873748921450239	-4.325141363636975
O	79.17666476067006	4.812886743838278	-4.433260723625503
O	83.06702463702688	7.194043249066089	-4.642891110653242
O	81.60712614405813	7.306499413981443	-4.983181133284736
O	75.80012894741176	5.249225210454326	-4.480158449743549
O	80.29321583547004	7.443336429398427	-4.806428521224494
O	75.78473672979683	5.6770966284002835	-3.248513363372506
O	74.85262711145879	5.878364371368484	-5.08558956204973
O	75.56167915928874	3.9534526999762174	-4.819592894666018
O	79.17826098857779	7.606370369114873	-5.444726162202302
O	80.12437519484305	6.403103604828986	-3.8226037865777047
O	79.11266648664176	7.521107833705681	-4.119203779467469
