31

O	81.03765580105753	6.226103766727024	-7.341275949919216
O	80.79133180964506	5.992752322025263	-6.062002899053528
O	79.64600555238596	5.6770826040369755	-5.545366389013465
O	78.56240211276116	5.769131271499843	-6.44088438411106
O	78.81450656632092	5.653317942982663	-7.824530791831562
O	80.13987703961159	5.498038580212301	-8.116743329243842
O	80.0788481720523	4.432729319750993	-4.813128842516633
O	81.87413244125145	7.267843348638055	-7.605457763356429
O	83.21128783980632	7.385039868417961	-7.2703466005028385
O	83.63979014546844	8.282741404886966	-8.199637093453823
O	85.06103429804459	8.282641745866316	-8.420446260021453
O	85.93093531821945	8.333308331069604	-7.298868863077795
O	85.14230387234007	8.009119054088055	-6.192866945810967
O	84.15895762378679	6.998995197824428	-6.41734234911912
O	82.82051855945	9.509527109541375	-8.391924633539368
O	82.1217442083	9.888844375104538	-7.330304702896224
O	81.9528348292225	11.277297220451995	-7.193303394645934
O	82.24457942373239	12.118668929681288	-8.16656634200326
O	83.34845292309387	11.863703750028922	-8.861547550770608
O	83.58557537609158	10.518707712767359	-8.950436097198494
O	84.51787268763097	12.497941471885477	-9.175841385145006
O	85.42728774124919	11.474180876337662	-8.984142334667432
O	84.79790887030717	10.481682877193817	-9.604233995065965
O	78.69187524068448	3.535278182495184	-5.079201066627268
O	78.15359761029504	3.4059223996960846	-6.408835161970762
O	77.51071665051757	4.576505791728234	-4.343410760848627
O	79.07969527283154	2.282038187800672	-4.57550462219468
O	78.07050679456783	5.501816973783605	-3.639960338800035
O	76.9164052197499	3.5088130411436573	-3.53169886240639
O	80.49651383610981	5.591010828414676	-9.39568418481948
O	81.83379646838479	6.269026430999105	-5.207287653558561
