35

O	82.91671233642735	9.246036720614565	-8.194873949697971
O	81.93841593813673	7.345144613110561	-7.046010300896199
O	82.85128621152195	7.935124161730096	-7.773374051504705
O	81.08696677409594	8.346956179225053	-6.877088414320278
O	81.75696037162977	9.812434777147843	-8.485021616833572
O	80.71214798606594	9.317013319282243	-7.801388628784573
O	84.08493175730034	9.92197376458219	-8.56059958854614
O	81.70581080840397	6.025953167700813	-6.3913504752152335
O	82.17969983843635	4.738305278572876	-5.21199329140119
O	81.17510366001504	4.301835318956934	-4.054505992051589
O	80.64942319752551	5.096648091605313	-4.85438125929231
O	80.47615562589043	5.2969302297700125	-6.157756823814482
O	81.1900115316773	3.305632386634513	-3.0409163848047633
O	80.61949771917932	1.826059724410562	-2.9854693218024737
O	81.98732855138219	2.2208131093900514	-3.6137371749595135
O	79.90997306073939	3.2261023409351837	-2.1812646553339743
O	79.17432770666949	5.361048229018701	-6.700148573041489
O	77.82881927933838	4.37106494968728	-5.015988439852974
O	78.32623685513735	5.462105755211954	-5.52654434256588
O	76.94220565533426	4.0137153719634835	-6.045967289674182
O	78.55272913621306	4.337855879940408	-7.443670444166992
O	77.68019265585384	3.318274395101401	-6.936225443949375
O	78.40008412641593	3.9181570315849252	-3.8479401664913855
O	78.71390193177253	2.6735553495544893	-4.74341548817522
O	77.14096541821168	2.356832290157069	-4.388469873387786
O	74.77918006798092	2.8526719705578594	-4.624669501191525
O	75.97075979698378	3.038096490320856	-4.0276413186297155
O	74.70903803065747	1.7656690145229628	-5.448864718337873
O	76.77198664829622	1.1233127178793305	-4.653639025358032
O	75.80764384584114	1.0168082678631682	-5.544367368733266
O	79.67585030148534	2.245826315692222	-5.623598047972178
O	79.67527715796737	2.2455932197164548	-5.625449922247125
O	78.74814688652057	6.425129977389751	-4.680328024062198
O	77.95738396464272	0.559624430943674	-4.923686091418434
O	76.21672121415926	3.8908885801532125	-3.0866049867943506
