99

O	-5.098374864235293	-0.060493614477941327	-3.2261565433970585
O	-5.537013014235294	-1.1585554474779416	-3.9911449533970584
O	-5.584968174235293	-2.5451138974779415	-3.6710057333970587
O	-4.687457684235293	-3.103705727477941	-2.621164253397059
O	-4.675391204235293	-1.9901088074779412	-1.9543157633970587
O	-4.605654534235294	-0.6410697074779413	-1.9828930133970588
O	-3.575381214235293	-0.27100410747794135	-1.106118576397059
O	-2.394989244235293	-1.0751617274779415	-0.7179307813970588
O	-2.618389564235293	-1.9200095774779413	-1.7902166933970587
O	-3.4387019842352933	-1.8516182774779413	-2.875097593397059
O	-2.8751202242352933	-3.160898257477941	-1.0377163343970588
O	-1.136474018235293	-0.6351237174779413	-0.5805422721970588
O	-6.9897038642352936	-2.7491757574779414	-3.525481563397059
O	-7.485799344235293	-4.090081207477941	-3.6421832133970584
O	-0.023479637235293116	-1.0642015474779414	0.4063930496029412
O	1.4073164257647068	-0.9171317274779415	0.6446453266029413
O	2.090538205764707	0.3669578555220586	0.9521246666029413
O	1.122677045764707	1.2138319005220586	0.4470732076029412
O	0.059549970764706917	0.5292585325220587	-0.12404600239705876
O	0.703046335764707	0.2142344185220586	-1.5483869533970587
O	1.8772246157647068	-1.1810712274779416	1.9669324466029414
O	0.7730095657647069	-1.1042734374779415	2.663756956602941
O	1.004337145764707	0.19042706552205868	2.8335140066029414
O	-0.4418914652352931	0.6381043835220586	2.4438972266029415
O	0.5582013657647069	1.7082859735220586	3.3470662566029414
O	1.615686595764707	1.9183821025220587	4.132606066602942
O	2.477904325764707	3.0410707125220586	3.692890676602941
O	-0.36366488923529305	-1.456439287477941	2.149347136602941
O	1.4555724157647068	2.494705642522059	5.601079286602942
O	2.626669805764707	1.0732833115220586	4.733617696602941
O	3.1888610157647066	0.5266518395220586	1.6392732766029414
O	-3.2223889942352932	-4.830373817477941	-12.22924530339706
O	-5.371593684235293	-5.627946277477942	-9.210342773397059
O	-3.197188234235293	-8.192105757477941	-7.564715853397058
O	-0.36056233823529305	-8.904745387477941	-5.187480393397059
O	1.217492865764707	-7.581326107477941	-2.0911232133970588
O	4.295947835764707	-8.178261357477941	-0.0658547263970588
O	7.294794995764708	-8.041333157477942	-2.391473703397059
O	5.391154035764707	-6.8909322574779415	-5.492080013397058
O	2.404045965764707	-6.198326347477941	-7.737239073397059
O	-0.48796822223529307	-3.8412257074779417	-6.896881813397059
O	-1.996639524235293	-1.602000177477941	-9.53300762339706
O	-4.822945424235293	0.7985340378220587	-9.53123132339706
O	-7.049350064235293	7.540365042522058	-8.24809614339706
O	-4.185195794235293	5.8766932925220585	-6.404255083397058
O	-3.045795904235293	2.3631649725220587	-5.542474293397059
O	0.5402602957647069	1.7138482395220587	-6.7235318133970585
O	2.739552575764707	-1.238037827477941	-5.462803713397059
O	5.660287855764707	-2.0242123474779414	-7.607460133397058
O	8.558270325764708	-4.027702797477941	-6.141061233397059
O	11.228161335764707	-0.9283957074779413	-0.4158957133970588
O	11.963217035764707	-0.19112812047794137	4.938924846602942
O	8.408401075764708	0.11364872852205865	3.8492667266029414
O	8.643612865764707	3.7771924025220587	2.6064807566029415
O	10.252045135764707	4.4361229825220585	5.8666446966029415
O	7.483973815764708	3.0667726125220587	8.01373757660294
O	4.824997115764706	4.853800892522059	5.9109392566029415
O	1.746016155764707	7.537182182522058	9.74180479660294
O	-4.506094654235293	8.703464712522058	10.724947396602941
O	-7.943780864235293	7.862389452522058	9.10535561660294
O	-7.6292719942352925	4.143491742522058	9.79293809660294
O	-4.280095024235293	3.8266434725220586	8.28167056660294
O	-4.517331814235293	3.819727442522059	4.383518976602941
O	-2.908158724235293	7.2226196625220584	3.2494416066029412
O	0.7251396357647069	7.361959372522059	1.7918803466029412
O	1.0984116157647068	9.797214832522059	-0.9778735553970588
O	4.634494585764706	9.273499512522058	-2.342207263397059
O	7.243065325764707	6.9397866325220585	-3.890644523397059
O	8.997605725764707	6.428389652522059	-7.231029553397058
O	12.379645035764707	4.780641062522059	-7.953162183397058
O	10.720896535764707	1.0286039525220585	-10.97894480339706
O	10.541187635764707	0.8420172817220586	-7.195309663397058
O	7.007661415764707	2.0154975825220585	-6.5635396833970585
O	4.975440285764707	3.117125992522059	-3.674042523397059
O	1.803998275764707	5.329047772522059	-4.088212873397059
O	-1.283156224235293	5.779242542522058	-1.8117403833970587
O	-4.911628154235293	6.802311382522059	-1.7534496033970588
O	-7.131636354235294	4.363765542522058	-3.687317523397059
O	-9.707688874235293	2.4392200325220585	-1.7518130233970588
O	-12.195494964235293	-3.9395078874779417	-1.1251859083970588
O	-10.332652234235292	-5.821711817477941	1.4862351466029413
O	-12.375914664235292	-7.153069137477941	4.417530546602942
O	0.9002104057647069	-9.390485757477942	8.860540266602941
O	-5.169334554235293	-10.198901857477942	8.360937556602941
O	-8.423974984235294	-9.350155857477942	6.636566216602941
O	-6.661075104235293	-9.049868987477943	3.2168518466029417
O	-4.9183199942352935	-6.027710087477941	4.538573426602942
O	-7.954871814235293	-4.271724787477941	5.841399226602942
O	-9.529468964235292	-2.166682897477941	3.1333194366029415
O	-11.432667264235292	0.9592840855220586	7.581972126602941
O	-7.935785644235294	1.6182294935220587	6.309574426602942
O	-5.225676034235294	-0.8035150074779415	7.536067656602941
O	-2.962195554235293	-1.6419358674779412	4.8521865066029415
O	0.5046501357647069	-3.8671611074779415	3.7546432566029413
O	3.8511855857647066	-2.7576928174779414	5.635077676602942
O	6.445100875764707	-4.561108127477941	3.515461936602941
O	6.830011245764707	-6.784113687477941	6.547581006602941
O	6.449799935764707	-4.1219352974779415	9.33935982660294
O	-4.084832904235293	13.673835542522058	-0.32070234239705875
