80

O	-4.233903241321428	1.940303517732143	-1.3521667627321432
O	-2.709014791321428	1.7450039317321429	-0.4561963647321432
O	-1.9215420613214282	2.844187767732143	-0.5361126517321432
O	-0.5736956203214283	2.868715557732143	-0.3893726197321432
O	0.12929926267857172	1.7498461277321429	-0.07990533693214316
O	-0.5308209723214283	0.6472841637321429	-0.6516234417321431
O	-1.9637420513214283	0.6206004477321428	-0.6439318817321431
O	1.4113625186785719	2.0050019177321428	0.5604582412678568
O	2.876800878678572	-0.4304962822678572	4.585462637267857
O	2.572768098678572	-1.699386082267857	4.248565977267857
O	2.132306198678572	-1.836502562267857	2.967251817267857
O	2.232277238678572	-0.7551933022678571	2.070385887267857
O	1.7910482986785718	0.42440681673214287	2.529012327267857
O	2.8251862086785717	0.5982731087321429	3.635621297267857
O	3.034263568678572	-0.34947655226785723	1.098089547267857
O	3.3819897286785716	0.9793531272321429	0.993959677267857
O	2.1257984186785714	1.297673371732143	1.4228927272678569
O	4.808985348678571	1.267285772732143	1.280542607267857
O	5.377966628678571	2.005025207732143	2.3064367272678568
O	6.636322618678571	2.538792557732143	2.189669517267857
O	7.482034448678571	1.5622420547321427	1.693968627267857
O	6.948770648678572	0.3134940027321429	1.869348497267857
O	5.576970678678571	0.2711829827321429	2.0195365672678567
O	-2.768147151321428	-0.464000232267857	-0.9539846927321431
O	2.9696670486785717	8.983509807732144	7.6797640972678565
O	5.014869138678572	6.533292857732143	5.730698847267857
O	5.152750848678571	8.281906947732143	2.278735697267857
O	3.4842043386785715	8.844353217732143	-1.1380840827321432
O	1.0739386186785718	7.277928657732144	-3.599303792732143
O	-0.6769469463214283	8.534065117732142	-6.697357682732143
O	-1.8559978513214284	11.585092437732143	-2.1030756027321433
O	-0.12103498132142831	10.655574767732142	1.1533997372678568
O	0.13259541367857175	7.178614707732144	2.6833958572678567
O	-0.3218576043214283	6.4114943977321435	6.361788957267857
O	-0.2388856533214283	3.3306874577321426	8.510573647267856
O	-3.551494751321428	3.126084097732143	10.292506447267856
O	-9.484973051321427	-0.0059876552678571615	11.201842447267856
O	-6.781888981321429	-4.114508272267857	12.542878447267857
O	-3.8258258413214286	-2.641620722267857	10.705605447267857
O	-4.5740138213214285	-0.8755302922678571	7.422008957267857
O	-2.8130704813214287	1.325495865732143	4.916965857267857
O	-4.635154681321429	4.586761337732143	4.298060887267857
O	-4.019654831321429	6.931175237732143	1.348888097267857
O	-5.378125471321429	10.401843687732143	1.699411927267857
O	-9.660647851321428	4.484530117732143	-7.966893622732143
O	-4.570514391321428	-12.582061162267857	-3.444677402732143
O	-2.145110311321428	-10.704024262267858	-5.652110472732143
O	-4.034963711321429	-7.457385342267857	-5.663673542732143
O	-3.6232145413214285	-5.462823492267857	-2.478852112732143
O	-6.945880471321429	-5.742502452267857	-0.7233170997321431
O	-9.276498471321428	8.433537847732143	1.989128747267857
O	-8.766444941321428	4.9522962877321435	0.6525412482678569
O	-8.203406191321427	2.007189437732143	3.0266902572678567
O	-6.507505651321429	-1.2939434522678575	2.173294987267857
O	-5.016187191321428	-4.2326282422678565	4.010693247267857
O	-1.7048595713214283	-3.507185602267857	5.6605201572678565
O	1.3516142686785717	-5.380528012267857	4.250670627267857
O	4.235734818678571	-5.906489522267857	6.657749597267856
O	7.389464568678572	-5.865497822267857	4.645775407267857
O	7.944412638678572	-3.5442973022678577	1.906688887267857
O	7.803571408678571	-2.8507284822678574	-1.826389242732143
O	9.825670228678572	-4.926541672267857	-4.146859252732143
O	11.608107828678571	-1.5984017322678574	-4.826143782732143
O	12.617249728678573	-1.0869984522678573	-1.1817842927321431
O	14.009749228678572	-4.6287024622678565	-0.8798910857321431
O	8.511664588678572	-2.3123611122678573	-8.224962462732144
O	7.327012378678572	0.4699143817321429	-5.938478192732143
O	3.782942588678572	-0.749069272267857	-6.3274671927321435
O	4.561952558678572	-4.377987412267856	-5.675625782732143
O	4.380314668678571	-5.256281362267857	-2.044195242732143
O	5.795653688678572	-8.299507192267857	-0.3767995307321431
O	3.2592419886785713	-9.110999262267857	2.338496277267857
O	2.9025508386785717	-10.378147362267857	-3.770816642732143
O	0.16522483367857166	-7.783310022267857	-3.6543881627321433
O	0.029024754678571685	-5.263691952267857	-6.5175282127321434
O	-1.0398499533214283	-1.8667789022678574	-5.2001748027321435
O	-1.8954495913214282	1.7504207457321428	-6.174975172732143
O	-4.7518783413214285	2.099564827732143	-8.638225872732145
O	-4.9792298613214285	5.864392007732143	-8.799527402732144
O	-3.928617021321428	5.756794007732143	-12.467197052732145
