34

O	82.59239497426374	8.062369257267731	-8.316228978132758
O	82.0911368531923	9.216198667845799	-8.939364315507207
O	80.77035142831946	9.453919096552891	-8.78757531567539
O	80.06187877563502	8.58912179924724	-7.958381949326527
O	80.75605665980214	7.7427516880687275	-7.102396114770209
O	81.89453739196102	7.216208889104022	-7.496849486601922
O	83.95139890332399	8.079312301122663	-8.3301786873015
O	84.725843519104	9.133149037552482	-8.743024390476048
O	84.0584093391917	10.194030984043092	-8.340964731876483
O	82.82442462978527	10.36470373398611	-8.789062566425455
O	84.4504000714843	7.131750502261665	-7.581510453336638
O	79.6371219136618	7.260789881889593	-6.35596550797528
O	79.37458520157902	6.1565179047993475	-7.073005040885471
O	78.21625161144287	5.631477341254459	-7.389684626897768
O	78.35981325645916	4.319532474438682	-7.674565987211091
O	79.48150374493036	3.7079232672825917	-7.119780982427088
O	80.72857900886177	4.1770116488894695	-6.714636706072335
O	80.52322618871575	5.462742270475129	-6.646686087822181
O	77.3241939137681	6.571944906257073	-8.08970287819804
O	80.87855641841662	3.5160649969801394	-5.418648781143027
O	80.22076966813461	4.085773936108343	-4.387998781187872
O	78.94075822374114	3.4123341948115087	-4.219646236535574
O	80.43289862560913	5.315161515779668	-4.454614646879538
O	77.96349184559838	4.406444657122441	-4.331211395589225
O	76.78572444954943	4.038933957164861	-4.826979037716143
O	76.68493133877683	2.792201206210457	-5.444388089207159
O	77.66962376521087	1.8561416853567199	-5.567037108713153
O	78.67505624777259	2.0668166447811247	-4.613578808632856
O	75.65101432028045	4.265716598580335	-3.861009561826279
O	75.40668983190595	3.0610127038123576	-3.1379386356041974
O	74.49729007972925	4.300119960731995	-4.772382369173767
O	75.44313627812836	5.2662222245483346	-2.907526396382648
O	86.07146723119764	9.098497454575858	-8.11464158296414
O	75.7381389554591	1.895362268462045	-3.1405949178972974
