106

O	2.307512035597015	2.647901210537313	4.263309477189552
O	1.1577861355970152	2.005867730537313	4.866279367189553
O	0.30355214559701515	3.005023950537313	4.802339567189552
O	-0.10639518240298496	2.968092430537313	3.434784087189552
O	0.8955111055970151	2.962048630537313	2.604992457189552
O	2.159399235597015	3.194950480537313	2.989223577189552
O	0.4079931155970151	3.962802900537313	5.827694027189553
O	-0.668075803402985	4.8389977005373135	5.954914967189553
O	-1.482313164402985	4.575017230537314	4.803060187189552
O	-1.357721237402985	3.690920120537313	3.534717597189552
O	0.7630846655970152	2.500301660537313	1.2979151771895523
O	1.301010745597015	1.529532444537313	0.6139858201895523
O	1.9054345355970153	0.7026154585373131	-0.0689655448104477
O	2.012735155597015	-0.5255622294626868	0.4177668771895523
O	1.432570505597015	-0.9712621394626869	1.5109280671895524
O	0.18669554559701496	-0.5266789394626868	1.3893471071895525
O	0.4192679955970151	0.8640978506373131	1.3489667071895524
O	1.664600355597015	-0.31305447946268694	2.815287877189552
O	0.328913495597015	0.14015838253731316	3.3356943671895523
O	-1.1028562239029849	0.28511334953731315	3.204701307189552
O	-0.704913836402985	-0.8124106594626869	2.371495647189552
O	-1.7502677574029848	0.8107537985373131	1.9276254471895524
O	-2.689353204402985	0.031206757537313168	1.7155403671895524
O	-1.427062117402985	1.0816331115373132	0.5927690631895524
O	-1.1435049134029849	0.4895841145373131	-0.7023641928104476
O	-0.232595820402985	0.17572876753731315	-1.7290738328104476
O	0.4682734655970151	-0.9392137594626869	-1.8915025728104478
O	-0.06724400140298492	-1.919698229462687	-1.1706060728104477
O	-1.437221088402985	-1.707122459462687	-1.0506379428104478
O	-1.623518689402985	-0.6771579294626869	-0.22907030781044768
O	-0.229959554402985	5.947179520537313	6.400847367189552
O	-2.203184664402985	-2.895219119462687	-0.6365666338104476
O	-1.802653265402985	-3.8044491294626868	-1.5116061128104477
O	1.568776675597015	-1.4811867394626872	-2.6326421928104478
O	-3.379342014402985	-2.476783249462687	0.10749475808955229
O	-1.351223076402985	-3.1953651594626873	0.5642933831895522
O	2.565050285597015	-0.6591104794626869	-2.656058332810448
O	0.9809136255970152	-1.2864320794626871	-3.794404902810448
O	2.079175765597015	-2.583100199462687	-2.081993982810448
O	-0.8093312114029849	1.631353877537313	12.932826497189552
O	-3.060236624402985	-1.152847809462687	11.713727797189552
O	-3.966271324402985	-3.610510069462687	8.989456777189552
O	-3.972107344402985	-3.909465799462687	5.2900034471895525
O	-4.612076274402985	-6.766139099462687	2.756480397189552
O	-2.318377534402985	-9.697779589462685	3.563400607189552
O	-0.4410154524029849	-8.056574889462686	6.459032787189552
O	0.33711635559701514	-5.418672869462687	9.138623617189552
O	0.9527766255970151	-1.6608270994626868	8.530600867189552
O	3.6577888455970147	0.26743135853731315	10.301513797189552
O	4.792691145597015	3.837121120537313	10.271306697189551
O	7.145879085597016	5.960355900537313	5.044635107189553
O	4.577788375597015	3.549768680537313	5.615720727189553
O	5.476540125597015	-0.09557943946268688	5.482678127189552
O	3.159248325597015	-3.0463996094626866	4.978048647189553
O	4.612377265597015	-6.413958889462687	6.069640557189553
O	3.157281825597015	-9.571416389462685	4.602343947189553
O	3.540355175597015	-9.581296689462686	-2.487551102810448
O	4.916098105597015	-10.172950189462686	-5.950281252810448
O	1.638864165597015	-9.197402589462687	-7.611596672810448
O	1.3339341355970151	-6.065566629462687	-5.705563532810447
O	4.985022885597015	-4.868599199462687	-6.266311672810447
O	4.296425135597015	-5.523973139462687	-9.798807182810448
O	1.230726225597015	-3.327056229462687	-10.091200002810448
O	2.739672705597015	-0.482331639462687	-8.107116042810448
O	1.9928534255970152	3.784562330537313	-11.158594102810449
O	0.5232558155970151	9.860285430537314	-10.342069102810449
O	-3.5964580144029847	10.402744530537314	-6.730476902810447
O	-1.975387155402985	7.041989210537313	-6.386572422810447
O	-0.1738574634029849	6.561964470537313	-2.948827672810448
O	3.499458015597015	6.678030620537313	-3.912523372810448
O	5.607599985597015	3.566904070537313	-4.124825952810448
O	9.016619295597014	3.869292880537313	-2.786043692810448
O	10.498923295597017	0.35802950953731316	-2.6711358428104477
O	10.289453695597015	-3.2172362494626867	-1.3277115628104477
O	12.129905795597015	-5.509405929462687	1.0651138221895522
O	12.265693095597015	-9.330775789462686	1.1767005271895523
O	8.156753815597014	-9.337606589462686	2.773009807189552
O	7.628835015597015	-5.628504799462687	2.973657627189552
O	6.362328425597015	-2.916256409462687	0.8219292041895523
O	7.317420505597014	0.7858445095373131	1.4018599771895524
O	5.251848445597015	3.822789680537313	0.3019630611895523
O	4.984074805597015	7.4180632805373135	1.1303592031895522
O	3.566376895597015	8.224420120537314	4.506442457189553
O	0.30984136559701514	10.005765170537314	4.438105597189552
O	-6.148044044402985	9.680962590537314	7.468007657189553
O	-8.314760894402985	7.474706490537313	5.325217117189553
O	-11.490050404402986	8.973035040537313	3.950899167189552
O	-8.354116104402985	-2.147490079462687	-8.041258392810448
O	-11.228511004402986	-3.114442599462687	-3.309163862810448
O	-11.889555604402986	0.6508533685373131	-3.663643122810448
O	-13.533944504402985	1.747850333537313	-0.4451798318104477
O	-12.983591804402984	4.7292802805373135	1.7522825171895524
O	-10.367806914402983	2.9065151705373133	3.908941357189552
O	-8.053337114402986	2.880263070537313	0.9431076731895522
O	-8.431703054402984	6.493022780537313	0.1106979164895523
O	-5.917688984402985	8.503136580537314	2.076808187189552
O	-3.935750524402985	9.126476080537314	-2.6602533828104478
O	-5.603716304402985	5.808035990537313	-3.6059363628104477
O	-3.788877954402985	3.107435480537313	-1.7152236628104476
O	-4.2526140644029855	-0.6938103394626868	-1.5121715628104477
O	-3.332322084402985	-2.9520579994626868	-4.701576342810448
O	-2.868349264402985	-6.552926559462687	-2.826670502810448
O	-6.098816414402985	-7.4519643494626875	-4.5947745328104475
O	-5.453640604402985	-5.424069999462687	-7.863688772810447
O	-5.102284154402985	-7.037009419462687	-11.344489902810448
O	10.122771995597017	10.224614960537314	-3.1739049528104477
