39

O	79.29183245645396	4.707135194366997	-7.59822510201732
O	78.20148049242412	5.463450625812641	-7.761242864251402
O	78.40436833075042	6.849441584064714	-7.876200098822731
O	79.6776591450509	7.189928919507048	-7.435837440034533
O	80.83050665577295	7.178885755642202	-8.302596515806984
O	81.69325509567922	7.993128697999698	-7.728522962122257
O	81.34590176972887	9.016322752338924	-6.934393585705286
O	81.72921920654998	10.32083486162422	-7.499711774574246
O	82.83745947371897	10.418017040253789	-8.297409771646286
O	83.64774715784041	11.46551100572903	-8.373313680367012
O	84.77913048359954	11.183503330433613	-7.822236900886741
O	86.01758117873358	10.92322685985379	-7.257415750689029
O	86.85678474942851	11.90897456396257	-8.076122390810061
O	86.6332701182426	11.801062835162208	-9.363958251245439
O	88.33442835311348	11.606831117644626	-7.875634794371116
O	88.59043847788817	10.222854705067377	-8.233888015303465
O	88.6558541892582	10.375103421983718	-6.880576256764115
O	85.03371556384683	9.618981386949766	-8.74817583324233
O	83.4401170804036	9.183490231725873	-8.529775707316617
O	82.95335330882482	7.976189657958842	-8.221062010137455
O	83.77062211329822	6.8456660260949596	-8.029198253163308
O	84.46553128892853	6.298452676031041	-7.312278003647165
O	79.78343020479626	6.7867309511545155	-6.28146012921649
O	80.09913241315401	5.406650537178283	-6.683880439547304
O	81.57527646421039	5.259891534934037	-6.596933762072841
O	81.58475973373747	5.535348061202873	-5.270625617769361
O	81.1719160830083	6.499684215339576	-4.607766845777284
O	80.96955495837861	4.365904882886581	-4.790190371200802
O	79.59202862596791	4.088114701285447	-4.507586131724038
O	79.24893800432962	2.76653949562169	-4.823001456580681
O	78.03244240460911	2.571136422442863	-5.362100570489885
O	77.15665247909124	3.5903643643621743	-5.262247033980062
O	77.50829747658875	4.7857672370482245	-4.782033065888596
O	78.64026410343753	5.068543927406566	-4.228517653853932
O	76.3510782136087	5.597089279328869	-4.518372149836173
O	79.82972675884325	3.5160311472807395	-7.705433520470015
O	75.22617666642122	4.912836904242114	-4.808850701763703
O	76.25157156221965	5.758934571565406	-3.2420712899591497
O	76.82146408894357	6.622641817829519	-5.1908040232513635
