33

O	76.42267200549578	4.698343586303325	-6.802731679414967
O	80.62763967915811	8.834081862034418	-6.497322052836087
O	80.52284352141605	10.311757909222337	-6.849408657291856
O	81.65325856094924	11.239391581352017	-7.301266848243271
O	81.92940397036755	8.727339215261729	-6.5332033773788005
O	82.9195036941104	9.326316533840078	-7.315064995451531
O	82.67723520832675	10.725150364588199	-7.83751850997124
O	79.67843987108643	7.650514425724776	-6.284758413475183
O	78.8036196503531	7.665814489234125	-7.194704426504708
O	77.82481437164557	6.793002630713023	-7.3501523807545865
O	77.43910454957894	5.985466295240208	-6.365268795749086
O	77.93341415963307	6.581063915571688	-5.33945617239562
O	79.05604651065563	7.260287319909234	-5.178345088020728
O	82.98203556626522	10.634190943894977	-9.168417177410946
O	83.75339746069206	9.530262556696254	-8.998474669431092
O	83.17218137378138	8.464288262105113	-8.267162628770315
O	82.8514425989579	7.080659610997939	-7.82627153691667
O	81.60988959506682	6.384025734611335	-7.302362640331568
O	83.85819412059637	6.547823398384486	-7.348419620642508
O	81.50455519457556	5.974136662965632	-6.027180854455935
O	80.77928753202424	4.884991300047409	-5.756468296421212
O	80.02776209777697	4.400682042602158	-6.739483167024782
O	80.11800232403164	4.797320958579053	-8.00800401832082
O	80.91463755101472	5.850543195174427	-8.315980321437491
O	80.45017800372655	4.74643673457679	-4.438203662911784
O	79.05988496782774	3.886905235366403	-4.401097900463501
O	78.74595677691765	3.13968659663346	-5.684876673314029
O	79.67309850038647	2.6095065367965065	-4.024784463876002
O	77.52239182755704	4.063540521190054	-3.8243252918618733
O	76.36036192836092	4.780114345014228	-3.8586710825135873
O	75.94545920380386	6.054854555966497	-3.3195188727396947
O	80.69736717498301	6.727685560860222	-9.310718377394423
O	82.62477124983432	6.04185226957169	-5.306766681790487
