26

O	81.9628001417017	10.516400075478328	-7.656839111412248
O	82.75216146597754	10.240639932630906	-8.701846061649686
O	83.8267361664799	9.415785155731154	-8.339085614415088
O	83.2703194800478	8.1972846120376	-7.8380786249851235
O	81.88447881798223	8.019571497684808	-7.378325871741646
O	81.79455892447842	9.441227991532516	-6.948630100768021
O	82.61696419308967	11.489974928959997	-9.258514156745651
O	81.34611456960594	7.192889451150535	-6.420535886939074
O	80.17265472140399	6.447808661708965	-6.705600053372317
O	81.05362072885774	5.606105966241491	-7.250130147088758
O	79.00634217660462	6.0546691218515605	-6.4338753382048495
O	77.78358774227716	6.232220055758069	-6.998454698450504
O	77.30505494683398	5.042305696648063	-7.417323809265536
O	77.58386245267234	4.076035058938653	-6.498230124944957
O	78.65320108541648	4.213975628604244	-5.628981404619822
O	79.13096518667335	5.438153573098367	-5.252394564581808
O	78.75155464988268	3.44203787537546	-4.576478160219631
O	77.09115115243378	3.5214304495026623	-4.287356794010503
O	76.97397224607319	3.652440829415959	-2.973708007101074
O	77.00867433258084	2.113066421733084	-4.842110976218873
O	75.84362368082662	4.368127844655786	-5.065262379950447
O	75.43658535724279	5.707178178429148	-4.747196622950467
O	75.2182980666874	5.808409895156042	-3.3231828412780637
O	85.45817352923245	10.276040318669091	-8.703634165868706
O	80.5155437233882	5.419523761506378	-4.973113710517795
O	77.83117079801579	7.45583646300687	-7.596937523542559
