32

O	81.78597735769834	7.027469428731756	-7.347521368901409
O	80.60377893673814	6.148629459028026	-7.166985998796704
O	82.41629910572007	6.9415884040069304	-6.226806626437018
O	79.74573667889308	6.778350005607959	-6.214342965955417
O	78.8135373546696	5.970682176239999	-5.854923960814896
O	78.13301237462956	5.41736914004648	-6.967654107313673
O	78.76538698627193	5.141736407519627	-8.119220943970237
O	79.9256929393734	5.8138679146391805	-8.295035865652157
O	79.50105398977159	5.240878139299079	-4.746762618741572
O	81.14598866211207	8.177967119201407	-7.789306137865469
O	82.05299622904836	9.123413476128057	-7.2826499557656
O	83.06461388438959	9.143692537497081	-8.127323693724657
O	83.77643222610973	10.280363896079885	-8.367639146961292
O	83.16519808801755	11.500936727353611	-8.185887204946901
O	82.13133045306574	11.371706857639378	-7.306578448525601
O	81.46016294210085	10.234967072590102	-6.97099443591853
O	85.16081818194074	10.395393673722694	-8.211863047103407
O	85.37961478429688	11.654050200571369	-8.557357685820964
O	84.22410262723862	12.315098669657221	-8.428605152864673
O	85.86965789821355	9.306942984702271	-7.7740121913771985
O	85.20343360486127	8.123428866717372	-7.27797762337245
O	78.48110951637628	4.081129886806584	-4.77516099974078
O	77.05409154897934	4.988000623503936	-4.4135897846601075
O	76.19979760535038	4.038562118902942	-4.585273876111459
O	74.82644036137802	4.2596774581381975	-4.6467492350086275
O	74.79250235227384	5.061299817074987	-5.796996670099869
O	75.42593433976958	6.207155901831761	-5.296189570098724
O	76.72771600217214	6.172647042887164	-4.91697586584372
O	78.23902592778832	3.367076419432542	-6.113722522340925
O	78.76804932693383	2.8871119313220914	-4.3001828873378285
O	80.24313960750654	7.721566628594606	-5.429852208146512
O	80.59825136888657	6.080362275530001	-9.397235617912836
