28

O	77.54372991950088	6.2999952323501365	-6.240700180342966
O	87.47882663172254	9.55276208894213	-8.381788181941548
O	82.23820918520518	7.594665777454854	-5.809364039728952
O	81.65756872766357	4.394247642857346	-7.6128561364736305
O	82.69785188674071	5.331943365023406	-7.896681776685041
O	81.03746923679552	4.222936675688047	-6.426205083911939
O	81.3042126252605	9.58699332650043	-7.373505675744528
O	82.3634034697462	10.508008855900663	-7.1885113303622585
O	85.84003561880021	10.110579200036206	-6.905603235876394
O	82.9176873830282	8.567844419363858	-8.650242994705554
O	76.43754490591513	5.821662938140374	-5.415485950128632
O	77.0826273412333	4.816095626052472	-4.601423317142611
O	81.76004847498751	8.487707164143371	-7.924381733095178
O	81.49875282856988	6.5613613761168414	-6.493842036498849
O	82.65555577798919	6.6334869786266895	-7.347934110318266
O	80.88577632260348	5.425931593604107	-5.818449513795522
O	85.18512688965708	9.048231766565808	-8.652167114283472
O	83.6354017297693	10.466134940906095	-7.636333629766716
O	83.88822006299452	9.359609139328732	-8.365348942670071
O	83.34569581059252	7.822479423571529	-5.619434877854857
O	84.60337309850064	10.548817784862624	-6.722489792875268
O	81.48401543538486	7.226017062397714	-8.173531610631773
O	79.83352144554365	5.660537980427651	-5.104535183333344
O	85.37797785170582	7.765664243496346	-8.590121595063373
O	79.13908846423632	3.1988532109571697	-4.24315934473439
O	78.37290072121368	3.667831486399517	-6.162079798210085
O	86.09299784751701	10.012720623556525	-8.279433566217495
O	78.67768903673415	4.4349910263201915	-4.924190880753793
