98

O	2.229917972767693	3.9825299229846154	0.42859040046153823
O	-0.546742715232307	-1.2761664270153845	-0.46752091353846176
O	-1.2804925162323069	-1.1391514670153844	-1.628032513538462
O	-1.621211022232307	-2.2584077770153845	-2.6939434535384614
O	-0.399254216232307	-2.7857339970153845	-0.38468858553846175
O	0.29181305776769295	-2.739757707015384	-1.753189253538462
O	-0.713904924432307	-3.1418085270153844	-2.8395819735384618
O	0.23237737776769296	-0.12799825701538436	0.13950694646153824
O	-0.29780402123230704	0.8840433482846156	0.8685722484615382
O	0.07605071776769301	2.153389592984616	0.8318418894615383
O	1.164327282767693	2.644214452984616	0.3515014354615382
O	1.3651958727676932	1.8062607689846155	-0.6098978145384618
O	0.7762226327676931	0.6160701249846156	-0.7383355335384617
O	-0.31050379123230704	-4.4061179270153845	-2.8860968535384615
O	0.256056439767693	-4.707122097015384	-1.688308733538462
O	0.9433313027676931	-3.5468582570153844	-1.0686386435384618
O	1.277150332767693	-3.180876067015384	0.3672827944615382
O	1.676043382767693	-1.8554220970153843	0.9584010864615382
O	1.4808977327676929	-4.142688197015384	1.109611526461538
O	1.082664232767693	-1.2861928770153843	2.0092353464615385
O	1.7850352227676929	-0.4301887070153845	2.7666674664615383
O	2.739967652767693	0.24723758898461556	2.0275902464615383
O	3.3955247627676926	-0.3745988570153844	1.051743696461538
O	2.860902002767693	-1.4717360870153844	0.43895873546153824
O	0.936106852767693	0.3965183359846156	3.4795932664615385
O	1.6541461327676932	1.8731263779846157	3.640282196461538
O	2.959085892767693	2.095219502984616	2.9179673764615384
O	2.247154172767693	1.5864586339846156	4.944910276461538
O	1.103702212767693	3.387473152984615	3.532555906461538
O	0.656518392767693	4.318191592984616	2.6715360864615385
O	-0.589127031932307	4.788019902984615	2.0647495064615384
O	2.901094872767693	-1.6523078970153844	-0.8899306565384617
O	0.19333529176769304	-2.0415510170153848	2.6084484564615384
O	9.147811152767693	-8.937779187015384	-2.2271242535384617
O	5.420207182767693	-9.435660107015384	-1.6668591235384618
O	5.302353362767693	-9.214994207015383	2.1428313364615383
O	5.057974062767693	-7.047587237015384	5.281497096461538
O	3.598224292767693	-3.815365077015384	6.479138286461539
O	3.889562382767693	-1.7395709370153842	9.579499696461538
O	8.838861852767693	-2.6787510770153844	7.085333886461538
O	8.890398292767692	-4.837222457015384	3.9402702364615383
O	6.643542772767693	-4.410332497015384	0.8862604834615382
O	7.940012172767693	-4.768725267015384	-2.7085830435384617
O	6.244427812767693	-4.522219827015384	-6.1032973035384614
O	8.232089112767692	-1.8437896570153842	-7.989090273538461
O	6.284849872767693	5.999731002984616	-13.573473333538463
O	4.572489152767693	2.683448822984616	-13.877019633538463
O	3.8102013727676933	-0.02024918101538442	-11.311449533538463
O	4.130929312767693	1.0500659019846155	-7.725012243538462
O	4.145513192767693	-0.6263848170153845	-4.350282873538462
O	7.208153132767693	0.33084390198461555	-2.1722262535384615
O	7.281543692767693	-0.041147500015384475	1.7179904664615382
O	10.881967242767693	-0.05399577201538441	2.9746366964615385
O	3.464358492767693	8.070375502984616	7.994766536461539
O	4.607865562767693	10.237908542984616	5.103239676461539
O	-0.298484180232307	11.519174192984616	7.279104446461538
O	-0.261025730232307	10.225908072984616	3.7093217364615385
O	-9.317985237232307	10.219884002984616	-2.0244147535384616
O	-10.271296177232307	7.181058052984616	-4.202114773538462
O	-10.661892157232307	4.961032122984616	-1.166920253538462
O	-7.265813037232307	5.724094602984616	0.34627024546153823
O	-4.412584937232307	3.9781317829846152	-1.3742704035384619
O	-2.630846447232307	6.755769602984616	-3.3033682735384615
O	0.6319788027676929	8.129960292984615	-1.9481871535384618
O	9.093749882767693	8.875090082984615	-0.6096671925384618
O	12.822480342767692	8.007497962984615	-0.6947573785384618
O	10.935508542767693	4.030917242984615	1.4537917564615381
O	7.406095362767694	4.994344802984616	0.8178223234615383
O	5.921647292767693	4.677352122984615	-2.6880743335384616
O	2.1997303927676928	4.314382492984616	-3.6574288235384618
O	0.0008119877676929788	3.3396552129846153	-6.534841113538461
O	0.103459722767693	-0.4403100770153845	-7.269061693538462
O	-3.210664157232307	-2.3497177770153845	-6.705346853538462
O	-3.632421877232307	-5.414667967015384	-8.744325253538463
O	-5.755780987232307	-7.748028407015385	-6.846192213538462
O	-5.335257207232307	-8.251309057015384	-3.2683606335384616
O	-6.289770957232307	-7.434227797015383	0.27004041846153826
O	-9.851041757232307	-8.155416887015384	1.306300506461538
O	-8.142962867232306	-10.592041807015384	3.7137095264615385
O	-6.491340817232307	-12.571105507015384	0.9158284254615382
O	-9.104561477232307	-6.662808867015384	6.046043336461539
O	-5.381329317232307	-6.9718390570153845	5.407300156461538
O	-5.188171927232307	-3.2333457570153845	4.8607271764615385
O	-8.180508377232307	-3.073187667015384	2.5494854664615385
O	-7.151203437232307	-3.5884906570153845	-1.0264551235384618
O	-9.374564097232307	-4.379194277015384	-3.9242720435384615
O	-7.842247747232307	-2.493558857015384	-6.856300123538461
O	-11.473386357232307	-0.26278828701538437	-2.2857654435384616
O	-8.272907477232307	1.4442344429846155	-1.2573190135384618
O	-7.418080627232307	1.5625866709846155	2.4692740864615383
O	-3.663748377232307	1.2072684169846155	3.0290305264615385
O	-1.167416704232307	1.1625088709846156	5.967311446461538
O	-0.685890201132307	4.4023159329846155	7.891525706461539
O	2.445289072767693	3.555154762984616	9.813442866461537
O	0.30403380476769304	3.464549892984616	12.959580166461537
O	-2.093638247232307	6.359983732984616	12.136121366461538
O	-3.376988707232307	-7.800948657015384	15.264637866461538
O	-3.254309077232307	6.951533122984616	-11.300273233538462
