31

O	81.74653382159063	7.52077455802074	-5.45942488387783
O	81.64219900519683	9.098344897571145	-5.281967522034899
O	80.61387772312936	9.92127446763907	-5.814037939758027
O	79.6428772072827	8.984811624820708	-6.104773209948265
O	80.39676641401502	7.800166151513107	-6.203406304331962
O	81.80892065015654	7.997794194122326	-6.626949208767627
O	83.21902926498134	8.515607279597328	-6.952909213547581
O	83.43495681515357	9.920965437466295	-6.720026824967566
O	83.25036620529407	11.183038783838699	-7.555770538684178
O	82.3895959049648	10.869200111546292	-8.449775472413185
O	82.54189523609612	9.409507051257219	-8.656769068341092
O	83.81721128631001	8.804606249709005	-8.30202155524674
O	81.53726530342733	8.657609199246682	-8.565256374910103
O	80.6117521012598	9.688260836234331	-8.821587201390724
O	81.03475545695676	10.956071946479895	-8.768733620913803
O	81.52673548185535	7.168849776196409	-8.394739056214291
O	80.4360362320603	6.2499589015306025	-7.897876743345218
O	79.21820147636971	6.1426960830155135	-8.493919126581348
O	78.64534175152532	4.945632220021563	-8.363263801148898
O	78.92445089252172	4.204031855975609	-7.288193431358499
O	79.95567594399775	4.508219799265625	-6.456235016332146
O	80.80416014010234	5.389432737746011	-6.932468407409774
O	79.66479693640763	4.708033309023165	-5.167464946565833
O	77.86089721502913	4.561666951348551	-4.8915341739521425
O	77.29924926476225	3.713462641276041	-6.025919769354647
O	77.32963620460706	6.076492514366718	-5.338921670207954
O	78.44611857322232	3.550310499885085	-4.163714833043924
O	82.56452098066644	6.485786124918452	-8.657780037181233
O	75.92709723914513	6.320035370650037	-4.937917146178963
O	82.0972207694363	5.177255210828674	-6.692240952457097
O	78.65116669058915	7.350512854715618	-8.634816496556352
