96

O	2.7535430222562485	-2.7617267379781247	-3.79495117328125
O	1.8864638122562485	-1.782884237978125	-4.46430098328125
O	3.206016722256248	-1.139979987978125	-4.70273228328125
O	3.157207222256248	-0.39600559797812473	-3.5083876632812503
O	3.2424270722562487	-1.0688086379781248	-2.2352474232812503
O	3.3853139322562487	-2.504088707978125	-2.5286363832812504
O	2.1186777522562483	0.4453063160218752	-3.9032112032812503
O	1.6423418522562483	1.1347879590218752	-2.89371939328125
O	1.3234661322562484	0.5301137240218752	-1.6095228942812503
O	2.2139191522562487	-0.5682165479781249	-1.3168430712812502
O	1.6314695722562487	0.5142684120218751	-5.2373546232812505
O	0.8418622422562487	2.011292317021875	-3.5556086532812508
O	0.3841645222562484	1.2570519139218752	-1.1582959892812503
O	-0.6569147757437515	0.8297689810218751	-0.2858101512812503
O	-1.8620467337437514	1.8606693980218751	-0.22398149828125036
O	-1.4944672757437516	2.897997092021875	0.8009826967187497
O	-1.5428012197437515	2.8776037320218752	-0.5616385232812503
O	-0.07893334774375149	2.540758802021875	-1.4107560042812504
O	-3.065487347743751	1.3682668938218752	0.2930335867187497
O	0.9724750222562486	-1.4117998579781248	-3.5490282832812508
O	-3.8145357377437517	2.082163690021875	1.0750996167187499
O	-1.4524644557437516	1.2501939445218753	1.9677853767187499
O	-3.2533827777437514	2.9908785920218754	2.03771844671875
O	-3.7528380677437516	2.915929492021875	0.9301939667187498
O	-2.5417027877437515	0.7169430110218752	2.7018267467187496
O	-2.1159659377437516	0.2361113620218751	4.02984633671875
O	-0.32489272074375153	-1.2158038579781247	-3.26853822328125
O	-1.3641901667437515	-0.1738601779781248	-3.2397547332812504
O	-2.5995783777437516	-0.1853201679781249	-2.4502133232812504
O	-3.3954017877437517	0.7010852960218752	-1.9336917522812502
O	-1.0650616167437514	2.465612462021875	-2.3525398032812506
O	-1.4051345647437514	-0.09430602797812493	0.07800982671874968
O	9.015879932256249	7.031828392021875	-6.52674310328125
O	7.32465216225625	3.826354132021875	-7.6393761232812505
O	3.977911722256249	5.146374722021875	-8.85741424328125
O	0.40549422225624854	6.242359962021876	-8.05148425328125
O	-2.3928050077437515	5.479492422021876	-5.61405935328125
O	-5.689107667743752	7.061210342021875	-4.881498553281251
O	-1.3815207647437515	10.654291862021875	-4.324353683281251
O	2.1150963622562484	9.368278132021874	-5.12355168328125
O	3.6847573122562483	6.156427992021875	-3.8425788532812506
O	7.264020712256249	5.795409672021876	-2.6846344932812505
O	9.387526032256249	3.0100857020218754	-1.3313943782812503
O	10.678921232256249	4.225315782021875	2.0326518767187496
O	12.477144032256248	-1.127607887978125	8.07588768671875
O	11.116187132256249	-0.9842244879781248	4.53702981671875
O	7.742256542256248	0.7338066610218752	4.12102262671875
O	5.547408912256248	1.9026959540218753	1.2569722267187495
O	4.582641242256248	5.588118302021876	1.6855183967187497
O	1.5711012422562485	7.218029112021876	-0.09092938628125036
O	1.8710000622562486	11.080610812021876	-0.1390394542812503
O	-8.392003077743752	6.587908502021875	4.45590666671875
O	-6.408787297743752	6.602181162021875	7.63576217671875
O	-10.54030700774375	2.9956051620218753	7.407487576718751
O	-7.016811057743752	1.6065212920218752	7.5174005767187495
O	-5.635934797743751	-8.856039977978126	8.96477817671875
O	-2.9759206177437516	-10.754061377978125	6.92602450671875
O	-4.779463197743752	-10.045458677978125	3.68129650671875
O	-5.047782057743751	-6.2873534179781245	4.15920386671875
O	-1.8406530187437515	-4.448912387978124	3.49957651671875
O	-0.6830680237437515	-3.373092617978125	6.8594683267187495
O	-1.1812493701437514	0.21724342202187508	7.79787018671875
O	1.7184475622562485	1.3043761106218752	10.05563565671875
O	0.5956528722562484	8.456584552021875	9.17975135671875
O	2.4438172322562486	11.800277322021875	8.91157463671875
O	1.5399930022562485	10.756301032021875	4.21852858671875
O	0.2406834222562486	7.2289682320218756	4.84244029671875
O	2.7044580222562487	4.450053582021875	5.70365820671875
O	2.3059586522562485	0.7094061600218752	5.31821711671875
O	4.386178132256248	-2.4736528379781246	5.33612400671875
O	6.506552452256248	-2.884911917978125	2.16901497671875
O	5.567032272256249	-5.816914337978124	-0.09753215028125028
O	8.35143402225625	-7.2547407779781246	-2.1905637332812504
O	6.812167082256249	-8.580673167978125	-5.34951122328125
O	4.138550712256249	-6.642420787978125	-7.03762624328125
O	0.4718918022562486	-6.1277330779781245	-7.71538905328125
O	-1.4440221907437514	-9.012642777978126	-9.16876951328125
O	-1.8896682617437515	-6.6239925479781245	-12.12184934328125
O	-5.779813577743752	-6.512383817978124	-9.54406172328125
O	-3.7636774077437516	-3.286184107978125	-9.12724068328125
O	-4.723807887743751	-3.210753967978125	-5.46260850328125
O	-3.8586515177437515	-6.841314987978125	-4.7836009132812505
O	-0.2110542777437514	-7.235569127978126	-3.7836248432812507
O	1.6564017222562484	-10.437836777978125	-3.6677174832812502
O	3.972619732256249	-10.134727277978126	-0.6612044532812503
O	-2.1079248087437517	-11.554035777978125	-0.7508494392812504
O	-2.3850688377437512	-8.088734487978126	0.7604625167187498
O	-5.184563857743751	-5.729578977978125	-0.4193174232812503
O	-4.171481207743751	-2.181038777978125	-0.43978877628125035
O	-5.665195867743751	1.1866315450218752	-1.5623639842812502
O	-8.366271777743751	2.488731162021875	0.8315823967187497
O	-8.422904437743751	5.990113082021875	-0.41055463128125036
O	-11.891177867743751	5.360339642021875	-1.9298915792812503
O	-13.23700006774375	2.9537993920218755	0.7286950767187497
O	-10.811122067743751	2.380351392021875	-13.52341514328125
O	5.704981332256249	-7.089491547978126	10.18499585671875
