75

O	81.27858306013209	17.32014131221967	-14.211513666637055
O	82.40135314491752	17.707347164085043	-13.366514926372485
O	82.67680035655715	16.737584068854126	-12.393650429605902
O	83.79562318777867	15.85287314048217	-11.36894856709164
O	83.25389081391985	14.770599213889655	-10.197865137217569
O	84.71699842946362	15.206213437019189	-12.279131347074712
O	84.59240369315357	16.98784714933477	-11.203883414449004
O	82.48512267662352	13.871163560264879	-9.47934356341516
O	81.16694110653835	13.854848711800479	-9.920692942869541
O	80.31893384428415	12.803873884478062	-9.761979680163785
O	80.67942986816342	11.712576851043687	-9.030469525032238
O	81.62155771399897	11.913585928110951	-8.087898128502665
O	82.4301866378283	12.958252610379068	-8.433595782340106
O	81.57062020423275	10.864848911538354	-7.158401900005894
O	81.1923691467697	9.427344168055468	-7.211497559767255
O	82.03358879273024	10.624448036976545	-6.0506812314030425
O	81.83408707562023	9.258402007990188	-8.491677752245227
O	81.43295741323043	7.980755452616348	-8.79865952268732
O	80.9507017654726	7.396368454835689	-7.791070183321984
O	80.71927794260415	8.343688451335922	-6.800782485879948
O	82.16107075295794	10.03767761166732	-9.56657841922403
O	82.19969254202351	10.204631290228374	-10.993780643993645
O	82.25127030103293	8.996606394067772	-10.419528762158645
O	82.09287032704621	7.872063749283943	-9.924001191556965
O	82.13072186690397	11.371558323440935	-12.007004628650067
O	82.97090195982882	11.518674223931718	-13.057648600518009
O	83.22106420717382	12.539655871238674	-13.8918019965473
O	82.81897801499903	13.760897595317168	-13.736319077089627
O	81.86433076747333	13.705376762007631	-12.812760591082796
O	81.65298093789623	12.575913625987127	-12.11786612537098
O	83.00805636609702	14.767620509916398	-14.84216618498548
O	83.86879355452962	15.691148649500583	-15.167070353899911
O	84.72199930965508	16.887429541986663	-15.650909061742903
O	85.34815501230008	17.13384393820206	-14.219776212327531
O	86.39981629070172	17.945907739132984	-14.785290765286558
O	86.48467100091263	16.580816261117278	-14.26726740349723
O	86.81100702886361	15.924100310660046	-15.544105091178267
O	86.23945484174197	14.700462928495524	-14.8110381087604
O	86.13565592568769	13.51193262833379	-14.379507457706577
O	87.21130748582839	18.02611595565073	-11.770400605058127
O	88.21172995313937	17.204981030621802	-12.592673554510673
O	87.01640197026883	16.327323234422717	-12.178360226331858
O	87.55847726553291	14.872477879336973	-11.552852642887302
O	87.01419059740131	13.798879368016882	-10.487671528915635
O	88.43333998012444	14.60818148886056	-12.708011073696461
O	88.44523128992047	14.599731924894188	-12.69254934958554
O	85.88782695144664	13.136713841528891	-9.952848619676427
O	85.07804928952073	13.183771783238964	-11.016485081440244
O	84.12997667500412	12.46025660657031	-10.904416580638546
O	84.08171489952072	11.465379358541291	-10.037359382469779
O	84.68995789987918	11.166565692560463	-8.939501554397449
O	85.77404784847664	12.033452729442722	-9.09255006861702
O	84.2272670854266	10.34901190219846	-7.921016510416661
O	84.0997362098055	8.99338448895853	-7.19400216991247
O	84.71904533232212	10.700863473909177	-6.917931430599218
O	84.96117036237409	8.386380601608144	-8.077020353791802
O	84.46859193936645	7.091965296007496	-8.188946006535271
O	83.7100877236596	6.855296799657163	-7.158816297012649
O	83.70848246843747	8.06426585079986	-6.398196202672263
O	85.26317218079846	9.083551491409601	-9.178129403959321
O	85.58648177346272	8.97912985234574	-10.541108139767914
O	84.4959267187105	8.092340280780649	-10.132962266837175
O	84.25374675683675	7.014744264660983	-9.491025915745675
O	85.68292156003447	10.160973169852134	-11.593679602563956
O	86.9629328192202	10.795336498135468	-11.635879055714872
O	87.25850526863971	11.772451528091093	-12.584918682401273
O	86.3088886239111	12.457794741315519	-13.372883502411687
O	85.69288191526593	11.320425745741543	-13.612868209177595
O	85.25849060638188	10.385160453112013	-12.731970932230814
O	83.94215625667074	17.754718798322195	-15.68261079420284
O	88.04447979522675	15.7571319338301	-15.496349734614174
O	83.46264776248196	13.142169307721252	-7.7025045933672365
O	79.85871553066379	10.668038517276186	-9.117917874207572
O	86.89563893484461	11.334463755709203	-8.91397445119022
O	83.13932532901421	10.710777750239444	-10.370892409204007
