39

O	79.9748734971688	6.925293714890886	-4.782352295156692
O	80.9379356845565	7.569369126317815	-5.854133913213555
O	80.26189016611883	7.1852576125709655	-7.039904200267785
O	79.47994918384471	5.908264780235131	-6.6804054231392405
O	78.57384520908957	6.76836114528078	-6.0341068994380205
O	78.72511970812846	6.321253266132272	-4.673056472216941
O	80.41942923249991	5.870005153867157	-3.6950226781017497
O	81.77960250412399	6.598178815392643	-6.267923535903036
O	82.04820180071108	5.728643252866178	-5.043546965346792
O	82.06611363750577	4.340379538583019	-5.478943429022782
O	82.55884409364049	5.012128379297488	-6.417546173314164
O	81.89238687047833	5.035363713258329	-7.582587171112427
O	80.83796493317189	5.355034446918884	-6.686655005892829
O	82.16459178691167	3.380455080132856	-4.695675800981832
O	81.20510525617343	2.1746128254772765	-4.792501262955334
O	81.89787017692547	1.2892872884182185	-3.7560487228813293
O	83.06892246137173	1.9303362277416491	-3.2049073022993304
O	82.35724363324837	2.8470498882527413	-2.504555377449077
O	81.2675932020956	3.202058813548117	-3.519675052837585
O	83.69934390498636	5.431866073384898	-6.825677165300873
O	78.94989671192067	4.69475021193542	-6.761450124563759
O	78.74971125671625	4.04150657648095	-5.581132954889115
O	77.66859389307909	3.3065652541386323	-4.9199604146057
O	77.5390340350587	2.128213358720588	-5.593013093211776
O	76.33935515529392	1.5581560877621996	-5.340020724276328
O	75.43994188901696	2.2395533380597707	-4.605670243716183
O	75.43102904615729	3.601182169157839	-4.675633277242289
O	76.60957524143254	4.189242782184827	-4.66702233413173
O	79.20623544966952	3.95225365299379	-4.495550455001901
O	74.33799917861127	4.024424947319134	-3.857223098109612
O	84.39851982263673	6.66142435017267	-7.060452402069851
O	84.72008540097725	7.199480697010906	-5.735311189548888
O	84.62152321712978	6.081680957415176	-4.768968919751131
O	85.17209321119707	4.939124276947204	-5.1319733216247645
O	86.11202205667178	5.363336541190447	-5.975553960083926
O	85.84026378677672	6.29527167949682	-7.094717719908893
O	73.31590237571756	3.091284753320534	-4.006439794209681
O	73.77573865215741	5.052628168145959	-4.375488694671342
O	74.60598134891131	4.150125864756271	-2.6127966682816592
