29

O	84.86468487696708	7.056900768663437	-7.3092369222541596
O	84.86233314641812	8.193533904900772	-8.101351811239297
O	86.12321701488281	7.838656426953678	-8.454437673041411
O	86.93923405258877	7.7912212941383485	-7.386274650640894
O	85.94330396125757	7.315245094131292	-6.569486737577602
O	83.6345338528842	6.451775227875117	-7.019340545537724
O	84.68284198639397	9.374210462224886	-8.819282119411842
O	85.02393434741505	10.689768924802362	-8.372538528865938
O	85.10459477885827	11.622966033229666	-9.331933232322509
O	83.94041345694194	11.728850678014094	-10.029376720237707
O	83.80912918693345	10.5641570891184	-10.64773175701599
O	84.25425876875144	9.438572698648002	-10.04790651861998
O	87.72668508170867	9.007938584553619	-7.7054568030282224
O	88.66649666854268	8.83975609292854	-8.848673643751317
O	89.74529118109267	8.007152308725013	-8.102883273100257
O	89.17959067525247	7.252933395106533	-6.948801348916446
O	89.02213681481545	8.326756074878254	-6.019360272952325
O	88.56111154384074	9.627655513004878	-6.7331214499621215
O	83.06315645484842	5.992161829800567	-5.803332840255526
O	81.82052974190711	6.638349071465463	-5.571113376064579
O	81.4612666076222	7.461738701392989	-6.713125234968227
O	81.40734815824845	6.6761256261423645	-7.829121877393814
O	82.54162946925423	5.8286551285161785	-7.673581103380306
O	81.98462316863497	8.894269741758984	-7.078719005925853
O	81.47596649178843	8.94045182313647	-8.35786099107483
O	81.89468310833406	7.707133701413781	-8.834266227909753
O	82.47175614173794	9.882420181659239	-6.516885866489114
O	82.62140435077544	10.551912191680472	-7.579304363745554
O	81.8848655073004	10.284358886484483	-8.478445742409036
