104

O	1.4551278375527779	0.9349083462250006	4.89323167413889
O	-1.588384942447222	0.06140943522500064	3.053008754138889
O	-1.2932770734472219	-1.2917991827749995	3.1967500541388887
O	-1.159705554447222	-1.7988838527749993	4.524483604138889
O	-0.01551774444722187	-1.2141242327749995	5.10534724413889
O	-0.08447216044722189	0.15634234522500068	4.78957174413889
O	-0.8856782854472219	0.7714286557250006	3.8696073741388886
O	-1.623957252447222	1.8278206572250006	4.519383334138889
O	-1.350934517447222	-2.1050004427749993	2.100784134138889
O	-0.801351341447222	-1.5946348327749995	0.9252208841388891
O	0.482464607552778	-1.8897697527749993	1.499029054138889
O	-1.104373492447222	-0.4258843227749993	0.7599577141388891
O	1.2605142775527782	-0.7370746527749994	1.0972455641388892
O	1.7750543175527778	-1.572360402774999	0.18877198713888904
O	1.675416117552778	-1.2878316427749994	-1.0675906378611109
O	0.8899745575527781	-0.17310184177499932	-1.234816815861111
O	1.069408017552778	0.8138937056500006	-0.4013665276611109
O	0.9323258875527781	0.48643693122500065	0.900414414138889
O	1.3550798375527782	0.09844695422500072	-2.5261062758611112
O	2.178136787552778	0.3648370692250007	-3.577070145861111
O	2.697787797552778	1.6728008722250007	-3.608226795861111
O	3.041733507552778	2.3282477572250007	-4.7687691558611105
O	3.037697357552778	1.6953796612250007	-5.92758164586111
O	2.710228387552778	0.41801541622500066	-6.035025995861111
O	2.090593607552778	-0.1179523007749993	-4.905165635861111
O	2.495153567552778	-0.24668670277499927	-7.374611715861111
O	3.055563907552778	-0.08185950477499937	-8.63314776586111
O	2.468869957552778	-1.0713406627749993	-9.639240065861111
O	1.9639177375527779	-1.4071313427749994	-6.986062195861111
O	-2.373638102447222	2.3621364672250005	3.616119104138889
O	-2.526385712447222	1.3019624782250006	5.375053824138889
O	-0.7566687624472219	2.5317503872250007	5.202414194138889
O	7.531990607552779	-6.5348166727749994	-7.653094455861111
O	4.733056297552778	-8.733765902775	-6.3113509258611105
O	2.081297097552778	-9.298318842775	-3.644255445861111
O	-0.17709836644722193	-7.506503422774999	-1.405051915861111
O	-2.474634582447222	-8.787847032775	1.321729644138889
O	-0.4642644702472219	-10.663761842775	3.9179867741388885
O	2.904500507552778	-10.144661742775	2.278278154138889
O	5.4200186075527785	-9.342818642774999	-0.43444603886111094
O	5.8824920675527785	-5.9489661227749995	-2.180103905861111
O	9.309784707552778	-4.486528882775	-3.022364635861111
O	10.412949437552777	-1.3052488927749992	-4.6982277958611105
O	11.753906437552777	5.815080627225001	-3.842927745861111
O	9.235560907552777	3.894291577225001	-1.6887937158611108
O	7.0020752875527785	0.7952917450250007	-1.998784065861111
O	7.726222897552778	-1.5851283127749995	0.9006403341388891
O	5.460360457552778	-4.508339792775	1.898809954138889
O	6.746523147552779	-7.0212664527749995	4.134962014138889
O	4.450449417552778	-9.221913642775	6.177236854138889
O	-4.214733122447222	-3.1594166927749994	12.013555204138889
O	-2.979184842447222	-1.8193248527749992	8.697851844138889
O	-0.4197879094472219	0.5921301122250007	10.278432004138889
O	-3.223417602447222	1.7235054062250006	12.43355510413889
O	-5.594793152447221	2.5234041272250005	9.589485674138889
O	-2.939721062447222	4.278783027225001	7.51504271413889
O	-5.107303042447222	8.841760147225001	6.260333014138889
O	-5.313698412447222	12.683490057225	1.2919300841388892
O	-4.062319702447222	12.808017957225001	-2.371722575861111
O	-6.1509906924472215	9.811674117225001	-3.347429875861111
O	-4.941256352447222	7.557284647225001	-0.584629528861111
O	-1.460918497447222	6.179718127225001	-1.2678667838611108
O	0.8293248375527781	8.062700487225001	1.1300976141388892
O	2.120813647552778	6.3603682872250005	4.206324474138889
O	5.574623817552778	7.061311747225001	5.13678474413889
O	6.485696527552778	4.751411147225	7.991129264138889
O	6.798657727552778	1.1971328352250006	9.283805574138889
O	9.568663837552778	-1.1493154427749994	10.34376320413889
O	9.515026837552778	-4.129892932774999	12.73802050413889
O	7.302449057552779	-6.388825522775	9.68096486413889
O	7.306093967552778	-3.7710416627749996	6.931628044138889
O	5.066205687552778	-1.0045094727749992	5.773171204138889
O	6.495632047552778	1.8493593472250007	3.701376794138889
O	4.652245647552778	4.206466127225001	1.393920734138889
O	5.229682607552778	6.521762027225001	-1.4391502358611108
O	6.288554667552779	4.8070779072250005	-4.686473635861111
O	3.8506178075527777	5.010821857225	-7.580154875861111
O	5.415583537552778	5.000101577225	-11.02300129586111
O	2.827995507552778	3.749273567225001	-13.401480795861112
O	0.6747738075527782	0.9456474362250007	-12.39991079586111
O	-2.464671172447222	-0.4182778727749994	-10.85559429586111
O	-5.668995552447222	0.4261186872250007	-12.736833495861111
O	-11.530754662447222	-0.8115456827749994	2.677309364138889
O	-10.960879262447223	-5.049636492775	-0.956682357861111
O	-11.372388962447223	-2.1436509727749993	-3.4178598658611112
O	-10.546686962447222	-3.5610481327749994	-6.79855863586111
O	-8.540397212447221	-2.2070226527749996	-9.642419825861111
O	-5.3477608224472215	-3.9145601227749998	-8.359170775861111
O	-5.364294552447221	-1.5865634627749994	-5.426011145861111
O	-5.869314492447222	1.5523807242250007	-7.377926315861111
O	-2.541068412447222	2.9273889072250006	-8.39958633586111
O	-2.105897182447222	5.524174177225	-11.11544129586111
O	-5.293863992447221	7.956646607225	-8.33356497586111
O	-3.922056072447222	6.559292517225001	-5.03071356586111
O	-5.969686262447222	3.8751297672250002	-3.301118765861111
O	-3.631000122447222	1.4197248312250008	-1.7569955558611108
O	-3.976823452447222	-1.9345849227749994	0.220241772138889
O	-5.419709402447221	-1.6944200227749995	3.6926685541388893
O	-4.396293132447222	-5.149528222774999	5.08949879413889
O	-8.004375562447223	-5.925768252775	5.055202954138889
O	-9.430154532447222	-2.4896775627749994	6.063942624138889
O	-11.524672762447222	-1.8665757027749994	9.249822694138889
O	-9.929026032447222	-14.622112342774999	-2.631602455861111
O	6.681062927552778	12.618462957225	2.051797564138889
