29

O	89.45145838596974	9.112845846996118	-9.207282437505317
O	88.02153464191636	9.42639012259313	-9.142732670348835
O	90.63472489598244	9.430105190340646	-9.971000825045301
O	88.73620004492962	10.703484288843747	-9.398426451869465
O	90.74574819000279	10.53539634158413	-10.84587056758031
O	89.7173244314749	11.263266140629394	-10.265071532699881
O	82.76862146239603	10.998919512531664	-7.891651696028371
O	83.8935924168032	10.812755752531801	-8.59342206991803
O	83.168006308296	9.937032231268113	-7.09861372626075
O	84.19269171217107	9.411082335318694	-9.048244181305659
O	84.46115088321501	9.110844395338553	-7.246721736589201
O	83.52683589905504	8.309673220705113	-8.228903363881717
O	85.9667447834275	7.700103731175987	-9.078497620022096
O	84.64563727341984	7.300259724763107	-8.518698044832686
O	86.64932788730867	8.821372429099114	-8.848850151202122
O	85.85013530474393	9.109400260801518	-7.6373524190258335
O	85.00060016602107	11.541362095988157	-8.210706984600103
O	85.23541748896122	11.368993645396555	-11.4007955872533
O	85.97941067141406	12.701244772710497	-11.02648333326666
O	85.72672487926533	10.02382693977736	-11.384571954604098
O	86.50321006415605	11.84231126530059	-9.857410226046625
O	84.66801040839925	10.29662021558915	-10.427644439997763
O	85.34970530849098	11.333588937880155	-9.494665039246977
O	86.74202347920426	10.864116338353698	-11.556045235383387
O	87.67692359739202	11.713811172967276	-12.139052690460343
O	88.46370111790094	12.569932833856171	-12.80641277992481
O	87.87028721948971	13.944276424909301	-12.786249669106084
O	88.79008361715732	14.7040018717347	-13.56580607322125
O	89.9602885292125	14.734534562051778	-12.790533224483294
