36

O	79.09761119694662	3.3651884494577944	-5.057657399654807
O	80.65457735984639	9.146609107133813	-7.361743534543345
O	80.4245010402428	7.749758137285766	-7.223344655658021
O	80.89475173127458	6.5127075375268095	-7.388172965762853
O	81.77876606836554	9.721851695157062	-7.97989676735458
O	80.3916534525204	4.23965848369408	-4.9000444706037865
O	80.09029341299309	10.263966445193011	-6.938253322126941
O	80.66545099258134	4.776541800430747	-6.061519740701261
O	81.30434196688118	5.911768236198979	-6.1812575688279825
O	81.75155414345222	11.154770428213078	-8.084017281338024
O	80.5907611580491	11.440488079178593	-7.664106299712213
O	84.23967888012447	9.659099957784269	-6.809456850755233
O	82.01630437167884	8.684657961274425	-8.761271614725418
O	82.65479977854064	11.590087769765958	-9.032996362817784
O	83.222095788874	8.30103862805982	-6.528061003497403
O	83.23170118936235	8.293837971839027	-6.530871077409968
O	84.9679790899845	10.960871393626292	-7.182426941133175
O	83.17142434728116	9.124907045567571	-9.331731468170629
O	77.8159652033055	4.106346355866231	-5.247972119157607
O	86.29850203676564	10.635688890279582	-8.044783756758932
O	85.54377832717131	11.384045625140025	-8.447208755021075
O	84.31197036380145	8.955092472650367	-8.330612180796345
O	80.39496251298789	5.894041950481608	-8.47891991116778
O	79.21972370774232	2.4605973301963084	-6.121684602392974
O	79.6380096108954	2.533527508799379	-4.192382482148794
O	79.24119183600762	7.627704583771914	-6.8558286740026215
O	83.96072628754425	7.65361668960687	-7.649709631986733
O	83.9353930272773	7.655958235919816	-7.651574887026357
O	83.24377168576774	10.592238023413106	-9.636484319726767
O	80.53327697888761	3.97156224991247	-7.143272639661091
O	80.70488687822862	4.5934525318853545	-8.38133730813584
O	77.28535391279173	4.955567738882676	-4.260861054798982
O	77.92806710633431	4.772019282701695	-6.4688322251701775
O	78.42010102299429	5.880503131316314	-4.419860984470002
O	81.24561191685574	6.731300029883914	-5.086602770134295
O	79.2282359022357	6.398053143226799	-9.006160949177726
