103

O	4.9082503434720595	2.190045828082354	-2.1594927024941173
O	2.647208763472059	1.304601517082354	-2.218818942494117
O	3.802935703472059	1.5916434480823538	-2.722635972494117
O	2.842200893472059	1.617208528082354	-0.9397800525941172
O	5.018548863472059	2.3392324680823537	-0.8460706514941172
O	3.949318123472059	1.835056108082354	-0.17694979649411724
O	6.009305493472059	2.533121938082354	-2.954456612494117
O	1.3207796634720588	0.6897380090823539	-2.5443498924941172
O	-0.21189455052794115	0.5137102540823539	-3.5119234924941174
O	-1.666286084527941	0.554263778382354	-2.8515079824941174
O	-0.7590478025279411	0.719077950082354	-1.9604005214941171
O	0.3769396934720588	0.09921341808235395	-1.6350241234941172
O	-3.0372731865279414	0.800028184082354	-3.1358846324941174
O	-4.045506896527941	0.726409800082354	-1.9212206434941173
O	-4.029957286527941	-0.20410517491764602	-3.610965132494117
O	-3.634437016527941	-0.18827771991764608	-4.077509242494117
O	0.5284624634720589	-0.770004341917646	-0.5244923464941172
O	-1.6866830595279412	-1.1897986419176458	0.25981781750588284
O	-0.6253720665279411	-0.42094992091764605	0.32762052750588266
O	-1.175465564527941	-2.3829938219176463	0.7908724975058828
O	0.5546044134720589	-2.157032791917646	-0.3811513694941172
O	-0.6444418825279411	-2.9941698719176464	-0.2400951044941172
O	-2.707621106527941	-0.831285141917646	-0.6868618244941173
O	-2.873900986527941	-2.1770882319176463	-1.4538243254941172
O	-3.402977536527941	-2.572673891917646	0.10682626750588275
O	-3.3380724265279413	-2.5409116819176463	2.597961577505883
O	-3.5662524465279413	-1.9770250219176462	1.3825859475058828
O	-3.444176336527941	-3.9088211219176463	2.5762358775058827
O	-3.938466256527941	-3.759768531917646	0.39884050750588285
O	-3.2342128365279414	-4.462460181917646	1.3154967275058826
O	-3.4363005365279413	-2.7218212119176464	-2.587609932494117
O	-1.742272412527941	-2.194934191917646	-2.3868916324941174
O	-0.7690317261279411	0.886425607082354	0.4853091375058828
O	-4.113455146527941	-4.254844181917647	-0.8334225964941172
O	-3.793601066527941	-0.7083729619176461	1.3093092975058824
O	8.99047341347206	-5.632946791917647	-8.002242342494117
O	7.685436833472059	-2.133666471917646	-8.536792272494118
O	4.1585760834720595	-2.9961740019176464	-9.687692462494118
O	0.5586300934720589	-3.7844075619176465	-8.665226712494118
O	-2.016577236527941	-3.156932911917646	-5.979128112494117
O	-5.648732946527941	-4.433766251917646	-5.128345092494117
O	-5.369702656527941	-8.242781141917645	-4.832241212494117
O	-1.484358201527941	-8.506912491917646	-5.291116972494117
O	2.0513030734720585	-7.403709171917646	-6.216595392494117
O	4.066710903472059	-4.535282681917646	-4.727230792494117
O	7.70368519347206	-4.745247081917646	-3.8985796224941174
O	10.256587833472059	-2.4341867619176463	-2.504268432494117
O	13.223901533472059	0.4846020394823539	3.3873033775058823
O	9.626651433472059	-0.7367088719176461	3.284640157505883
O	7.028858293472059	-1.2683116619176462	0.6515836975058827
O	5.589097383472059	-4.8311144919176465	0.7399400075058827
O	2.379438373472059	-6.079132161917646	-0.9732180638941172
O	2.037989993472059	-9.755796391917645	-1.4625811194941174
O	-1.460808367527941	-11.289366891917645	-1.9905503424941173
O	-5.940663576527941	-9.572064891917645	3.554050677505882
O	-9.94421586652794	-6.744596761917646	5.974723937505883
O	-7.191999256527941	-4.570869501917646	5.083974767505883
O	-4.779711106527941	-5.2719756319176465	7.933121267505883
O	-8.36045560652794	-1.0836215319176459	8.535956477505882
O	-4.660970906527941	-0.20713995691764608	8.586756917505882
O	-1.4213436595279412	9.912524778082355	11.148944267505883
O	1.2936641234720587	11.627704608082354	8.976311407505882
O	-0.9570649956279411	11.658584408082355	5.923249087505883
O	-1.8780200765279411	8.044285568082355	6.067375117505883
O	0.9556391734720588	5.804021458082354	4.770216767505883
O	2.3066444634720593	4.0131002280823544	7.8177682375058835
O	1.326032863472059	0.3437020140823539	8.325137607505882
O	4.3128245234720595	-1.399654421917646	9.895482367505883
O	1.962947543472059	-8.112160001917646	8.221628467505882
O	3.297628973472059	-11.566212691917645	7.344857127505883
O	1.360489543472059	-14.786360591917646	6.629507787505883
O	3.0038351634720586	-15.575005591917645	1.8580128775058826
O	0.22644424347205883	-13.140908991917644	2.7315664175058827
O	2.1315402534720587	-9.879244091917645	2.9545566275058825
O	1.4322128634720588	-6.364529621917646	4.177666297505883
O	4.392579553472059	-4.048253781917646	5.143619937505883
O	4.401277273472059	-0.2006706759176461	5.230337897505883
O	6.921632243472059	2.6609341980823538	5.208585767505883
O	8.62111639347206	3.144887848082354	1.8179242075058828
O	7.85566021347206	6.2009919080823535	-0.10094456749411729
O	6.214839833472059	8.611970538082355	-6.306238932494117
O	2.4740895734720585	8.762279878082355	-6.583886092494117
O	0.8226612634720589	12.051980608082355	-7.348373502494117
O	-0.2586757955279412	10.232848958082355	-10.553769572494117
O	-10.686954996527941	4.0933916480823545	-4.281065802494117
O	-7.245550636527941	8.541570088082354	-6.913425832494117
O	-3.854847656527941	10.147817088082355	-7.535143872494117
O	-2.2151611065279413	6.728715048082353	-7.841591352494117
O	-2.9148147165279408	6.281213278082354	-4.044592622494117
O	-1.4205168355279412	9.551719698082355	-3.0095368824941175
O	2.292821713472059	9.237310828082355	-2.4236635724941173
O	4.665214353472059	12.047773108082355	-2.121783372494117
O	1.4361729134720587	13.320173008082355	1.3624222475058825
O	0.6990705534720589	9.769655128082356	2.4769785175058825
O	-2.685411016527941	8.281362448082355	1.4020726675058826
O	-2.280559276527941	4.639750588082354	0.9078443175058827
O	-4.486969576527941	1.580686278082354	-0.016579597494117193
O	-7.101093486527941	0.030116038082353913	2.0379536275058827
O	-8.055862896527941	-3.410097851917646	0.20401772750588265
O	-11.232113166527942	-1.9367750919176463	-0.8273651144941172
O	-11.657550366527941	0.25201762008235395	2.2488469375058826
O	-11.87347456652794	-0.915997491917646	-12.729365932494117
O	-10.68019949652794	2.694892038082354	-12.081800032494117
