39

O	79.55981601076876	7.48362963459002	-9.8406963071193
O	80.79660820348057	6.849832615709682	-9.432902567927773
O	81.33124956153361	7.848042497980902	-8.762191893452318
O	80.6271109018609	7.79260556285508	-7.520924704664964
O	79.33500667236402	7.775315851560167	-7.671173207719141
O	78.73645251874018	8.013382040524691	-8.847756160730244
O	81.99038965030657	8.819613625686406	-9.53755251219754
O	82.81770689282072	9.69746411301619	-8.839876716649929
O	82.55113965713504	9.417924331402574	-7.457763471596249
O	81.55738884058276	8.516735802696644	-6.679199200567609
O	78.4868401921707	7.295917629567401	-6.676191293896531
O	77.63034653835034	6.31597149228678	-6.601085417707695
O	76.72717490975306	5.479876797587253	-6.573353533514804
O	77.01663165489298	4.258399698892609	-6.998854176330911
O	78.21182888058482	3.827547248820906	-7.339604196391895
O	78.98103758306446	4.270459559478394	-6.3512787314718615
O	78.77745155759018	5.660559269833374	-6.478385484190227
O	78.98724359421017	4.503350102526352	-8.402831459837405
O	80.28224160427435	4.963583669244163	-7.793364956172893
O	81.17611097818678	5.106770145085443	-6.667029824242446
O	80.30980359487552	3.99806170171348	-6.388774777257187
O	80.69600999586469	5.615081553994036	-5.311491228010235
O	81.19970856334713	4.83274666407577	-4.493692340636116
O	79.50558145468062	5.8678606146646555	-4.619637422162785
O	78.37970985158879	5.258328723314889	-3.9346696416320905
O	77.01127848467546	4.930590947753602	-3.8859173705324084
O	76.42027537645151	3.813542733205165	-4.290412491137172
O	77.32091132553303	2.8429144356417453	-4.411061205497088
O	78.35269247344436	3.0571122526039067	-3.5022350465782246
O	79.06492356084743	4.098107164946673	-3.925984475709499
O	82.82609262296724	10.811575857811967	-9.454330294086114
O	79.19303665537545	1.874739909344747	-3.246215086439849
O	78.29287472692869	0.953741828758238	-2.939148740825298
O	75.12929136739382	3.2615718777281626	-4.578194397561893
O	80.53964770413397	2.3032254918790263	-2.906949949563746
O	79.4744460314648	1.5908678346972946	-4.694737223470816
O	74.41550834338562	4.083243140686647	-5.274103105020316
O	74.69456148805686	3.440588177701805	-3.3484919807760343
O	75.18498496746481	2.1672076109211713	-5.337930555728221
