29

O	79.2817177995526	8.525575738980791	-5.826895021477154
O	79.862009718347	7.6721844119105285	-6.274585915854828
O	81.08470631294459	7.633506738861678	-5.496600411866956
O	81.72945036264707	8.83547741574789	-5.759015873772876
O	81.4927540842296	9.977850380645922	-6.471215912578376
O	82.47302042097635	10.698589833232006	-7.30752041568321
O	83.24352880402141	9.608648443337476	-7.745245194815023
O	83.01014585257731	8.457598127897006	-7.337323709085217
O	81.34633271320077	8.000811824098042	-6.87746331555407
O	83.38982498993191	7.111496624222729	-6.969485306090001
O	80.2509451268136	7.082757574633217	-7.549950299183334
O	79.66263971893262	5.863567439331543	-6.888695131626803
O	80.45138196223208	5.437766374524832	-5.971320349485233
O	79.90716762347958	4.363669237589405	-5.494812970976638
O	78.74721952818386	3.9747103923912905	-6.192955612493014
O	78.49596764003606	4.268524897800657	-7.440660585387969
O	79.00857086947805	5.461085885946892	-7.966588227266705
O	79.66069573493833	4.613842831332198	-4.2175624324517695
O	78.04749223275576	4.106909738369303	-4.312020509931564
O	76.9086173960941	4.761882471430798	-5.349502636376999
O	78.13706174787598	2.649140666567286	-4.544275462942348
O	77.53514937596671	4.518642883223308	-3.180532507835
O	76.47669958821167	5.993317738598347	-5.14738506158478
O	75.51231360512644	5.952097552830013	-4.01310386018413
O	84.87432136487233	7.464387640786805	-6.554331382007666
O	84.35692302177611	7.615867144422321	-5.128245836804981
O	83.68021571460251	6.564083312273503	-4.6267199444545355
O	77.82860179163964	6.22023295153485	-8.000565470595868
O	81.78480299489146	5.075080704826552	-6.032383939763993
