27

O	83.66436220543227	9.89249789807294	-8.514092683357955
O	82.75990548435766	10.813005997800673	-9.03678164288893
O	81.6505855792147	10.987056908203435	-8.273425182113828
O	81.25603290012559	9.86168887815052	-7.601232706694836
O	82.16580922037856	8.915270708613548	-7.079858926396681
O	83.3216183805835	8.791413972309234	-7.778399434644501
O	84.88083863312403	10.34677840700251	-8.949240415293136
O	84.72148697908142	11.635002363415989	-8.985946514984532
O	83.50434660485111	11.830836001381279	-9.55272442782058
O	81.14402153236394	7.931293361824856	-6.793891362523402
O	81.51338036217119	6.7443852015416565	-7.354373502247862
O	80.43300577137057	5.7570912720530085	-7.191086589163218
O	82.57372737647859	6.359146069706953	-6.72372733282441
O	80.06792552369012	5.513126659232266	-5.896073207777767
O	79.07958296934783	4.608201507394652	-5.774981360639805
O	78.2107366683193	4.397837018591309	-6.809645023951139
O	78.46208704907104	4.9531074913667315	-8.005057118357938
O	79.36732842624744	5.99691357950166	-8.060982175074892
O	78.4934941343233	4.453970520818499	-4.524657651304949
O	77.39669006031664	3.1613679658803466	-4.4902045491991
O	75.80719119356965	3.782300669991156	-4.669167193718334
O	75.55055809300279	4.735284283950497	-5.791681301365459
O	75.7678945126833	6.080896585069355	-5.192222767844889
O	77.6390644578441	2.644304171263154	-3.1524225626750924
O	77.79587220014068	2.0457535740190727	-5.35700195856258
O	79.19558234663873	7.249089257538353	-8.580544958649401
O	80.89410394053384	5.871098959287159	-4.926148513904243
