99

O	0.4086460835121217	1.8258093315454542	-0.35763157873939333
O	1.1910554115121217	1.4342637585454543	0.6488600605606066
O	1.9951428915121214	0.3005398305454543	0.7343567785606067
O	1.9832830515121218	-0.6238941874545456	-0.17141974043939334
O	1.6144533815121216	0.0752439855454543	-1.2735018664393933
O	0.7760382415121218	1.2452650765454543	-1.4737088714393933
O	1.2734299815121215	-1.7872736974545458	0.09015360756060664
O	-0.10834395948787828	-1.6201479774545458	0.002308100560606652
O	-0.6294400330878783	-1.6170675974545456	-1.4002474314393933
O	-0.5167554734878783	-0.7574654474545457	0.6714424675606067
O	0.17955676051212166	-1.8558432674545455	-2.4717803114393933
O	0.2830003385121217	-1.057253367454546	-3.5845507214393932
O	-0.8458396584878782	-0.3557119474545458	-3.735901511439393
O	-1.8159263284878784	-0.2471708374545456	-2.8254213014393934
O	-1.6557661984878784	-0.6905067074545457	-1.5769302414393933
O	-0.9739008934878783	2.232271772545454	-0.16521755543939332
O	1.0114003715121216	1.7505440955454543	1.9839203185606067
O	1.8766887515121216	1.5769406235454544	3.2168111185606065
O	0.8229786815121217	0.9013639930454543	3.8266872885606062
O	0.1893374465121217	-0.05490370745454576	2.7284231485606067
O	-0.6848751054878783	0.9976034827454543	3.2112502185606067
O	-0.2556256834878783	2.1443476625454543	2.3462169285606067
O	0.5760449615121218	0.32838148354545427	5.032469778560607
O	1.6267651415121218	-0.6011164474545456	4.285443978560607
O	1.2093123915121216	-0.9731610574545457	2.9963415085606067
O	2.6514307215121216	0.15379327754545424	5.1661947185606065
O	3.5796912015121216	-0.8692776274545457	5.3979034985606065
O	4.280842031512122	-1.825166447454546	6.313013568560606
O	3.563662191512121	-1.662341927454546	4.260120558560606
O	-3.0447649784878785	-0.5728221374545457	-3.566111831439393
O	-3.3024054884878784	-1.8733119374545455	-3.631353091439393
O	-3.0087803784878786	0.25275107754545434	-4.605420541439393
O	-3.9399912884878785	-0.18136137745454572	-2.7283218614393934
O	8.196595811512122	4.282769032545454	8.643532868560607
O	9.863131951512122	1.4117344005454542	6.698019228560606
O	9.72265885151212	-0.9869693074545458	3.5841500285606065
O	7.210797791512122	-2.5748556474545454	1.1633605185606066
O	7.365044301512122	-4.537350557454546	-1.9176673914393934
O	9.538640951512122	-2.608364637454546	-4.325400291439394
O	10.018424751512121	0.5354201305454542	-2.2060765914393934
O	9.96456775151212	2.760469612545454	0.9249173985606067
O	6.825060261512122	3.5850566825454546	3.0291244085606066
O	6.170300201512122	7.004050512545454	4.517202048560606
O	3.5300187615121215	8.533801852545455	6.647198298560607
O	-3.0780177284878785	11.302410992545456	6.996273048560607
O	-2.0328489684878783	8.890909272545455	4.261453418560607
O	0.5076511815121217	6.210255552545454	3.837953918560607
O	2.712726171512122	6.626930542545454	0.7937464385606066
O	4.969999421512122	4.052886222545454	-0.8390933994393933
O	7.5840097915121225	5.187793732545454	-3.1018698614393934
O	9.05208011151212	2.821152292545454	-5.692358461439393
O	4.133834831512122	0.22809401154545428	-9.884631351439394
O	1.8206474515121216	-0.02127374845454566	-12.836285201439393
O	0.7224207515121218	-3.529963257454546	-11.825535201439394
O	-0.02574846748787829	-2.537830877454546	-8.330974571439393
O	-1.9418290484878784	0.7070063405454543	-9.251753211439393
O	-3.8476867784878785	-1.4976648074545456	-11.505076101439393
O	-4.892998828487878	-4.094765617454546	-8.982467611439393
O	-5.863613898487878	-1.5088427674545455	-6.430182021439394
O	-10.85759104848788	-2.7548397874545456	-4.947027981439393
O	-14.14408584848788	-2.836726907454546	0.4670262365606067
O	-11.070399048487879	-4.9688467374545455	4.511616268560607
O	-8.902374108487878	-3.900528277454546	1.6973938385606067
O	-6.614205338487878	-0.9413495774545457	2.5914223385606068
O	-8.100298078487878	2.049648262545454	0.7950480885606066
O	-6.541926598487878	3.5024990125454547	-2.2771961314393936
O	-6.495403278487878	7.145849622545454	-2.6064214614393935
O	-4.284196818487878	7.962333522545454	-5.597333241439394
O	-0.8639087974878783	7.730575392545454	-7.248449171439393
O	1.9611107715121214	10.100977552545455	-8.212151531439392
O	4.611624531512122	9.709869212545454	-10.951926501439393
O	6.571160411512122	6.652627022545454	-8.443204751439394
O	4.282139961512122	6.816144002545454	-5.458604491439393
O	1.2004165115121217	5.145448672545454	-4.261052541439393
O	-1.1371082444878784	6.648241062545454	-1.6906902214393933
O	-3.6457780084878784	4.992256422545454	0.6064402685606066
O	-5.506158358487878	5.660726262545454	3.8127986885606067
O	-3.2528978884878783	5.751959392545454	6.929787988560607
O	-3.9459792884878784	3.070796752545454	9.451776568560607
O	-0.25241795548787826	-1.5410884374545455	13.376001498560607
O	0.16307499751212173	-4.753846357454546	11.395795998560606
O	-1.2348303924878783	-7.940788517454545	12.832333698560607
O	2.1886827015121217	-12.401224507454545	-0.14404359443939332
O	-0.6098844865878783	-12.592861507454545	2.5017189185606066
O	1.0909433215121216	-12.692533507454545	5.842185658560607
O	0.35502680051212177	-10.906729507454545	9.076563068560606
O	2.7121648315121214	-8.076709427454546	8.060906528560606
O	0.2338467145121217	-7.035808457454546	5.313730058560607
O	-2.724900168487878	-7.066161087454545	7.584243188560607
O	-3.2310153584878782	-3.731843297454546	9.253961398560607
O	-7.263718478487878	-3.7557583074545455	6.084447258560607
O	-5.292727898487878	-6.084148097454546	3.7706450385606063
O	-2.4417112084878783	-4.163005857454546	2.2924888485606068
O	0.5920856815121217	-4.858686197454546	-0.13572520343939334
O	-0.2773214284878783	-5.740121077454546	-3.7619013014393934
O	3.1658379015121216	-5.0862853074545455	-5.263969151439393
O	3.2576724915121216	-8.854273367454544	-5.866078911439393
O	-0.5238009331878782	-9.383449107454545	-6.610548351439394
O	-11.397015948487878	8.884801092545455	1.2604327385606067
