110

O	0.22620206354140815	0.7395314408450704	0.20505893601830993
O	-0.393610976458592	1.2476848958450704	1.14522134601831
O	1.1215425235414083	0.18265574584507038	1.0458845660183103
O	0.7093894635414082	-1.0070505641549297	1.50554853601831
O	0.7384061035414082	-1.6157568441549295	0.27944785601831
O	-0.1264710764585919	-2.5482226041549296	0.37263611601831004
O	-1.1627466604585919	-2.44869858415493	1.20968865601831
O	-1.2151042134585919	-1.6978403541549298	2.2678473560183097
O	-0.2652640864585918	-0.7556957941549296	2.4335244860183103
O	-0.5997934534585919	-0.1815492241549297	-0.46378046298168996
O	-1.859164583458592	0.2696351828450704	-0.40849444998168993
O	-1.297919889458592	0.39312130484507035	-1.57820307098169
O	-0.49033197645859183	1.6831677028450702	-1.52269020898169
O	-1.6601597924585918	2.2436263958450704	-1.62643759598169
O	-1.820375298458592	1.8223258388450705	-0.21153539398168997
O	-1.049512353458592	-0.03254715415492959	-2.68464236398169
O	-2.572753876458592	1.7814869748450703	-2.6323740539816898
O	-3.4476214664585916	0.8674503168450703	-1.85950426898169
O	-3.164889676458592	1.3447887438450703	-3.8467645339816903
O	-3.528734936458592	3.01078958584507	-2.59061866398169
O	-1.178552253458592	-0.9455487941549297	-3.4119862839816903
O	-0.8785775604585919	-0.5316334341549296	-4.73229592398169
O	0.2879128635414081	0.2448931288450703	-4.69273049398169
O	0.1604303735414081	1.3707960078450703	-3.92236834398169
O	0.07998510354140809	0.7478532128450703	-2.63111009398169
O	0.5725101635414083	0.8457713208450703	-6.07109150398169
O	1.591960343541408	-1.4825799541549298	-0.74452885298169
O	1.3856073235414081	-2.12372572415493	-1.92832822998169
O	0.3044387235414081	-2.9609562641549294	-1.93138486898169
O	-0.39040126645859186	-3.21827410415493	-0.79370987098169
O	-2.358370805458592	-2.7681886741549295	0.6110657660183101
O	-2.6051069464585916	-2.4634841041549294	-0.75223355998169
O	-3.545139326458592	-1.9314319641549298	-1.60272917498169
O	-4.303672446458592	-2.35961521415493	-2.64431902398169
O	-3.8115311764585917	-1.8275121841549298	-3.88192695398169
O	-4.418782886458592	-1.5228828541549297	-5.15082429398169
O	-5.714208906458592	-1.1132528641549297	-5.3261415739816895
O	-6.149239376458592	-1.7482725141549296	-4.18375733398169
O	-5.246014286458592	-1.2926076741549297	-3.0407656439816897
O	-0.19680988645859188	-12.70372486415493	3.59368530601831
O	-2.011212635458592	-12.07495916415493	0.41067595601831
O	-2.682076606458592	-9.80529216415493	-2.4912263739816902
O	-2.7484547464585916	-6.23828998415493	-3.34511533398169
O	-2.982760856458592	-4.09592467415493	-6.77550288398169
O	-0.4117344864585919	-4.92632692415493	-9.13414811398169
O	1.237662423541408	-7.42001350415493	-6.703766323981689
O	1.755583823541408	-9.66395836415493	-3.63647069398169
O	1.6238270335414082	-8.41391280415493	0.029915536018310096
O	4.104074943541408	-9.73627616415493	2.55178985601831
O	4.728873253541408	-9.20745146415493	6.182720646018311
O	6.383162473541408	-3.69800160415493	7.8196424060183105
O	3.842236983541408	-4.58270278415493	5.11216443601831
O	5.507462633541408	-4.91202741415493	1.7732357260183103
O	3.752689063541408	-5.01598676415493	-1.5085197989816899
O	5.827437293541408	-6.42057299415493	-4.41016882398169
O	4.792926603541408	-5.46025189415493	-7.940784613981689
O	7.0605252635414075	-7.810389624154929	-9.67310267398169
O	1.8853301535414082	1.6405217498450704	-11.35592156398169
O	4.710415433541408	1.5196498618450702	-8.92405909398169
O	5.996890433541408	4.9872038358450705	-9.74283324398169
O	2.540005703541408	6.51249234584507	-9.47863218398169
O	1.895654963541408	4.88729882584507	-6.1478178739816896
O	5.048887693541408	5.80294984584507	-4.46086403398169
O	4.504457013541408	9.28149909584507	-5.78274848398169
O	1.170168583541408	9.69287869584507	-4.09223800398169
O	2.169663403541408	7.89030523584507	-0.8820568492816899
O	0.7476886735414081	11.66517383584507	2.81054127601831
O	1.4793746135414083	12.11638933584507	6.51530268601831
O	-1.498554131898592	11.58330273584507	8.80605269601831
O	-5.4725654064585925	7.68362212584507	9.36263703601831
O	-3.412152196458592	7.1006072758450705	6.299162526018311
O	-1.298449796458592	3.8512242558450707	6.5364812960183105
O	2.262152593541408	5.07638998584507	6.87946428601831
O	4.636702143541408	4.91210638584507	3.9142566860183106
O	8.068466723541409	3.99016124584507	4.96270925601831
O	9.979611053541408	3.5087312658450704	1.7293554160183102
O	10.396701453541407	1.7169249588450703	-1.59255549998169
O	12.773863353541408	-0.7950151741549296	-3.18786618398169
O	13.545955953541409	-1.3707742641549296	-6.882412113981689
O	9.579986653541408	-3.26651761415493	-7.25470193398169
O	8.414713233541407	-3.03415701415493	-3.67316579398169
O	6.6073789135414085	-0.6462337341549296	-1.54203411998169
O	6.990842703541409	-0.6278163341549297	2.2667933660183097
O	4.693731143541408	0.6131112228450704	5.01477273601831
O	3.927015473541408	0.29475469384507036	8.58303712601831
O	2.5331331635414083	-3.07932974415493	9.52340473601831
O	-0.9323114724585919	-3.13600962415493	10.88229933601831
O	-6.889349586458592	-6.72442383415493	10.06749983601831
O	-8.859650086458592	-5.02509386415493	7.37006925601831
O	-12.305141446458592	-3.76897559415493	8.28886729601831
O	-8.511272286458592	7.23892088584507	-3.9636079839816896
O	-11.182382966458592	2.3750283258450704	-4.54696359398169
O	-12.165865546458592	2.93380553584507	-0.8587366759816899
O	-13.727191246458592	-0.29764886415492975	0.44041957601831005
O	-13.399812046458592	-2.12947734415493	3.67761745601831
O	-10.516861386458592	-4.33810210415493	2.5280301460183097
O	-8.26925613645859	-1.2139769341549298	2.3699970460183097
O	-9.196341366458592	0.0002680058450703626	5.7150953760183105
O	-6.919173216458592	-1.4784262641549295	8.27622908601831
O	-5.377892326458592	3.4795070658450706	8.50673665601831
O	-6.542310036458592	3.77698077584507	4.88301745601831
O	-4.281164626458592	1.6458126838450702	2.78603258601831
O	-4.370226046458592	1.2586425988450705	-0.80993748698169
O	-2.925149976458592	4.19993380584507	-3.6382830539816897
O	-1.978498027458592	1.9418799818450703	-6.98955659398169
O	-5.0834506564585915	3.43175002584507	-8.56094898398169
O	-5.102088416458592	6.89502870584507	-6.81709538398169
O	-4.631247226458592	10.12661520584507	-8.78687530398169
O	-9.657374146458592	-7.783183534154929	-12.19414446398169
O	8.363528003541408	5.26975257584507	11.315150036018311
