103

O	3.8664701898147067	0.9251984633823538	-4.200775741679411
O	1.6879475698147064	0.9830703693823537	-3.126171071679412
O	2.4920824698147066	0.9920047193823537	-4.1386714816794115
O	2.5395020898147065	0.7375204181823537	-2.130823701679412
O	4.585760099814706	0.5594840623823537	-3.150351911679412
O	3.8148937698147067	0.2649433073823537	-2.071467581679412
O	4.524007649814706	1.1116258333823537	-5.422284501679412
O	0.2406458998147063	1.0311629193823537	-2.745067201679412
O	-1.4297816881852936	1.7540424023823538	-2.732979541679412
O	-2.2360480401852936	2.078910233382354	-1.3964430856794119
O	-1.0925018383852936	1.5732540203823537	-1.135456892679412
O	-0.3802169911852936	0.5218563683823537	-1.5508392026794118
O	-3.2786835001852936	2.8688252233823537	-0.8627089922794119
O	-4.558114130185293	2.4669601233823535	-1.6016677386794118
O	-3.529945490185294	2.6592077533823537	0.6960068483205881
O	-4.698494410185294	2.7012249833823536	-0.5721991406794119
O	-0.20250135118529355	-0.6657462266176464	-0.8030710948794119
O	-1.7432673621852937	-0.5252974266176462	0.9789047783205882
O	-0.5253109081852936	-0.2543515166176462	0.5751575283205881
O	-1.6830723631852935	-1.9288500066176464	1.0341222683205882
O	-0.7571803011852936	-1.9429423666176462	-0.852334113979412
O	-2.0169666561852937	-2.2967010566176462	-0.18204090667941186
O	-2.7506554301852937	0.4762996973823537	0.8006878083205882
O	-3.8119827001852937	-0.38332931661764635	0.01937828532058805
O	-3.7884461101852938	-1.0684075066176464	1.585227008320588
O	-4.141295380185293	-3.160909346617646	2.258968178320588
O	-4.707660070185294	-1.9538508866176463	1.9930552883205883
O	-3.4917048401852937	-3.091540916617646	3.4906478083205883
O	-3.0934896601852935	-0.9627379666176463	2.820491628320588
O	-2.7063635401852935	-1.9803136766176463	3.635954808320588
O	-5.060053920185293	-0.14066934561764632	-0.5682747476794119
O	-3.3900697801852937	-0.5001600566176463	-1.344993631679412
O	0.07160181981470637	0.8792472883823537	0.9076987383205881
O	-2.658419730185294	0.23189307738235376	3.050072658320588
O	-5.653030830185293	-1.7636495266176462	1.0597164783205881
O	0.6831542498147065	-5.2420900866176465	-12.188099471679411
O	1.1527301398147065	-1.5582439266176464	-11.522242771679412
O	-2.4498400201852935	-0.6597283166176462	-10.660666901679411
O	-5.134507960185293	-0.4340536166176463	-7.952096771679412
O	-5.634738610185294	0.07523837338235373	-4.246852701679412
O	-8.652972610185294	-0.056573750617646246	-1.718025800679412
O	-10.162386810185293	-3.5584233966176466	-2.066785551679412
O	-7.524180970185293	-4.996851056617647	-4.5822645816794125
O	-4.694139050185294	-4.9580160366176464	-7.140508321679412
O	-1.1258237325852936	-3.7081107466176464	-6.668207151679412
O	1.8987371998147062	-5.456029896617647	-7.973155401679412
O	5.562663949814707	-4.841264826617646	-7.9338157116794115
O	11.770104209814706	-5.431870486617647	-4.305806891679412
O	8.394348669814706	-5.189483756617647	-2.578359161679412
O	5.026861739814707	-3.808894816617647	-3.4223763416794117
O	2.2422714298147066	-6.424823586617647	-2.9829243116794117
O	-1.5434487931852936	-5.773246006617646	-2.810315881679412
O	-3.8019462401852935	-8.663104176617647	-3.455520801679412
O	-7.436431190185294	-8.577826556617646	-2.174532171679412
O	-7.6326444401852935	-7.454466456617647	5.067137238320588
O	-8.274008170185294	-4.440198066617646	9.582365728320589
O	-5.504880930185293	-3.211409676617646	7.592631398320588
O	-2.7860928001852936	-5.670586356617647	8.571082778320589
O	-3.2270298301852938	-0.9916984066176462	11.508786628320587
O	0.03685827981470635	-1.5550641766176463	9.644657628320589
O	8.505794919814706	5.178325873382353	11.199336928320587
O	10.470473509814706	6.471636453382353	8.118139818320588
O	7.460127029814707	8.368102853382354	6.803524178320588
O	5.070543429814706	5.508090303382353	7.003777748320588
O	5.583699679814706	3.0190772533823536	4.127030458320588
O	7.057713799814707	-0.08145409661764624	5.719473858320588
O	4.754992059814707	-3.0989791866176466	6.247571658320588
O	6.860631029814707	-6.214625936617646	5.727942918320588
O	1.1036703298147064	-10.619237196617647	4.8282043983205885
O	0.0678138298147064	-13.775632696617647	2.972441738320588
O	-3.2770805701852934	-15.629784796617647	3.056535498320588
O	-4.457633180185294	-15.216862396617646	-1.894584601679412
O	-5.018252600185294	-12.432035796617647	0.622304288320588
O	-1.8956454651852936	-10.350670496617646	0.15572548832058808
O	-0.18987961418529364	-7.495102286617646	1.955260118320588
O	3.604267209814706	-6.872417856617647	1.4206158983205879
O	5.506083649814706	-3.566781416617647	1.940559098320588
O	8.804476819814706	-1.9647572166176464	0.8869082883205881
O	8.872728419814706	-0.9505003066176463	-2.8001320816794117
O	8.948722609814707	2.645001783382354	-3.627724331679412
O	6.194661919814706	7.490253243382353	-7.615253311679412
O	3.2991421298147063	9.042126783382354	-5.800454061679412
O	3.3047452198147065	12.746462203382354	-5.157126221679412
O	0.2219190598147065	12.676474703382354	-7.448231691679412
O	-8.003757600185294	8.825093403382354	2.713902168320588
O	-4.3592627801852935	12.391447403382353	-0.8266000604794119
O	-1.2644589501852936	12.808066803382353	-2.996303991679412
O	-1.8004588221852935	9.370838133382353	-4.5393124916794125
O	-0.9178395511852936	7.8966752433823535	-1.054103073679412
O	2.2494239598147066	9.846109203382353	-0.620694207679412
O	5.175948749814706	8.051382853382353	-2.185551631679412
O	8.475283179814706	9.546727613382354	-2.894375111679412
O	8.130465679814707	10.564744233382353	1.903725048320588
O	6.324039159814706	7.354186233382354	2.818290588320588
O	2.5633593398147063	7.639097233382354	3.588387568320588
O	0.8975220798147063	4.510633143382353	2.532148678320588
O	-2.6527101501852934	2.9425229833823536	2.601045998320588
O	-4.515830260185293	1.8138073833823538	5.557015318320588
O	-7.700784860185293	-0.18718179261764634	4.152421998320588
O	-9.852556040185293	2.5787495533823535	5.188186518320588
O	-7.792881890185294	3.5427608833823534	8.230636808320588
O	-14.964126990185294	7.867091793382354	-4.254100471679411
O	-12.027747190185293	10.347357733382353	-3.940670431679412
