33

O	77.57534179523704	4.799295478362904	-7.558399372273295
O	78.90152671333587	4.937224768384535	-7.58498482354704
O	79.85890088115711	4.284420277893854	-6.812665388866632
O	79.53861535074523	3.499877236065495	-5.834371258075849
O	78.31617023558347	3.0597260205184047	-6.223356310148963
O	77.24623342434239	3.658475643922256	-7.003552601887229
O	79.63644170242638	3.993182218219822	-4.540986519817865
O	78.61855656012516	4.889232531644521	-4.215485772804605
O	77.32127647220247	4.230442708529913	-3.8665259335021114
O	78.52330704561246	5.777945384883084	-4.963736337728636
O	77.19844943605577	2.8746724137071338	-3.7860723914564307
O	76.24455589497646	2.1224898011445683	-4.427175204762324
O	75.17253811430186	2.882248302175689	-4.677958103829712
O	75.12327692293601	4.211153400647109	-4.562164723383129
O	76.22482019850592	4.936524407008901	-4.358775434219231
O	76.66904496270635	5.934062071715799	-7.490562465849793
O	79.58963717414252	6.069235436965224	-7.984673349038095
O	81.05242345846453	6.347253816894578	-8.270757143753885
O	81.00211828227638	7.397748064902005	-7.358294069332242
O	80.15484556746257	6.889970583856401	-6.114741003557867
O	79.56569020806363	7.9878444671059246	-6.858185587902893
O	78.87876501346689	7.246515312928127	-7.96549075595504
O	81.85126819014124	8.34802114571334	-6.890189233515519
O	82.33518802307593	6.958794088563589	-6.288610788727436
O	81.3065855998265	6.25523624913769	-5.6394169887412655
O	83.35612743764466	7.0149806901551806	-7.4505384488373565
O	84.4578070909935	6.400347234020729	-6.841803522852455
O	85.85462753965851	6.4422785937108795	-6.303382908377205
O	83.93340145588775	5.4710856589632915	-5.9556717117531015
O	73.92287722652674	4.458702298207826	-3.7482385778796212
O	74.13869740922084	4.389895144560594	-2.440341028890276
O	72.96606722393362	3.809177799772457	-4.400665711216744
O	73.77975185963096	5.727194788393588	-3.912572500920074
