28

O	82.43748026727359	9.607022662630065	-7.918784600434605
O	81.65143051065643	11.724823386254739	-8.735110545238685
O	80.89595106347376	2.484399846969774	-5.59514861411267
O	83.88161966305324	11.154171723440184	-8.895964670132944
O	85.92199629449202	8.866543047012442	-8.965314155324513
O	81.48441162583151	10.581938451247076	-8.03055173538833
O	90.94558938291405	7.508282987243241	-7.4900538700653
O	82.79684514689924	11.788320716733136	-9.41712305009672
O	80.60478471915062	3.764747078239804	-5.814325813661415
O	86.3476848193827	8.264252826746539	-7.110311191692945
O	86.98036209610899	8.760596834757491	-8.213684342951636
O	89.30782999601165	9.197938497992514	-8.333683024717033
O	88.67635741475493	7.110824472453783	-7.359861134901541
O	90.59318737129423	8.43815718926723	-8.508999160249925
O	89.88443723554653	7.381569820252509	-6.557284332251363
O	82.00669174252394	6.639398446620382	-6.008550653933275
O	80.76156946777326	6.098665602642782	-6.241950645816343
O	84.1403148238294	5.843244604439667	-8.180373293655961
O	83.73594007992462	4.743708422965462	-7.476281918270427
O	84.16833975563799	6.893949979466483	-6.222925593790886
O	83.63513435069025	9.847061502327605	-8.595231394642877
O	85.01356089340923	8.286049654623968	-7.347230499606933
O	84.6310883199438	8.799093015351325	-8.5034168068571
O	88.29305613623524	8.145432955326982	-8.414316696863056
O	83.33774215418971	5.812076263659023	-5.7766369040719
O	84.04822386224537	7.141063974756596	-7.47446441781432
O	82.62340231785788	4.7610660201317465	-6.57747610822279
O	81.24400672101149	4.7631393127088515	-6.513809466295548
