33

O	75.72227002106932	5.606873366742275	-6.927106490324493
O	80.92770754706629	8.580232445063977	-6.448250228831331
O	80.62643194089551	9.920771389526	-6.5752832598625535
O	81.529742482388	11.059245196791355	-7.202098524208163
O	82.40034706794988	8.569186940489043	-6.820566141270345
O	82.00653528139122	9.163136010928518	-8.178733529055796
O	82.27183266490547	10.674019820844135	-8.164239568676656
O	79.85913902027869	7.507069969276369	-6.431377385145137
O	79.07537799593739	7.193895385819917	-5.37095431943764
O	77.79552923356424	6.858840710693385	-5.416581988749162
O	77.11298345904072	6.478865633028467	-6.439192414524677
O	77.71133629008854	7.163158205356999	-7.3559915473293405
O	78.90096553688137	7.754194973773187	-7.2319057394445725
O	83.45416504190867	10.57349106542554	-8.760359092665578
O	83.9390317370253	9.327722737898956	-8.516933645722212
O	82.87020703084052	8.302663790634991	-8.419888098442051
O	82.7772755815394	6.960137335906273	-7.715448641583154
O	81.56971777427394	6.12570843286136	-7.3824362169807705
O	83.84696918294857	6.357867359562137	-7.612133601664786
O	81.28956037692855	5.6511560148738935	-6.16724684991028
O	80.5439160470155	4.541107001398664	-6.059649061783182
O	79.63931180581858	4.425455875540637	-7.101452043827888
O	79.9801067893894	4.80816718990105	-8.328685928719377
O	80.97406207897309	5.723960139362411	-8.52467868729816
O	79.9682393877365	4.46262554275419	-4.80472908295875
O	78.49383454172704	3.7364595368848184	-4.948207065695108
O	78.00206888605491	3.4278049969382183	-6.339907733031467
O	78.98418599275188	2.3910199605371156	-4.656249604830808
O	77.0505340545491	4.024403524257739	-4.2835179794128555
O	76.01029751961579	4.876146839762502	-4.280950930224802
O	75.54873707325666	6.091195174611884	-3.609251133471742
O	80.87219634824767	6.727164477606661	-9.409762350104865
O	82.23486299302954	5.838756626076902	-5.277450687393726
