30

O	83.49373881646282	11.551742974683364	-10.262686918295968
O	83.25327499516261	12.417702696574816	-9.241061420650555
O	82.4669607447592	11.834269803220744	-8.292472339575184
O	82.85765230997589	10.54272413399979	-7.916690060004852
O	82.85229248037155	9.712702174632534	-8.955715035035515
O	83.94037503707436	10.297929189879488	-9.82053937102048
O	83.20045024317332	9.793952088677994	-6.866355220917091
O	83.56893922292467	8.519105876780209	-7.072904279122397
O	83.05713675024214	8.513248871040611	-8.313848282799784
O	85.08855860955073	8.391766689262319	-7.005493090319117
O	83.256158484328	7.2129150121342605	-8.603621513597535
O	81.93369204409665	6.718162083656845	-8.299329129664347
O	81.9333076490406	5.3665947834396714	-8.480948135874877
O	81.76236680742798	4.880372195751926	-7.251547085392788
O	80.72477426102292	5.428649001866359	-6.562700471120976
O	79.90260245079486	6.385928886582061	-7.155020934377876
O	80.74943276414886	7.242257050059193	-7.85515444318356
O	81.00919231324895	5.478084711108339	-5.175379586632139
O	79.69008278524784	5.164343170778203	-4.661728773669157
O	78.55424579916331	5.5865751161607715	-5.44357814119196
O	78.69516997915089	6.425588723193519	-6.558328823509914
O	85.42088404822138	7.199166660071143	-7.0962959569430275
O	82.29731749779799	5.18153271844668	-4.803236019831697
O	86.04675606351606	8.717581966538054	-7.946685184196193
O	86.6056023443483	9.875486641050145	-8.360205869961696
O	86.15473634484962	10.945066010607103	-8.992715800954922
O	86.81311256436804	11.462272844218685	-10.029212348297138
O	88.02169125525786	10.977485384248475	-10.368559331993234
O	88.66511010851586	10.674739628629988	-9.201038163943474
O	87.93735781815931	9.859280423109391	-8.376801579922562
