95

O	-2.2963424562132353	-5.081194470308823	2.567074427738236
O	-3.3405300762132355	-5.072323730308824	1.6461105877382356
O	-2.9750688862132355	-4.658677450308824	0.4055734737382356
O	-1.9785103182132355	-3.720149530308824	0.4035467577382357
O	-0.9231383982132355	-3.712967670308824	1.3423595477382357
O	-1.2439494191132354	-4.2073743203088245	2.563767137738236
O	-2.624473946213236	-6.098705960308823	3.422959537738236
O	-3.2484330662132352	-6.941799500308823	2.6573685577382355
O	-4.081294596213235	-6.188162000308823	1.8961912477382357
O	-0.4559156762132355	-2.3956529103088235	0.9676280477382356
O	-0.35643826021323555	-1.6323605903088239	2.0931529177382355
O	-0.007450366213235471	-0.24873678030882385	1.7292658777382357
O	0.5823157837867645	-2.159767260308824	2.8080253677382356
O	1.1590332437867645	-0.11533459030882365	1.0282795577382355
O	1.4542358537867646	1.1578178436911764	0.7084169787382356
O	0.45899466378676457	2.0908512996911766	0.6155754317382356
O	-0.7786301772132356	1.7782364976911764	1.0291804677382355
O	-1.0940544052132355	0.44128811669117624	1.1879170277382358
O	2.4970531637867643	1.3754259126911763	-0.18364551019176437
O	2.8621229837867643	3.0231281096911764	-0.34731913226176436
O	2.1082527037867647	3.6160334796911764	-1.7700750922617643
O	0.6573446837867645	3.317441419691176	-1.9695367122617644
O	0.6440752837867645	2.0543118596911762	-2.757943812261764
O	4.309767933786764	2.961949869691176	-0.47515606526176435
O	2.6681440737867645	3.7808604696911763	0.8950549877382356
O	-2.1284387852132354	-0.26293179030882374	0.6388183047382356
O	2.0246571737867645	-1.1163320603088236	1.0412461577382355
O	-6.258188016213236	-1.4551216103088236	11.341053057738236
O	-4.214644856213235	-4.2221404503088245	9.743916957738236
O	-0.6801506182132355	-3.056960940308824	10.548902457738235
O	2.3321158237867645	-0.9081348803088238	9.591694477738235
O	4.018730093786765	0.4668841406911763	6.5492229977382355
O	6.806103423786764	2.938099739691176	6.0615426777382355
O	2.5341979437867646	5.072608079691177	9.026183597738235
O	-0.40665667121323557	2.8092173796911766	9.830701557738236
O	-2.2385107442132357	0.6013099786911762	7.308898727738235
O	-5.987965196213236	0.15320249669117625	7.240051717738235
O	-8.428988626213236	-1.7737256103088237	5.149862857738236
O	-10.909977656213236	0.7530422646911763	3.743954007738236
O	-14.681311086213235	-0.6393991203088238	-3.489775792261764
O	-12.123817686213236	-2.1517241903088236	-1.1468426462617645
O	-8.874112416213237	-0.21353163030882372	-0.7596578072617644
O	-5.826012266213236	-0.3128931103088237	1.4714817677382355
O	-5.163536426213236	3.072626999691176	3.157320507738236
O	-1.7917041682132355	4.057025789691176	4.713621077738235
O	-2.0165776822132355	6.993873759691176	7.072512947738235
O	1.1650867737867645	8.970259629691176	7.846929457738236
O	7.856341133786765	11.766301489691177	-2.113554752261764
O	5.826470493786765	8.596939789691175	-2.0737666322617643
O	2.760222503786765	9.945836979691176	-3.868983892261764
O	6.773923623786764	7.969765069691176	-7.123032682261765
O	3.467394803786765	6.042275399691176	-7.063848622261765
O	1.9130296537867646	-1.9783153703088239	-14.053131642261764
O	0.2554948537867645	-5.248504450308824	-12.864399042261764
O	3.1378395637867644	-6.052124180308823	-10.560487442261765
O	3.1701220737867644	-2.7258425103088237	-8.778607722261764
O	0.3975222237867644	-2.349460050308824	-6.178190022261765
O	-2.0336915392132355	0.07543099869117631	-7.7730131922617645
O	-2.0340061552132354	3.606565649691176	-6.432092272261765
O	-5.553669626213235	4.998072539691176	-6.510420172261765
O	-5.301949936213235	8.379133029691177	-4.8303176722617645
O	-4.285278156213236	10.421097609691177	-1.7923251122617643
O	-5.934489246213236	12.464591989691177	0.9712728277382355
O	-4.503803306213236	15.340882889691176	3.0635885077382357
O	-2.0494789592132356	12.386221589691177	5.242635367738235
O	-3.3307635562132356	9.245911539691177	3.5490400877382355
O	-2.3549435462132355	7.115709699691177	0.5819170357382356
O	-4.9199189962132355	4.809199899691176	-1.0873194882617643
O	-4.219424876213235	1.7548535256911761	-3.210397792261764
O	-6.072414106213236	-1.2753664403088236	-4.508399942261764
O	-6.850477036213236	-3.855359260308824	-1.7785085322617644
O	-5.061604656213236	-7.216345650308824	-2.1115479522617644
O	-6.876737136213236	-10.158306710308823	-0.5999938382617644
O	-4.307516616213236	-12.684409210308823	0.3746348607382356
O	-1.2371164457132355	-11.544908810308824	2.058091397738236
O	2.3776145937867645	-10.578212010308823	1.858289437738236
O	4.796270383786765	-13.191636610308823	0.6144201157382356
O	8.836618913786765	-10.301220010308823	1.2696250477382356
O	6.673682493786765	-8.062411870308823	3.4823400777382356
O	6.203736573786765	-5.684642740308824	0.5940352527382357
O	5.333019693786764	-8.354010980308823	-1.9193242222617646
O	1.6429179437867645	-9.028784400308822	-1.9350824922617642
O	-0.07054582621323546	-11.985252910308823	-3.4485619422617644
O	2.3618036737867647	-10.324466710308823	-7.3548089922617645
O	1.9920659437867645	-6.650731090308824	-6.487341372261764
O	5.067691483786764	-4.896881280308824	-5.0700850422617645
O	3.917116393786764	-2.331624420308824	-2.432621102261764
O	5.543519833786765	0.27387799369117627	-0.13111216146176435
O	7.2806876837867645	3.2284719196911764	-1.8108611722617645
O	7.712289553786764	5.410118249691177	1.2672544377382358
O	11.470996213786764	4.835987999691176	0.9858333577382355
O	11.788060413786765	4.790457969691176	-2.8458199422617643
O	15.392189513786764	-1.2554682103088237	10.312377157738235
O	14.851077113786765	-4.283637510308823	8.052349027738236
O	-9.055969566213236	-2.5942991403088236	-10.531321742261765
