34

O	85.11310297947777	8.072469669837789	-8.794449188664633
O	83.86411418634664	8.58017597773925	-8.511499298581633
O	83.75163898974213	8.236978750216418	-7.282156444463204
O	84.96615056794283	7.675702058431377	-7.154419214054211
O	84.96711202966198	6.894875182247889	-8.350136146774625
O	84.02903872365277	5.763775442078588	-8.56711662022661
O	83.730754299435	10.07901998539944	-8.583643164327917
O	82.33835743475548	8.178821521220465	-6.9384544656485705
O	81.29814623320881	7.871381413541175	-7.679612869778984
O	81.47112611335803	6.74889082730097	-5.381295241944401
O	82.4041307565844	7.67008773895694	-5.730280854890782
O	84.66400135140927	10.967051900762568	-9.041560522427135
O	84.14079905432574	11.649898386840082	-10.090749691707169
O	82.8283111026555	11.848948284952705	-10.173912850863402
O	82.06267479482486	11.373533903536767	-9.193003260504051
O	82.5324643575438	10.669681236883982	-8.153483021893301
O	82.96794898789432	5.113886242556124	-8.061154379407068
O	83.16170835713943	4.760646525782246	-6.645634643974529
O	84.30220214448077	5.2792909470211296	-6.162605383560869
O	83.15937872856253	4.766787237860884	-6.645720450749857
O	82.96553534646063	5.116404555080916	-8.062143187838423
O	85.66740415004573	5.348528685874969	-6.072679241511161
O	86.93661384655611	5.581400024652872	-6.418291822671886
O	87.9193224543059	6.469578169598085	-7.105536119291579
O	89.10526514483942	6.965234052988829	-6.6632757610074895
O	89.68203706935635	7.710073637821811	-7.8103832890103275
O	90.19052168468639	6.005330225478642	-6.380076677275672
O	80.57749683191958	6.21292514228146	-6.237486399090069
O	80.45496356559185	6.890838157061021	-7.33743876471209
O	79.5175565640083	6.26038205258483	-8.138567973866977
O	79.48500464552173	4.96975726969883	-7.754958942517635
O	79.63947082833798	5.076546678494137	-6.296304471694422
O	79.85617492468874	3.9728937601918126	-5.6340570406384085
O	80.72446146438946	4.1131203500686695	-4.6036395382357735
