83

O	-1.036293739646552	-4.397880617948276	-2.1060780803689654
O	-1.1725318456465519	-5.100483727948276	-0.9589018917189653
O	-0.017479112646551942	-5.162682547948276	-0.3057725983689654
O	1.060712514353448	-4.269940957948276	-0.4759711413689654
O	0.6011456943534481	-3.099777647948276	-1.0477086859689653
O	0.29703757935344804	-3.960416847948276	-2.2975562303689654
O	1.7381978343534479	-2.238681647948276	-0.7614120183689654
O	2.799908884353448	-3.083493597948276	-1.2093701703689654
O	2.341762704353448	-4.297311687948277	-0.8349697603689654
O	3.827269934353448	-2.9798016979482758	-2.2833105603689656
O	4.583822244353448	-3.974151747948276	-2.4378856303689656
O	3.937649854353448	-2.171526227948276	-3.3855971003689653
O	5.137271324353448	-1.356325247948276	-3.3856761203689656
O	1.580670824353448	-0.979920797948276	-1.2295611483689655
O	2.9102609643534483	-0.525676368948276	-1.5435800923689653
O	3.094730494353448	0.683513764051724	-1.7184258793689655
O	3.6639620543534486	1.407481922051724	-0.6562555253689654
O	2.8577014543534482	1.203423952051724	0.39202731963103465
O	3.1945290043534484	-0.179978540948276	0.6042123596310347
O	3.7700014943534486	-1.075019767948276	-0.3909544383689654
O	2.096533184353448	-0.4626222349482759	1.2663073196310346
O	1.8880113543534482	0.6879537550517241	2.2462406296310347
O	1.955826314353448	1.741910132051724	1.4205294196310347
O	2.2827635843534484	3.103221152051724	1.7583225096310346
O	1.433147034353448	4.082598492051724	1.4050656896310347
O	8.019045184353446	-8.182745327948275	4.714581539631034
O	6.833044634353448	-7.444858867948277	1.1787966696310346
O	9.199164944353447	-4.607344837948276	0.23742094963103466
O	10.018172424353448	-0.858889903948276	0.2370963396310346
O	8.181143304353448	2.423282652051724	0.18535577963103456
O	9.258551604353448	5.980665802051724	0.6066188296310346
O	10.664481624353447	2.723445082051724	4.9567360796310345
O	9.830820724353448	-0.9760257079482759	4.834189869631034
O	6.461633294353448	-2.503663237948276	4.006634539631034
O	4.764230934353448	-5.395600347948276	5.700397339631034
O	1.528325814353448	-7.280188777948276	5.422036829631034
O	-0.1801727846465519	-7.0673377979482765	8.780504669631036
O	-5.312833475646552	-4.809873017948276	12.534776299631035
O	-8.383326925646552	-7.343468767948276	9.363606899631035
O	-5.6212425556465515	-7.296667627948277	6.780772829631035
O	-3.620849505646552	-4.108706167948276	6.568315599631035
O	-0.49012613844655195	-2.963901027948276	4.896898879631034
O	2.0058253343534482	-1.415108467948276	7.369778859631034
O	4.961313024353449	0.826319353051724	6.339764009631034
O	7.5905330643534485	1.262467782051724	9.017988489631035
O	2.7881748043534484	11.782712282051724	5.435992919631034
O	-12.071199175646553	5.242240102051723	-3.278520980368965
O	-9.059579595646552	5.858194592051723	-5.476758360368966
O	-6.735778255646552	6.850588892051723	-2.6964643603689655
O	-5.3766299556465516	3.928837932051724	-0.6836517113689654
O	-7.191686335646552	4.130262252051724	2.625058689631035
O	-5.225915535646552	5.3930177520517235	5.591952989631034
O	4.394347614353448	3.014757152051724	11.403298799631035
O	1.683668234353448	3.876678932051724	8.934818599631035
O	-1.301944551646552	1.530458662051724	8.464581069631036
O	-3.5956000156465517	1.388838742051724	5.447760849631035
O	-6.126967795646552	-0.967916527948276	3.935697159631035
O	-4.5540037256465515	-4.068128597948276	2.3891083896310343
O	-4.9194309456465515	-4.443283227948276	-1.3946937793689653
O	-5.001748095646552	-7.966895217948276	-2.7293037003689653
O	-3.525925105646552	-7.859401137948276	-6.198708080368966
O	-0.5327869723465519	-5.716684987948277	-6.866478930368966
O	0.814344654353448	-2.534932357948276	-8.267935550368966
O	0.031782697353448075	-1.639707977948276	-11.796931400368965
O	3.8206594343534483	-1.923433957948276	-12.238987700368964
O	3.9704157043534485	-5.535688237948277	-11.024137700368964
O	1.151786734353448	-6.5570635379482765	-13.407611900368964
O	2.7202586943534484	2.596673912051724	-11.736240100368965
O	4.452445044353448	1.3542805020517241	-8.693195260368965
O	2.1936559643534483	3.411472562051724	-6.478459160368965
O	-0.9901141316465518	2.403125302051724	-8.214465160368965
O	-2.5176677756465518	-0.632592121948276	-6.613326490368966
O	-5.189236455646552	-2.747469307948276	-8.185432890368965
O	-7.374929495646552	-3.773486007948276	-5.259007170368966
O	-7.390290465646552	1.603863252051724	-8.355254360368965
O	-5.955834115646552	2.915273322051724	-5.105991690368966
O	-3.148908865646552	5.470314842051724	-5.400246830368966
O	-0.641179970646552	4.870499112051723	-2.569126440368965
O	2.547473694353448	6.362843142051724	-1.0439620359689654
O	2.4064181243534484	9.887145602051724	0.2673934896310346
O	5.823611134353448	10.057920982051725	1.9011309296310348
O	6.8756577543534485	12.636580282051725	-0.7113552233689654
O	-12.955077475646553	-1.1616976879482759	4.2971817796310345
