32

O	78.49105668517332	5.715759451997127	-8.06799247213892
O	79.31203192886119	4.909629450218225	-8.969127249456749
O	77.16214666399256	5.37770648948163	-7.685197707476169
O	76.90654595332575	5.829988874021446	-6.389884905245626
O	77.78614986722883	6.177809650665184	-5.504516371554672
O	78.11135455766578	5.409192330917242	-4.435775454685819
O	77.67628628905585	5.77152698600534	-3.440369382838113
O	78.32437397479453	4.093407209460753	-5.042501259425444
O	77.39989877137421	3.3817909192514657	-4.334070528306185
O	76.81293262928295	2.2991232106138937	-4.9946018178995075
O	75.64813870488261	2.7855394792044477	-5.608017282716451
O	75.19648298185399	4.024195854347992	-5.089047306943101
O	75.34152181331243	4.310934764504012	-3.799226860737127
O	76.50272921526853	3.861910657901986	-3.3312639005080493
O	78.80381601234416	6.70515069535775	-5.9806630055529695
O	79.19404337074451	6.650692625603092	-7.293288563927001
O	80.5622826281224	6.329499688848956	-7.1725052603986175
O	81.00541979703115	5.250654259596274	-6.536927234571796
O	81.28972448121642	5.550616558021152	-5.241689175897671
O	80.52247040589636	4.5106833196554135	-4.449751448625067
O	80.47819554565261	3.129811162707912	-4.729436192835995
O	80.56887333470087	2.023436763344526	-3.8296461627161347
O	79.42797700375202	1.944174017169158	-3.10111173863425
O	79.61848241794412	3.164889926476871	-2.5400262325502925
O	80.46098628897268	4.174736505841606	-3.110688329099224
O	82.04449218961727	6.62788373314673	-5.7675539070751505
O	82.02052529750306	7.66000385741558	-6.866671117122122
O	81.33558407353392	7.160741407014785	-7.81137879036519
O	74.42195679071558	4.997352376477791	-3.0002586158310858
O	74.53237783017036	6.344884141474239	-3.4351984193215337
O	73.11176536671175	4.8118001466158145	-3.6327878562206584
O	74.38348539029498	5.153341051056352	-1.5674208590681324
