104

O	0.7120302388632357	-0.9633095761823527	-2.114746380823529
O	0.9418612288632356	-0.7945004561823528	-0.6926555548235289
O	0.16258524286323572	0.05972569481764728	-2.5376722508235288
O	0.11777190386323577	-1.5953689161823528	-0.04353739682352886
O	0.2387205638632357	-1.3657428761823527	1.2862463691764714
O	1.2975228488632355	-0.6675232761823526	1.7850512491764712
O	1.8875635288632355	0.35138150181764727	1.1056956191764713
O	1.5339394288632358	0.3856528545176473	-0.21237266182352887
O	-1.0244792181367641	-0.8648671361823528	1.532554939176471
O	-0.4143038821367642	-1.8289135461823527	-2.525404430823529
O	-1.9084762811367644	-0.14097797518235267	0.8062621491764711
O	-1.6755457771367643	1.0017584018176473	1.6230800491764712
O	-1.6621442771367643	-0.12271058518235267	-0.3843292228235289
O	-1.5113252271367643	0.9420403818176473	3.0747284191764708
O	-0.2699620421367642	1.2584647948176473	3.630181849176471
O	0.1583957928632358	2.310714073817647	2.881386069176471
O	-0.5006246121367642	2.9055614738176474	1.8010351491764713
O	-1.1057978501367642	2.0013059838176472	1.0151434591764712
O	-1.0133723011367644	4.279860833817647	2.134565729176471
O	-0.06288957813676421	4.875488793817647	3.0484932191764713
O	-1.0372090611367644	5.0509528238176475	0.996024999176471
O	-0.28801733513676425	-2.1153157561823526	-3.896571810823529
O	0.5784529988632358	-3.1799788561823528	-3.900914330823529
O	0.7822870888632357	-3.6879833561823525	-5.192955870823528
O	1.3837711288632355	-2.8313978961823527	-6.072520550823529
O	1.1206710088632357	-1.5126241661823527	-5.825465940823529
O	0.3375570288632358	-1.1552895061823527	-4.730589130823529
O	0.28245819486323576	-4.884909946182352	-5.769073300823528
O	0.8948465788632357	-4.847718536182352	-6.932274320823529
O	1.4709141288632357	-3.6436847161823525	-7.1662937208235284
O	-2.3284085511367643	4.4925540338176475	2.627639569176471
O	-3.1345476411367645	3.794470883817647	3.123461409176471
O	-0.5902309656367642	-5.647717476182352	-4.953843390823529
O	-1.1065479521367643	-5.031631346182353	-3.681831830823529
O	-0.7432620638367643	-2.5343107161823526	-0.43699097582352886
O	1.3044616088632357	1.4418231178176473	-1.000459881023529
O	6.679628628863236	-11.524282446182353	-2.913705820823529
O	3.548345348863236	-10.507140046182352	-4.813445810823529
O	0.8979143588632358	-11.238825846182353	-2.202989570823529
O	-1.1105728441367644	-9.919021346182353	0.757229289176471
O	-2.3979618211367644	-6.728408966182352	2.186494029176471
O	-4.005944361136764	-5.883536886182352	5.468828179176471
O	-1.8367380511367641	-7.096224236182353	8.307383569176471
O	1.0327025288632359	-8.259091846182352	6.136729059176472
O	2.8754918888632357	-9.352445306182352	3.019536659176471
O	3.4236923688632355	-7.220943846182353	-0.09158509582352892
O	6.664379818863236	-7.203344366182353	-2.032642650823529
O	7.870436788863237	-5.482083866182352	-5.110383490823529
O	10.674283698863235	0.5790344889176473	-7.987890570823529
O	8.510979408863236	0.5408513981176473	-4.838148080823529
O	5.749253008863236	-1.6331612161823528	-3.306312080823529
O	6.635322618863236	-2.6413331161823526	0.2542005091764711
O	4.171911038863236	-4.067322316182352	2.787368049176471
O	5.759146948863236	-5.877770226182353	5.696241169176472
O	3.700510498863236	-6.3154578961823535	8.87685857917647
O	1.4981737188632356	-0.18074798818235271	11.43426993917647
O	-2.1296310711367643	3.738549633817647	12.60049163917647
O	-1.5366129791367642	3.2092695338176473	8.97584780917647
O	1.7438808688632355	5.2787919038176465	8.74508372917647
O	-3.0920543711367645	8.104095403817647	8.04713479917647
O	-0.6714652748367642	8.038212163817647	5.073482099176471
O	-2.3180997711367644	12.210641853817648	1.8782769491764713
O	-3.056446741136764	13.360196453817649	-4.310417150823529
O	-2.7651039911367645	11.550031153817647	-7.697373920823529
O	-5.523069021136764	9.086624363817648	-6.866091950823529
O	-4.124940911136764	8.051165773817647	-3.6322702508235287
O	-1.1799330991367643	5.5081325538176475	-4.003726860823529
O	1.9443710888632357	7.5648491238176465	-3.0190227108235286
O	3.6822368788632356	6.994351333817647	0.34032699917647113
O	7.343262728863237	7.139331853817648	0.2490224491764711
O	8.542137588863236	6.077694453817648	3.703505699176471
O	8.572195908863236	3.445969123817647	6.456511649176472
O	11.054124898863234	1.0733545988176472	8.056477489176471
O	11.012425798863235	-0.46790321618235275	11.55986453917647
O	7.771797998863236	-3.137039186182353	10.227844639176471
O	7.572747058863237	-2.0171459661823525	6.621756799176471
O	5.681079318863236	0.5251154394176473	4.657684889176471
O	6.920024548863236	1.7676875338176472	1.2621713391764713
O	5.036504798863236	3.3561626838176473	-1.6111935418235288
O	5.3131722488632365	4.094593853817647	-5.295289120823528
O	5.112634978863236	0.9220564158176473	-7.442656430823529
O	2.1355247088632354	0.5512315422176473	-9.79569483082353
O	-2.8335079711367643	-4.263307116182352	-11.52209506082353
O	-5.738061651136764	-3.8934240061823524	-9.160061670823529
O	-9.099817011136764	-3.107169846182353	-10.69957877082353
O	-12.119741401136764	-1.5593130861823528	2.939491519176471
O	-12.958048901136765	-2.7574103061823525	-2.9505651808235287
O	-11.505259501136765	-3.2944552661823527	-6.339254160823529
O	-8.454587351136764	-5.098363646182353	-4.869953970823529
O	-7.2333303811367635	-1.8908482661823527	-3.420140570823529
O	-7.726392561136764	0.15890487081764731	-6.517843590823529
O	-4.613480771136764	0.055412030817647284	-8.575704930823528
O	-4.423743681136764	1.0482949738176472	-12.21122146082353
O	-6.320940821136764	5.163195613817647	-10.417479140823529
O	-4.405887871136764	4.962892843817647	-7.140241310823529
O	-6.390169251136764	3.9185379238176474	-4.040813420823529
O	-4.268603741136764	1.7516964938176474	-1.8908232888235288
O	-4.734637931136764	-0.19449868818235272	1.5498473991764712
O	-5.161935681136764	1.7127540238176473	4.8159606091764715
O	-4.265038171136764	-0.7912014461823527	7.403325699176471
O	-7.961565361136764	-0.6482396861823527	8.28189784917647
O	-8.564135991136764	3.1523771638176474	7.789753869176471
O	-13.165462401136764	-10.857652146182351	5.765566889176471
O	8.562628618863235	10.417053063817647	-5.199849910823529
