69

O	-3.0066908575999998	-2.6709233658545455	-5.403360587525455
O	-3.8275948576	-1.8078293858545456	-4.555461887525455
O	-2.3588353356	-0.6554673258545456	-2.352704407525455
O	-5.1058914376	-1.4199376758545454	-5.151406087525455
O	-3.2479368476	0.5848164232454545	-4.071816327525455
O	-0.6389263375999998	0.9063439671454545	0.8960976924745451
O	-0.24096964759999984	1.7293260541454545	-0.267901362525455
O	-3.1251687276	-0.7605561258545455	-3.8939857475254547
O	-2.1166485726	1.1925188421454544	-3.705915427525455
O	0.9840572924000002	0.9073497091454545	-0.626276956225455
O	-1.8465405856	0.9621350851454544	-2.388602967525455
O	-1.8701881226	3.3352308041454544	-1.689957757525455
O	-1.3583865605999998	2.008826224145454	-1.520826796525455
O	0.3845591023999999	3.2842453141454544	0.19972507847454501
O	-2.4371620955999997	11.206410924145455	-9.474834117525456
O	-0.6577760075999999	13.797160124145455	-7.437029437525455
O	4.9736807124	11.058012424145454	-8.625882657525455
O	9.2315565724	-0.2605166248545455	-11.707584207525455
O	9.0082957724	3.2660141941454546	-10.253986267525455
O	8.9898711724	2.8981132841454547	-1.075201029525455
O	8.7406803724	5.158776414145454	0.878917752474545
O	-11.2524790476	5.805486144145455	-4.7562017975254545
O	-10.0887352976	9.171403374145454	-5.963325307525455
O	-6.639981327599999	8.937660194145455	-4.442016977525455
O	-7.4631513276	8.413610074145454	-0.743835820625455
O	-10.3142312676	6.881032304145455	1.2918494024745448
O	-10.200342167599999	3.1891383041454544	2.177087592474545
O	-11.9765395276	1.5523483841454544	5.130757592474545
O	-12.3301113276	-2.1367152558545457	3.9482869024745453
O	-7.810590767599999	-6.061754675854545	4.025054992474545
O	-8.0703373176	-2.2074029058545457	4.295350192474545
O	-6.5793498476	0.9290898081454544	5.982245682474545
O	-6.1664176276	4.430935404145455	4.434611612474545
O	-4.133499437599999	7.615282754145454	4.968361432474545
O	-1.7427838435999998	9.957467914145454	3.165816432474545
O	0.6390131424000001	8.562380274145454	7.526772262474545
O	-1.7904398436	5.7132972941454545	8.266988122474546
O	-1.3354203675999998	2.4015983241454544	6.311740612474545
O	-2.9275080975999996	-0.8449918858545455	7.541398302474546
O	-2.7321195875999997	-3.2093843258545456	4.554797312474545
O	-2.3473480585999997	-6.998909925854545	5.095947112474545
O	-1.8500435785999998	-9.946025775854546	2.622404962474545
O	-0.09324601759999984	-13.273205075854545	3.194280352474545
O	-4.8884300076	-10.211732475854545	-2.364446417525455
O	-0.2399089675999999	-11.810642775854545	-2.8509713875254548
O	0.8569172923999999	-8.590830555854545	-4.694773487525455
O	2.7773187824000005	-10.743732675854545	-7.158602317525455
O	5.1018221524000005	-12.162347275854545	-4.439284357525455
O	2.9825834523999997	-11.019065075854545	-0.345118328525455
O	2.0943875324000003	-7.991730515854545	1.7657348024745452
O	2.7477522024000005	-6.553803815854546	5.198373172474545
O	1.9130845724000003	-2.8203420058545454	5.657009182474545
O	1.9524781424	-1.2661730258545456	9.183111342474545
O	2.6895607723999997	2.5008135941454546	8.821184122474545
O	6.849421472400001	-1.6239039958545454	-2.355714727525455
O	3.4301400924	-0.21913847485454552	-2.794036447525455
O	3.5644144224	3.6278498041454545	-2.7082320075254547
O	0.9986472123999999	4.052356594145454	-5.436796287525455
O	0.9190084224000001	2.5299623841454544	-8.932942817525454
O	1.4474628024	-0.2573638818545455	-9.738443607525454
O	4.3390710124	0.17449677514545447	-7.248540577525455
O	4.919394242399999	-3.583603085854546	-7.013396117525455
O	7.7707820324	-4.6735824958545455	-4.793674137525455
O	5.853021012399999	-6.967334785854545	-2.564082417525455
O	5.8097939324	-5.270743465854546	0.808141162474545
O	7.092023172400001	-2.4119112758545453	5.718051342474545
O	6.5098647024	-2.1908105658545454	9.446147492474545
O	6.8779002924	1.4538324851454545	10.544929392474545
O	4.9880052924000005	10.023169124145454	-2.636397577525455
