14

O	-2.4230579795746867	7.3563357900414825	14.384900641061963
O	-3.1416443322682213	6.505002949974959	13.438004210539173
O	-4.637454215020897	4.394623108130251	14.72104087575338
O	-2.710182421474283	6.6541853775422295	12.048314735340039
O	-2.841777666376803	4.016130742088853	13.336685310189985
O	-6.963624973732799	1.519639913960215	16.229502938869867
O	-5.567204849769889	1.0294916157062872	16.24762270127768
O	-3.3521300261957894	5.163298128035423	13.866091090089494
O	-2.81298763153227	3.0627705139385886	14.271176759581108
O	-5.224988169220069	1.5895233056897151	17.61657172567301
O	-4.069694268285432	2.79526656110631	14.729954681632226
O	-4.089899648123298	0.40757469637925414	14.082832646201444
O	-4.514858863113281	1.4430890070650053	14.975589616848838
O	-5.471067366049804	-0.6978688177245389	16.43395071248231
