9

O	-4.489924576817215	2.348771963985187	14.832369391763748
O	-4.668998305185193	4.823600089340699	14.325930161173776
O	-5.210516988909803	3.3140311286332933	12.840788225918836
O	-3.91878876594979	3.68130236136955	14.898671826611599
O	-4.339469302766375	2.2186473274058893	13.36661139621648
O	-5.486629888401993	1.7239205008912912	15.576972536513214
O	-4.708974431332602	4.593784537376832	12.936305443682077
O	-5.917986486564287	1.661053959869912	17.12896196281577
O	-5.772245341763336	-0.13927452257454798	15.567003619172219
