78

O	2.1792328928509095	-2.8472168492545458	-4.721248502801818
O	1.9387491228509097	-3.6301896192545455	-3.650281122801818
O	1.5497996928509095	-2.9603948592545457	-2.532408642801818
O	1.6342315228509097	-1.6350138192545458	-4.803428532801818
O	0.9741055128509097	-1.0162206092545458	-3.834643802801818
O	1.3780622828509095	-1.569453599254546	-2.6077107428018182
O	-1.4547038271490904	0.2831054627454541	-1.0921470366018182
O	-1.1915109282490903	0.6013140687454541	-2.3615824928018183
O	-1.2435311264990905	-0.38464527025454587	-3.4507567628018183
O	-0.48159201514909034	-0.9870504792545458	-4.2574376228018185
O	-1.2545909318290904	-1.8742172192545459	-5.080757082801818
O	-0.5643090491490904	-2.9996341992545457	-5.8019095928018185
O	-1.4914536821490905	-1.152884759254546	-1.1220027231018181
O	-1.6104248611490903	-2.014491779254546	-2.1795078328018183
O	-2.3241944371490906	-1.4180534392545459	-3.288157032801818
O	0.8133223628509094	1.760502430745454	-0.3519001808018183
O	-0.6142929661490903	-4.372098029254546	-5.354800242801819
O	0.2707206728509095	-5.1923307692545455	-6.003614052801819
O	-2.17273191114909	-2.2399855792545456	-4.345167372801818
O	-0.8786036801490904	1.106071280745454	1.478325587198182
O	-0.9983843821490904	-2.8465361192545457	-6.958710002801817
O	-1.5183499801490905	2.6597331007454543	-0.0726276828018182
O	-0.8084073881490904	1.390068390745454	0.06319611719818186
O	7.73741343285091	2.7719567207454543	-11.179901642801818
O	10.41340888285091	4.3202768207454545	-9.070634412801818
O	7.03878390285091	9.696665880745453	-8.338975832801818
O	-1.2857950189490903	12.903350170745453	-7.8567039228018185
O	2.2406429328509097	10.049480180745453	2.426919287198182
O	6.25371403285091	-10.092046129254546	-6.313636302801818
O	4.14213767285091	-7.654532959254546	-8.326962302801817
O	7.12832708285091	-5.766453849254546	-9.588271972801818
O	6.733790772850909	-2.8557589392545455	-7.207639212801817
O	6.913602222850909	-4.648773609254546	-3.779196162801818
O	5.9756761928509095	-8.115156629254546	-2.3807891428018184
O	2.42903231285091	-8.693974309254546	-1.0991931877018182
O	1.4239565228509095	-11.338956329254547	1.443692167198182
O	-2.3337418871490905	-11.931015929254547	0.6305182171981818
O	-5.032829447149091	-13.173889629254546	2.8922414571981814
O	-10.89817335714909	-11.857459829254546	2.7614669371981817
O	-6.66714195714909	-8.127362469254546	2.357966227198182
O	-2.8051055171490904	-7.952519839254546	2.1351186971981817
O	0.3605188228509095	-6.434111569254545	3.6806362071981815
O	3.51474895285091	-5.190545949254545	1.9786277771981817
O	6.53614515285091	-2.935760139254546	2.6149298071981817
O	8.256304852850908	0.11002764674545415	1.1811224571981818
O	6.94444329285091	6.886032570745455	3.0730319871981817
O	5.55523794285091	8.702813320745454	6.116112797198182
O	7.44611418285091	1.098756000745454	6.248243847198182
O	4.96969176285091	-1.797496779254546	6.608287627198182
O	1.3914353528509096	-1.329911609254546	5.330674847198182
O	-1.4654832531490904	-3.6021260292545456	6.345284457198181
O	-4.31489459714909	-3.0307293692545456	3.9660766971981816
O	-7.98867416714909	-3.2967889192545456	5.029940687198181
O	-11.308188117149092	-2.579150529254546	3.1459235271981814
O	-14.65113891714909	-1.478197499254546	4.509412157198181
O	-11.342159317149092	2.057859270745454	-3.3444840728018184
O	-13.27147141714909	2.648359850745454	1.668293427198182
O	-9.88671841714909	1.678515860745454	3.087216547198182
O	-7.99892781714909	1.639833180745454	6.350822447198182
O	-4.173888797149091	1.2363585207454542	6.100190077198182
O	-2.1287409041490903	0.5929049067454542	9.317153857198182
O	1.4473047128509096	1.910568690745454	8.714225487198181
O	4.29279627285091	0.6400309477454542	10.967552857198182
O	-4.69095208714909	8.097826170745453	-0.35840829780181827
O	-3.0021609171490904	5.069574070745454	-1.7972537978018184
O	0.7253062828509096	5.676499040745455	-2.190604612801818
O	0.9634159228509096	4.101165250745455	-5.528014242801818
O	-1.0184787091490903	4.757384290745454	-8.725036822801819
O	-3.9436584471490903	5.018413570745454	-8.966887852801818
O	-3.4290644971490902	7.295834650745454	-5.875702662801817
O	-7.16159301714909	7.268342780745455	-5.065189162801818
O	-9.909882247149092	6.510530120745455	-0.17643411880181825
O	-7.72737072714909	5.854331230745454	2.8375296471981817
O	0.2450319928509097	5.345850590745454	11.574690457198182
O	11.662535282850909	-4.901360179254546	-10.132108852801819
O	10.030079182850908	1.9632979607454542	-3.738483112801818
O	8.792033682850908	4.872584250745454	-1.5409211878018183
O	6.872603942850909	8.008654500745454	-2.5124697828018183
