71

O	1.2412446396244894	2.4026059575551018	0.1554770237551018
O	2.491672939624489	2.0005238505551017	-0.30628964424489824
O	2.8889544396244893	0.7369669955551019	0.0016745777551017693
O	2.2162455796244895	-0.2593435544448981	0.6340386657551018
O	1.1082277826244895	0.3281700255551019	1.2512587557551016
O	0.4693267416244895	1.3316144035551019	0.5173829017551018
O	2.2729266996244895	-1.974393004444898	0.6611337897551017
O	1.1027194176244894	-2.6738659444448976	0.05645122575510178
O	1.9930470496244894	-2.5347177044448976	2.032831675755102
O	3.677734459624489	-2.7533459944448984	0.1395006667551018
O	3.3249577696244894	3.1701218255551016	-0.6670490112448982
O	2.8031240696244892	3.792337475555102	-1.6496714342448984
O	3.528915529624489	4.133534835555102	0.48361130475510183
O	3.9278953796244895	5.791452185555102	-0.06558785424489821
O	2.476813949624489	6.389070645555102	-0.8669416252448983
O	2.6890301596244894	7.557168895555102	-1.5257619142448982
O	1.6339764996244894	8.122969875555102	-2.1088558842448983
O	0.5332875806244894	6.007064725555102	-2.009484534244898
O	1.2603915796244893	5.780362115555102	-0.8774890582448982
O	0.17049138932448948	4.9981511155551015	-2.6953740242448982
O	1.3013422696244894	9.552611115555102	-2.178004764244898
O	0.7137733696244895	7.259511155555102	-2.606677084244898
O	15.951406009624488	-0.42100778444489806	-0.8224636252448982
O	10.495198809624489	-2.811965554444898	11.849094895755103
O	4.59222366962449	-10.109024154444898	5.703893635755102
O	8.00644782962449	3.884308325555102	-11.294017804244898
O	8.76644209962449	5.116338365555102	-7.752570134244898
O	12.080519209624489	3.349971885555102	-7.639276504244899
O	10.936456109624489	0.4344694155551019	-5.550350504244898
O	8.072569109624489	-0.9509155344448981	-7.685973614244898
O	5.54118432962449	0.39634075555510195	-10.210090804244897
O	2.1819534196244894	1.731910197955102	-9.036453544244898
O	-1.0150533403755106	1.857425457555102	-11.115901204244897
O	-3.087790210375511	4.662972515555102	-9.409270274244898
O	-6.82953637037551	5.150199535555102	-9.381863514244898
O	-10.156298290375512	7.738678805555102	-5.028571694244898
O	-8.94843416037551	1.4113365545551018	-3.8768596642448983
O	-6.05621735037551	3.907325225555102	-4.222684374244898
O	-3.2977904503755107	1.9564980335551019	-6.116663824244899
O	-1.9490053403755105	-1.543465494444898	-6.894900134244899
O	1.6765230696244893	-2.6821565944448977	-7.299928694244898
O	3.6859198596244895	-5.933895834444898	-7.300593154244899
O	0.07863176802448947	-8.350898654444897	-6.216863774244898
O	-1.0828497403755106	-5.7490697044448975	-3.574049354244898
O	-4.32556281037551	-3.794441804444898	-4.058853574244898
O	-4.127077220375511	-0.9210193944448981	-1.5663186842448984
O	-7.35067138037551	0.4518241355551018	0.026938406755101785
O	-7.983371180375511	3.151623465555102	2.753584555755102
O	-10.798732790375512	3.483751035555102	5.248948005755102
O	-4.838972540375511	8.147519785555101	2.689815075755102
O	-2.394180860375511	10.154031075555102	4.811912755755102
O	-5.68109447037551	6.431564435555102	7.250338395755102
O	-2.0391624003755107	5.170778585555102	7.642731195755101
O	-2.0058439703755107	6.596860315555102	11.157464395755103
O	-6.74069352037551	2.567019264555102	8.357090035755101
O	-5.87107459037551	0.2711320755551019	5.452088905755102
O	-7.0785530103755105	-2.945824574444898	3.831452195755102
O	-4.5839157303755105	-4.644285444444898	1.425331685755102
O	-5.71328697037551	-7.572692334444898	-0.7938847962448983
O	-2.6435913803755104	-9.760691554444898	-1.589081214244898
O	1.6251580496244893	-3.5273833644448978	8.544966045755102
O	2.9437279696244896	-1.9634058844448983	5.347855775755101
O	5.78007993962449	-4.049947644444898	3.909805755755102
O	7.96848739962449	-1.145788294444898	3.031442885755102
O	9.17416096962449	1.7433990479551018	5.232237095755101
O	7.55799741962449	3.396355265555102	7.078163675755102
O	6.21957929962449	-0.08517324444489804	8.083861265755102
O	3.2469114496244895	1.446164910555102	9.912185095755103
O	-2.2410670503755106	0.012923305555101905	10.005450995755103
O	-3.1989629803755104	-2.854229274444898	7.731193825755102
O	-4.54278768037551	-12.805439654444898	1.3596379057551018
