23

O	-5.6468711942557075	0.8175754334792611	18.335376792153546
O	-6.024577761321478	0.7415534914713184	16.91576679161898
O	-7.486343879530671	0.8310589454715545	17.001219309004952
O	-6.245537673653795	3.4970315033800423	15.76801166980042
O	-5.368850788192027	2.0309405039294885	15.976101325586445
O	-6.545104601391152	5.934504073842979	13.0671962101192
O	-4.35951221869334	2.148228531847242	15.07343180173187
O	-5.300069939605249	6.811450431495768	14.888613243271909
O	-4.092227038156757	3.4130066441462654	14.641553470199744
O	-5.185965912265341	4.233640474953384	14.687339391966486
O	-5.31714323189908	5.732435771053429	13.868076037765128
O	-3.8669953422698904	5.856935877636367	12.92693678034197
O	-3.2165486536613397	4.616103739365282	12.632021713337746
O	-2.8998042269174222	4.022149525337488	13.957269946370394
O	-3.0930881794645284	7.0230990352764175	13.031312121754603
O	-3.8571518166328493	8.162341566451111	13.329181473303752
O	-3.3854625381515864	9.281272380104959	12.726731885909455
O	-2.043278030489863	9.489449904486214	12.759939758182366
O	-1.2001112804342835	8.444420507442175	13.104077925254137
O	-5.4458679311196745	-0.7015790348888515	16.249448272323882
O	-1.7457899248504747	7.189481088789064	13.132165159870514
O	-0.0392855255184017	8.890017403912195	13.694320787859713
O	0.08367326922888818	10.081485417538818	14.421936192184521
