76

O	-0.9324557074310342	1.0665877721724135	-1.053210990362069
O	-2.3940544604310343	-0.3262332028275865	-3.002160160362069
O	-2.474754520431034	-1.0695824828275866	-0.5177066333620689
O	-1.5601457864310342	-0.47025526282758645	-1.518869480362069
O	0.09334814156896576	1.3103886961724136	-0.1954412103620689
O	0.5888297595689658	4.964460867172414	-0.604977717362069
O	-0.4852283614310342	-1.4872053428275864	-1.554126440362069
O	2.0762377295689656	5.149012317172414	0.3214268946379311
O	0.6507931795689659	2.5797517971724133	-0.0900863243620689
O	1.5535451495689658	4.815062977172413	1.662605929637931
O	0.02572837056896582	3.674494427172413	-0.6058861673620689
O	2.936020059568966	4.1604141071724134	-0.30869205036206887
O	-0.9085333553310342	3.4059630471724134	-1.565756630362069
O	-1.5738882674310342	2.196815255172414	-1.4611361003620689
O	2.628881869568966	6.806666947172414	0.4220658986379311
O	1.4482910195689658	7.699865537172414	0.673646800637931
O	0.21428488956896574	6.8818101571724135	0.8783798006379311
O	-0.2577826154310342	6.070385127172414	-0.2941172233620689
O	-8.797220730431034	9.236564537172413	-8.45023198036207
O	-13.804662300431033	4.364632517172414	-5.796315530362069
O	-13.203378300431034	4.344050727172413	6.6627087796379305
O	-13.963490200431036	3.315160517172414	3.064512349637931
O	-9.318527370431035	-4.294022652827586	0.9006963466379311
O	-9.213058110431035	-5.727640732827586	-1.735279350362069
O	2.5352300495689657	10.184977447172413	-8.178828360362068
O	-0.46004096143103423	10.603855027172413	-10.40840536036207
O	-2.1773698704310345	7.390825067172414	-9.387373700362069
O	0.4973711595689658	4.7921717371724135	-10.20331026036207
O	4.3033253995689655	4.686113857172414	-10.413685060362068
O	6.3579224495689655	3.7985256271724133	-7.362307370362069
O	9.861262699568965	2.2896612801724134	-7.398821830362069
O	11.286896599568966	3.3812935371724135	-3.9446696303620685
O	13.986102399568967	1.7296864101724136	-1.923924890362069
O	14.574688999568966	1.6864242141724135	4.0787193596379305
O	9.800023399568964	0.6753373041724136	1.206482289637931
O	8.323131339568967	0.7271640541724136	-2.3761909003620687
O	6.513204429568966	-1.3848902028275865	-5.031871720362069
O	3.859233239568966	-0.28093134282758636	-7.551922730362069
O	1.1735170995689659	-1.8066035728275864	-9.77405585036207
O	-2.5429371104310343	-1.6232646428275863	-10.49580106036207
O	1.9541229495689656	-5.909209652827586	-8.16807103036207
O	2.162627209568966	-4.615145042827586	-4.517318300362069
O	5.450226639568966	-4.802881342827586	-2.5725347203620688
O	4.9245385595689655	-2.4888381528275865	0.4174606556379311
O	6.679862369568966	-3.272533192827586	3.7746738796379313
O	6.459691609568965	-1.5476981528275864	7.251698899637931
O	6.950502349568966	-3.059091552827586	10.69793633963793
O	6.4188765395689655	4.283537657172413	7.740241109637931
O	4.241178449568966	7.163884827172414	8.961030559637932
O	3.442254939568966	2.0619095941724135	10.99080673963793
O	0.2538527195689657	3.051126577172414	9.03981315963793
O	-1.385639257431034	3.994750377172414	12.30674343963793
O	-1.1446199854310342	0.40467427717241367	13.69971403963793
O	1.9055709195689658	-1.8029949928275866	10.804579239637931
O	2.203798609568966	-2.978823662827586	7.199104549637931
O	2.7271982195689657	-6.145252602827586	5.226309649637931
O	1.869709139568966	-6.023497312827586	1.4917490096379311
O	2.844331609568966	-8.921099542827587	-0.8410045893620689
O	0.38929769956896587	-8.957764642827588	-3.8113346403620687
O	1.3894298195689658	-10.776829942827588	-7.034187690362069
O	-6.236139010431034	-2.0795029228275865	4.424112719637931
O	-4.498576890431034	0.19854144717241362	1.963648939637931
O	-6.416246150431034	0.09552761717241354	-1.349658550362069
O	-6.126097960431034	3.7951011271724138	-1.945111260362069
O	-7.001176880431034	6.7380579871724136	0.3355232066379311
O	-6.4782182004310345	7.0510699271724135	3.2181915196379314
O	-7.610611050431034	3.377764867172414	3.2343434996379314
O	-6.196846880431035	2.8017220071724136	6.718741699637931
O	-6.717785770431035	-0.6447253428275863	8.14005816963793
O	-3.1512863204310344	-1.4501035228275863	8.845977469637932
O	-2.265517530431034	-4.209536112827586	6.429252069637931
O	-2.1292538604310343	-8.949308542827588	3.0332848196379314
O	0.026239572568965808	-11.718569542827588	1.607973729637931
O	-1.3816869354310342	-12.756485942827586	-1.7946357203620689
O	-2.7442944804310345	10.625577487172412	-14.49423526036207
O	-10.400537070431035	-0.6224447728275864	-6.505000890362069
