73

O	-3.130175342733333	-1.3527125294629632	5.540394065685185
O	-0.9796139457333334	-2.655381929462963	3.7329256256851857
O	-3.4078407727333335	-3.7906758294629634	3.310600985685186
O	-2.580428562733333	-2.599318139462963	3.1207181056851856
O	-4.307847282733333	-0.8361072294629631	6.124202465685185
O	0.9919783872666668	-1.3015577294629632	3.798291835685186
O	-2.5915690027333333	-2.239016459462963	1.6848975056851856
O	-0.01265456273333343	-1.208054379462963	1.6645498256851856
O	-4.970119112733333	0.1805711635370369	5.439074945685185
O	1.6088268772666665	-0.3469342554629631	3.1540744356851858
O	2.6679854072666664	1.4110043815370368	0.23876282868518556
O	2.7029073772666665	-0.009259773462963139	0.6142187336851855
O	-4.375101092733333	0.5624314704370369	4.268105835685185
O	4.263570387266666	-0.4094960194629632	1.1590505756851857
O	2.284593167266667	-0.5996046394629632	-0.6624518943148145
O	-3.2770824827333334	-0.07893781746296313	3.6733777356851856
O	-3.1696208627333333	-1.3694994394629632	4.180472395685186
O	-0.25297639473333333	-1.4763677194629632	3.366573305685186
O	1.5356109972666667	-0.4570923094629632	1.8046915156851855
O	8.492070577266666	-1.0032448994629632	13.268629285685185
O	10.742545817266667	5.494765580537037	10.361440565685186
O	0.7821227772666666	12.705256400537037	8.358178785685185
O	4.324943137266667	11.289622400537036	8.209853865685186
O	6.135552757266667	8.165691820537036	-0.20227668431481444
O	8.613010677266665	6.780726850537037	-1.1868754243148145
O	2.0014440672666667	-9.662554299462965	9.749590135685185
O	5.157455297266667	-8.809812659462963	11.585270485685186
O	6.329643317266667	-6.166402739462963	9.163024395685186
O	6.479770457266667	-8.126356099462964	5.881741355685185
O	4.697831317266667	-11.129633599462965	4.345893005685186
O	1.5484590172666666	-10.651854999462964	2.3125873356851856
O	0.15991184726666652	-12.937122299462963	-0.3766396473148144
O	-3.6434829927333334	-12.100292999462964	-0.34991113631481446
O	-11.043295472733334	-9.274088729462964	-4.2085568043148145
O	-5.927755552733333	-7.203738059462963	-2.927922274314814
O	-2.3716287627333337	-8.309652069462963	-1.8686912143148147
O	1.3644568372666668	-8.143404429462963	-2.7962831743148144
O	4.3789910072666665	-7.931334899462963	-0.4318210883148144
O	8.051196197266666	-6.922904149462963	-0.4831443023148145
O	7.754768757266667	-5.612652909462963	-4.754473284314814
O	4.362035477266667	-3.8148796794629627	-4.145497624314815
O	1.1684255972666668	-5.058888939462963	-5.850094154314815
O	-1.6596211897333335	-3.336266429462963	-3.939601484314814
O	-4.927384822733334	-2.424460059462963	-5.759158074314815
O	-8.082764662733332	-0.4959501194629631	-4.591021514314814
O	-10.502795522733333	1.568346698537037	-6.668938784314815
O	-10.430079372733335	-1.397063669462963	0.6624826176851856
O	-11.268460582733333	0.41730721753703687	3.905486945685186
O	-10.639446872733334	3.341640780537037	-0.7398277543148144
O	-7.833839102733333	4.450707090537037	1.6108342456851854
O	-9.791851032733334	7.521855370537037	2.5830946456851858
O	-9.703633802733332	8.880463720537037	-0.9975972643148145
O	-8.321377682733333	5.183358890537037	-3.633547124314814
O	-5.294817492733333	2.988592520537037	-4.265817164314814
O	-2.9794130727333332	2.099546990537037	-7.126646454314815
O	0.3396667272666667	0.42825245653703686	-6.142613744314815
O	2.6135618072666666	-1.099148489462963	-8.850155434314814
O	6.232657267266666	-1.0522932594629633	-7.511632074314814
O	8.826607207266665	-3.379130129462963	-9.119944174314815
O	1.0078360472666668	7.495029390537037	0.14892203668518555
O	1.1690588872666665	4.190009090537036	1.9483755456851855
O	4.826794767266667	3.591095750537037	2.999625835685186
O	3.8824138072666665	2.179914940537037	6.344726745685185
O	1.5783660672666668	3.602763840537037	9.068410365685185
O	-1.0318626351333333	4.936626800537037	8.763291355685185
O	0.7706924572666667	6.550829740537037	5.816264615685185
O	-2.457272612733333	7.817064750537037	4.250687555685185
O	-2.0877446557333332	9.841839610537036	1.0963230226851857
O	-4.2424095027333335	7.761215060537037	-1.1205338243148144
O	-1.9033815427333334	6.170951530537037	-3.5966087643148144
O	2.2683378272666666	5.060787930537037	-7.524854274314815
O	3.1708120472666668	3.159813920537037	-10.671727914314815
O	6.912879087266666	2.369053470537037	-10.592322114314815
