75

O	0.23956364050793688	3.606484184607937	1.6419121502222223
O	-0.14805486949206315	2.0362390446079366	1.2388240002222222
O	0.834429020507937	1.2809468486079365	0.4250784292222222
O	-0.45683717949206315	1.0034248346079366	2.238062630222222
O	-1.6310996837920633	2.123929274607937	0.34632870622222217
O	-1.894259031492063	0.9495389396079367	-0.3650638624777778
O	-2.915421519492063	1.1503737796079367	-1.2417843737777778
O	-3.8779035494920633	2.092067504607937	-1.0650772897777778
O	-3.9074935994920628	2.557902924607937	0.1954983652222222
O	-2.799289029492063	2.4429056946079366	0.9746791302222222
O	-3.2483564594920633	0.1287071656079367	-2.1459064697777777
O	-4.147127309492063	-0.5582784853920634	-2.4407466197777774
O	-5.632104899492063	14.539627534607936	3.7772995002222225
O	-2.4411704134920633	15.565116634607937	5.447211550222222
O	-3.612211199492063	11.680218634607936	10.364302160222223
O	-2.247931193492063	-0.4259944353920634	12.201247860222223
O	0.639473620507937	0.6501419793079367	10.012095360222222
O	3.2494554805079368	2.094146324607937	9.738460460222223
O	-2.756193479492063	12.217933734607938	-2.093425039777778
O	0.20262215050793686	10.797693334607937	-4.038230949777778
O	0.9053499605079367	9.715980074607938	-7.631013989777778
O	0.2413163805079368	6.114495314607937	-8.628315559777777
O	1.9502399605079368	4.297426994607936	-11.517574139777777
O	-0.6202604224920631	1.5298280056079365	-12.419987139777778
O	0.00658246050793676	-1.783482225392063	-14.046411639777777
O	-2.0342501544920633	-4.294481335392063	-15.969008139777777
O	-3.0681004594920633	-6.9084985853920635	-13.319446939777777
O	0.46400450050793673	-11.613635965392064	-5.343510479777778
O	-0.0175495894920632	-9.491554465392063	-8.461720699777777
O	1.4916194805079368	-5.9843344053920635	-8.698562119777778
O	-1.3003802934920632	-3.466664625392063	-9.187732119777777
O	0.40963137050793663	-0.044291214392063294	-8.575181459777777
O	3.3892419305079367	1.7023037346079368	-6.879266379777778
O	3.5166708505079374	5.168461544607937	-5.270934329777778
O	5.595366290507937	7.122595064607936	-2.7757243997777774
O	5.369135580507937	9.023773154607937	0.49459805922222216
O	6.178713480507937	6.124266874607937	6.969576980222222
O	8.135356410507937	3.226028334607937	8.519715460222223
O	9.195755270507936	5.593225224607937	1.1071150502222222
O	8.293954470507936	3.6189638746079367	-2.0329035297777778
O	5.332311940507937	1.1641534586079367	-1.846634169777778
O	4.770106310507937	-1.5803996253920634	-4.401102619777778
O	1.1485248605079368	-2.7153620453920633	-3.8916705597777774
O	0.21420787050793688	-6.387121025392063	-4.608501649777778
O	-3.078503159492063	-8.377319315392063	-4.140377339777777
O	-3.571425599492063	-12.095231465392063	-3.4592071297777776
O	-8.238208979492063	-6.105517975392063	-5.630402529777778
O	-8.663049399492063	-5.700503945392064	0.7932551202222222
O	-11.382781109492063	-7.390000965392064	2.7750128402222223
O	-9.076832829492064	-10.284141165392063	3.8170357202222225
O	-5.315949099492063	-9.946493365392064	0.9475402602222223
O	-2.371444875492063	-7.668253265392064	0.22663294322222222
O	1.397996300507937	-7.712084965392064	0.17968649222222222
O	3.162580110507937	-4.293530235392063	0.15428163122222222
O	6.973585490507937	-4.107549035392063	-0.45992951477777777
O	8.276290270507936	-0.8812269253920634	1.2207792802222222
O	11.671555070507937	0.5486785186079367	0.10170353622222222
O	-2.7002516694920633	-2.210397025392063	7.314780900222222
O	-3.0954657794920633	0.3212345596079367	4.4867769702222215
O	-1.4970941744920632	3.6145416746079366	5.628849220222222
O	-4.235896119492063	5.748802864607937	4.167005820222222
O	-8.023667069492063	5.579881444607937	4.733830020222222
O	-9.726718069492064	3.1792791246079366	4.690460430222222
O	-6.817009339492063	1.7984573146079366	6.797270220222222
O	-8.001174479492063	-1.7797656453920632	6.368071090222222
O	-5.940786489492063	-4.396367065392063	8.130001170222222
O	-5.194767539492063	-6.533700685392064	5.175558360222222
O	-1.4945412204920632	-6.117222085392063	4.5665418402222215
O	1.5177681405079368	-8.298331485392064	5.054647260222222
O	4.304199210507937	-5.656027545392063	5.038869010222222
O	7.648235780507936	-6.509265215392063	3.480427400222222
O	10.148884970507936	-3.7515614253920635	4.365020950222222
O	1.8866406205079367	12.755434334607937	2.7274561502222223
O	3.118098080507937	10.238403654607938	5.365175220222222
O	1.3502444305079366	8.779217434607936	8.388482270222223
