10

O	-5.606708731710755	4.67893577846257	13.905345983909648
O	-4.440708155426205	3.9719945246796415	13.906746350844417
O	-4.460692371400572	2.7684066868294996	14.646818460748054
O	-5.3125937354129675	2.5240823643165875	15.721253325319509
O	-6.039788627898394	3.6898913287602046	15.98811238393144
O	-5.986459266877607	4.85568018605607	15.201490437580242
O	-5.847915144740325	1.0845306458922033	16.46127350853319
O	-5.6914293204144855	1.2034548478946339	17.929556850910394
O	-7.333311197381104	1.0530030963741266	16.3468625546721
O	-5.200036505709065	-0.365998940126083	15.903535612430927
