79

O	0.3940362463535707	0.21597300559464286	0.5317768706196426
O	-3.3048099036464293	-0.08895959260535716	-1.7228276593803573
O	-1.5310461120464292	-1.058616332405357	-0.7036409225803573
O	-0.9851677316464292	0.21847697359464285	-0.5404549166803573
O	-1.4377849826464293	1.2968888675946428	-1.2237837723803573
O	-2.804638693646429	1.182184167594643	-1.4517360113803572
O	-0.5854980586464292	2.753632717594643	-0.8677815113803573
O	0.8566960463535707	2.425974207594643	-0.7215349973803573
O	-0.9289308016464292	3.160009407594643	0.5068354406196427
O	-2.3916992806464292	-2.288696092405357	-2.5214434793803573
O	-2.7903003936464295	-1.768218272405357	-3.8230034693803576
O	-0.9116205176464292	3.886176077594643	-2.0869991793803573
O	-1.7490315566464292	-3.303310822405357	-2.249466249380357
O	-4.520453793646429	-2.0985206124053573	-3.9723289893803573
O	-4.6856830736464286	-3.625141292405357	-3.0351680093803575
O	-4.50966793364643	-3.319325902405357	-1.7021856493803573
O	-4.584876563646429	-4.442057572405357	-1.0045349523803573
O	-3.7736473836464293	-4.567938252405357	-3.4139392193803575
O	-3.800109333646429	-5.6932669824053574	-2.718825669380357
O	-4.501690513646429	-5.734321312405357	-1.5614494123803573
O	-5.374093403646429	-4.524476892405357	0.2308118116196427
O	-2.614620063646429	-6.563070792405357	-2.843279989380357
O	-2.6227940036464292	-1.273140092405357	-1.4735896593803572
O	-10.913414043646428	6.843220537594643	-9.288329899380358
O	-10.668552923646429	11.739938067594641	-3.699729099380357
O	-11.84940038364643	8.442122117594643	4.463412050619643
O	-2.693293373646429	9.388877167594641	4.692245380619642
O	-0.9338333486464292	11.099398267594642	2.963981540619643
O	-5.165737793646429	-2.567778482405357	-12.043753919380357
O	-6.71135341364643	0.5338947365946428	-13.503904919380357
O	-5.408376233646429	2.893343097594643	-10.852343919380358
O	-1.6378247124464291	2.366610047594643	-11.140628319380358
O	0.6894170663535708	-0.4768996204053571	-12.184070119380358
O	1.832616636353571	-2.990046452405357	-9.569609409380357
O	5.00674225635357	-5.048703802405357	-9.805060049380357
O	4.22096788635357	-8.110697072405358	-7.565348019380357
O	6.708331956353572	-10.290876932405357	-5.784699409380358
O	5.802593276353571	-13.280793132405359	-0.6512683530803572
O	7.618766016353572	-7.061416492405357	0.3020997266196427
O	4.4546360363535715	-7.864786602405357	-1.6185324043803573
O	4.2763103263535704	-5.206398502405357	-4.412657229380358
O	5.580765456353571	-1.709057672405357	-5.448717189380358
O	3.7461423963535707	0.9481757055946428	-7.508224669380358
O	3.8842924663535707	4.692900337594643	-8.208189909380357
O	7.175826536353572	5.257425217594643	-5.238467899380358
O	5.470007756353571	2.9515002575946427	-2.6214092993803573
O	7.095212386353571	-0.3568740514053571	-1.6159831463803571
O	4.3413888663535705	-2.283536612405357	0.16833456961964277
O	5.206489426353571	-4.729760402405357	3.003827800619643
O	2.985630716353571	-6.847192162405357	5.384579390619643
O	3.730304976353571	-8.019767062405357	8.918878310619643
O	-1.732623265646429	-9.650205382405359	3.375067940619642
O	-5.480260143646429	-9.890484342405358	3.9203120706196426
O	-2.3805684036464294	-7.735398902405357	7.883422720619642
O	-4.585148753646429	-4.879464832405357	6.550942280619642
O	-6.95667103364643	-5.428033232405357	9.486207880619643
O	-4.280072753646429	-4.558077742405357	12.103327680619643
O	-0.19372676364642927	-4.701923082405357	9.697844180619642
O	1.6736268763535707	-2.857648012405357	6.957097500619643
O	4.917865956353571	-0.9620277984053572	6.4604656806196425
O	5.11777483635357	1.257787627594643	3.3213874406196426
O	8.461676416353571	2.827017647594643	2.246608040619643
O	7.70154222635357	6.025884207594643	0.23615282261964277
O	10.40319541635357	7.453599717594643	-2.0728694793803575
O	-3.3674600836464292	4.471455967594643	6.127753080619643
O	-3.587677213646429	3.104191137594643	2.6054951706196423
O	-3.948071363646429	6.051491357594643	0.19423061061964275
O	-6.50624362364643	4.311339197594643	-1.9470986493803573
O	-9.83672437364643	2.667306377594643	-0.9817913853803573
O	-10.351112103646429	0.8316867065946428	1.2573815606196428
O	-8.16944231364643	3.4408554375946427	3.081941350619643
O	-7.62970993364643	1.174372647594643	6.057616920619642
O	-5.574766403646429	2.611972957594643	8.905856640619643
O	-2.996632253646429	-0.08547272070535715	9.028902470619643
O	0.2021619963535708	1.521445217594643	7.854459510619643
O	4.737419006353571	5.066226357594643	6.839474060619643
O	8.474403516353572	5.272059607594643	6.2317486106196425
O	9.208021816353572	8.304259167594642	4.010445220619642
O	-7.165433493646429	4.042964207594643	-16.568813519380356
