70

O	1.2917330606339625	0.4333869363811319	0.3778257820943396
O	-0.16957511536603756	0.4679203403811319	2.4350810060943395
O	0.2994203596339624	1.301938696381132	1.3512736360943396
O	0.9526728506339625	2.7089033533811318	2.0114789360943393
O	-0.8944538443660376	1.4146203163811317	0.5189619120943396
O	0.8925167906339625	0.20051135138113185	-1.0235228519056605
O	2.1052427006339625	1.171830759381132	-1.5167963839056604
O	3.1835773706339623	0.2988528763811319	-1.9283183039056604
O	3.211871800633962	-0.0646114816188681	0.7269608160943395
O	3.7480788306339625	2.653794983381132	-0.34544108880566043
O	2.1689747706339624	2.348525243381132	-0.5081442329056605
O	1.8728005106339625	0.7150179828811319	-0.0757555149056604
O	2.6534989206339623	-0.536993996618868	-0.7280519159056604
O	3.9441846006339625	0.10803870938113191	-0.6195115349056604
O	4.225728780633963	1.306600721381132	0.4010359380943396
O	3.0551233306339625	2.2533688933811318	0.9874199760943396
O	4.213838580633963	1.845480303381132	-2.0034559639056604
O	14.112377290633964	3.991370423381132	2.8678855460943398
O	11.283482290633962	2.5752686533811318	9.67564094609434
O	6.797741040633963	-9.100543196618869	9.97431016609434
O	7.471757780633963	-5.443461586618868	10.86313096609434
O	-0.13654102836603757	-0.4846035966188681	9.83728246609434
O	-0.47574654536603755	2.468892263381132	10.20167946609434
O	9.836688890633964	4.558075983381132	-7.70125252390566
O	12.250415990633963	6.264396553381132	-5.35858276390566
O	9.968131090633962	6.1574025433811315	-2.3353185139056603
O	6.882500570633963	8.050089493381131	-3.66396426390566
O	5.1654395506339625	8.580739833381132	-7.0284265539056605
O	2.5162610006339623	6.140917753381132	-8.27130632390566
O	-0.24059280396603755	6.984872503381132	-10.78332683390566
O	-1.0894755763660375	3.501673883381132	-12.29904173390566
O	-4.406220539366037	-0.629727536618868	-9.45210237390566
O	-2.6437697793660377	2.6574313633811317	-8.42035294390566
O	-2.7492732693660376	5.7141440733811315	-6.066321363905661
O	0.26504358663396244	7.3858979233811315	-4.29965811390566
O	0.9563771006339624	9.652551103381132	-1.3237250339056603
O	2.9603457506339623	9.902858193381132	1.8692331160943396
O	-3.313076229366038	9.548795893381131	-0.1198943269056604
O	-3.4866350293660378	5.666930593381132	-0.6934497029056604
O	-5.950728139366038	4.371484493381132	-3.42059414390566
O	-4.895801549366038	0.7308662731811318	-3.8426226539056607
O	-7.3374531893660375	-2.066025666618868	-4.79206623390566
O	-6.846273849366037	-5.913207566618868	-5.09752142390566
O	-9.458996249366038	-8.643164006618868	-4.64897369390566
O	-2.0404038193660377	-8.201505586618868	-7.55540531390566
O	-3.7091984393660375	-10.862578186618869	-3.74412253390566
O	-0.8498640793660376	-9.594400986618869	-1.4371201739056605
O	-0.4419219563660376	-13.155387586618868	-0.1737478069056604
O	-4.013197049366037	-13.303525386618869	1.2559952660943396
O	-6.213163919366037	-9.575894586618869	-0.6921449319056604
O	-6.182238369366037	-5.7829845066188685	-0.6632764609056604
O	-8.450033449366037	-2.864606596618868	0.1449053590943396
O	-6.695936399366037	0.5315395063811319	0.5889702300943396
O	-8.726106509366037	3.789936733381132	0.8741632960943395
O	-6.6135135193660375	6.324100703381132	2.86964129609434
O	-0.8296091953660376	-4.2445283666188685	6.35849670609434
O	1.1959446706339625	-2.517442436618868	3.6251642460943394
O	2.9562386306339623	0.4806310523811319	5.07396117609434
O	6.225736930633963	-0.17018246761886813	3.482404426094339
O	8.279156000633963	-3.376746496618868	3.007469086094339
O	7.306863060633963	-6.109463546618868	2.5230336760943395
O	4.7084486406339625	-5.040295496618868	5.15551405609434
O	2.459496170633962	-7.994909456618869	4.3477762060943395
O	-3.1147221193660375	-8.321333086618868	3.58370975609434
O	-5.0094715593660375	-5.073407246618869	3.8403905760943395
O	-7.841481849366037	-0.3074967966188681	5.57198369609434
O	-10.623031609366038	2.1453588733811317	4.79858056609434
O	-9.666315089366037	5.546293863381131	6.28239405609434
O	14.590907290633963	9.878890963381131	-3.52106232390566
O	5.861439380633962	5.176010483381131	8.73166471609434
