77

O	-4.490175328099999	0.03362907766833345	0.25803463861166653
O	-3.7392285080999996	0.9858203896683335	-0.16867717438833343
O	-3.2519807280999995	2.2329746766683334	0.20800816261166657
O	-1.8218791650999997	2.1498644366683335	0.06408489721166656
O	-1.5021899260999998	0.8208909686683334	-0.09206181138833344
O	-0.8794390150999997	3.4616426166683336	-0.22008381938833343
O	-2.5343698000999995	0.42456433666833343	-0.9233746213883336
O	-2.8163367780999997	-1.0104545033316665	-1.0533849913883335
O	-2.7715730480999996	-1.5145834833316667	0.2797987586116666
O	-1.3886460950999997	-1.5649747933316667	0.4790749536116666
O	-0.7456090160999996	-2.6423333333316665	-0.24319686538833346
O	-3.3048608380999998	-2.7986630633316665	0.3101065146116666
O	-4.3776969081	-3.1293425933316663	-0.4598746263883335
O	-4.390179958099999	-4.5264641133316665	-0.5904575833883334
O	-3.3287157580999995	-5.093165373331667	-1.2769075213883334
O	-4.3304595181	-2.5290019333316662	-1.6676625313883335
O	-4.116943388099999	-1.1705185533316667	-1.6042521913883334
O	-12.7886852181	7.231034666668333	-3.992427101388333
O	-11.385181228099999	10.669645856668334	-3.514411931388333
O	-7.6681936181	10.006941536668334	-8.668419761388334
O	-2.5286889470999996	0.6508111796683335	-15.147836511388334
O	-3.1199229881	4.0766452966683335	-13.562770211388333
O	3.2712153719000003	5.774711806668333	-7.204542291388334
O	3.5138645019000005	8.163350446668334	-5.405869141388334
O	-12.590694618099999	0.05279090466833347	4.854555188611666
O	-14.1485472181	3.2615025866683336	3.6378955286116668
O	-10.959808708099999	4.7483991466683335	2.265372038611667
O	-8.7215544281	4.764039606668333	5.395036908611666
O	-8.3699639581	2.691358846668334	8.600375728611667
O	-6.156642908099999	-0.4101951233316666	8.624477098611667
O	-4.5038462881	-1.8990908833316664	11.720156588611665
O	-3.9941135280999998	-5.611864443331667	10.695212088611667
O	-1.4548422090999997	-8.022468573331667	12.032471988611666
O	1.0969410619000004	-12.651837443331665	9.178097158611667
O	0.39470646190000025	-7.423668163331667	7.0502226186116665
O	-1.2080688680999998	-4.013550673331667	7.869847488611667
O	-0.4883605180999997	-0.27112622233166656	8.317338018611666
O	-2.7200167780999998	2.6923734066683336	7.451881188611666
O	-2.4675861950999995	6.417107776668333	6.777449618611667
O	-3.2228160680999998	9.082008066668335	4.1850581786116665
O	1.7446793019000002	9.667219556668334	5.392509578611667
O	1.9661030619000002	6.331251316668333	7.238248628611666
O	2.3158526219000004	3.111134286668334	5.138717938611666
O	3.5820089619000006	-0.10402767833166654	6.771862578611667
O	2.7571794919000006	-2.845695943331666	4.307778248611666
O	4.8763713819	-5.979694013331667	3.8892914986116667
O	4.7362751419	-8.985006553331665	1.4534456586116664
O	7.5804513519	-11.192396543331666	0.20831996861166657
O	-0.35610643809999964	-11.477641543331666	0.09571136691166657
O	2.7705486919	-11.287050443331665	-3.7285544613883332
O	0.8124605819000004	-8.398949623331665	-5.395040421388334
O	1.1634164419000004	-10.140995143331667	-8.728286851388333
O	5.0061854319000005	-9.924539743331666	-8.655136551388333
O	6.0619504819	-8.793601353331667	-4.164694841388334
O	5.7587227119	-5.948438013331667	-1.6887804413883334
O	7.8875357219	-3.6335548433316665	0.42803661561166656
O	6.129548921900001	-0.48701336233166653	1.8150957186116665
O	7.8342292619	1.7331174766683335	4.429146358611666
O	6.420139551900001	5.304524976668334	4.102555698611666
O	6.7893215519	7.700814026668334	7.038896488611666
O	2.9784528619	0.6295814156683335	-7.094611321388333
O	-0.0064892380999996835	0.43983520356833344	-4.702144121388334
O	-1.3785633500999996	4.0807244366683335	-4.476732591388334
O	-4.960269118099999	2.9150295766683336	-4.456329661388334
O	-6.7508248181	0.7307694456683335	-6.984989401388334
O	-5.804760228099999	-1.7701800333316664	-8.195188391388333
O	-2.5684276630999996	0.23333783366833344	-8.553430531388333
O	-0.5049204580999997	-2.8910468633316664	-9.227392631388334
O	3.1762616519	-2.2880563433316663	-9.843631611388334
O	4.507837411900001	-4.5643481333316664	-7.209262781388333
O	6.0746324219000005	-2.3017684733316663	-4.625709541388334
O	9.595608781900001	-1.4557875333316666	-3.631504941388333
O	9.0219109819	1.8647686566683335	-1.7860554213883335
O	11.1303316819	2.6919627266683337	1.2534283186116666
O	10.519613781899999	6.3440731266683335	2.2039017986116667
O	-7.4881891781	10.341833786668333	0.8297870866116666
O	-3.1582728580999997	10.370894726668334	-4.608427511388333
