17

O	-2.946615582964289	1.6060067743423652	13.333131711056506
O	-3.683319089613626	0.9308456612500602	14.245289714167583
O	-4.763062441571394	1.9796305016513707	14.217998101083268
O	-5.5060675637112695	1.4192632591756742	15.255512171861831
O	-4.780773183650019	1.19648657353872	16.342950110140194
O	-6.717583883349108	1.6118291118018269	15.206602117215759
O	-3.5406800667142555	1.2901313259765825	15.711361665493477
O	-3.733875389951555	2.8362515593748565	15.624613326039345
O	-4.911482369813289	3.4104806839954596	15.881318777651044
O	-5.397347580765647	3.2344999296141106	17.082330713020287
O	-5.35124051235264	4.702957555190433	17.422560953155276
O	-5.378152008290204	4.3416126289446675	15.059970768564735
O	-4.5320561035786575	4.918144790438866	14.260850531851524
O	-4.518878806582664	6.2321459619721296	14.624866834233
O	-3.4297130579916866	6.795612920317992	15.21671608409676
O	-3.365167391102967	4.394206289581028	14.03307674256557
O	-2.954612289702972	3.2797109440720242	14.635181571106116
