70

O	-1.2558545904578953	1.2334321877666663	-1.5614696215614035
O	-0.05851298315789544	3.8798621637666666	-1.2622790915614033
O	0.5168981768421046	1.9364914537666662	0.3550033024385967
O	0.10829614684210465	2.1802879937666666	-1.0518348305614031
O	-3.3821860631578957	-0.4113728832333337	-1.8173071415614035
O	-2.919805343157895	0.3933023670666663	-2.8236201015614033
O	1.4014318168421045	1.8293440437666664	-1.707476681561403
O	-2.0870570791578955	-0.06276860623333363	-0.7323025775614033
O	-5.136487473157896	-2.0939972262333333	-1.0711483385614033
O	-2.2864957281578953	1.4625597337666663	-2.4204420315614033
O	-4.290233033157896	-2.9304508362333337	-0.7034261705614033
O	-6.5457083031578955	-2.6018237262333335	-1.0993815495614032
O	-4.653596803157895	-1.0779210862333337	-1.9095030415614032
O	-7.678346593157895	10.503172703766666	-9.063910701561404
O	-0.7418881431578953	11.028871603766666	-11.773841511561404
O	3.061091576842105	3.4150432337666663	-14.450693411561403
O	7.277020046842105	4.262783693766666	-6.328613231561403
O	7.644048316842105	6.729642763766667	-4.671014701561403
O	-12.571738533157896	5.106586463766667	-0.3494401455614033
O	-12.539894933157896	8.379474593766666	-2.2131069915614034
O	-8.780117083157895	8.611019053766666	-2.4746327715614034
O	-7.747545473157895	8.531279813766666	1.2130119584385968
O	-9.122971833157896	7.037500593766667	4.452820918438597
O	-8.147992503157896	3.5096161037666667	5.470287138438597
O	-8.137041403157896	2.1550493837666664	9.033178438438597
O	-8.532468753157895	-1.6777309162333338	8.496234308438597
O	-7.4500657631578955	-4.4666936862333335	10.765009588438597
O	-5.754131623157895	-10.020754296233335	9.170515418438596
O	-0.8710523881578953	-5.6680234662333335	8.853540438438596
O	-4.015899143157895	-5.208935836233334	6.733568918438597
O	-4.616769443157895	-1.3896539462333337	6.796268158438597
O	-2.9290655931578953	2.0444683437666664	7.228161168438597
O	-3.7101856031578953	5.320330723766666	5.408161408438597
O	-2.086955392157895	8.699459413766666	4.709765058438597
O	-1.1068040951578952	10.967634903766665	1.8296628384385967
O	1.7158513668421047	7.446021353766667	6.7005483484385975
O	1.6590290368421046	3.9572288037666663	5.002447418438597
O	1.2222461468421046	0.7853676167666663	7.107325718438597
O	0.3386029068421046	-1.9364047762333338	4.591383858438597
O	1.4167875768421048	-5.581259846233333	5.205397648438597
O	1.0846587868421047	-8.772740446233334	3.0184398384385966
O	3.323452056842105	-11.857247896233334	2.9666558184385967
O	-3.829720183157895	-9.946006596233333	0.08097975843859673
O	-5.140758453157895	-10.474507796233334	-3.4580929415614032
O	0.24632176684210472	-11.224697996233335	-2.4020236915614035
O	-0.049671313157895414	-8.205112716233334	-4.802480561561403
O	0.8058921068421048	-10.501470596233334	-7.696259251561403
O	4.274052456842105	-11.358831396233334	-6.271740091561403
O	4.112528096842105	-9.851068496233335	-1.7711870615614034
O	3.904722166842105	-6.652371676233334	0.2582842414385967
O	5.884563966842105	-4.742239696233334	2.858952748438597
O	4.879476046842105	-1.0534241862333338	3.3538437884385965
O	6.322454276842105	0.9579148437666662	6.301457558438597
O	6.309641946842105	4.685483373766666	5.316181558438597
O	6.537970916842105	7.324822573766666	8.107479018438596
O	5.422373146842105	-0.5441292982333337	-6.127858361561403
O	1.9842008168421048	0.5693642617666663	-4.884665431561403
O	1.6905368568421049	4.366163033766666	-5.296650081561403
O	-1.8574130471578953	4.231609593766667	-6.519844621561403
O	-3.3493536431578956	2.2643101337666662	-9.455033411561404
O	-2.9111343931578952	-0.5672352382333337	-10.154940851561404
O	0.7247192368421047	0.40461443376666634	-9.356593461561404
O	1.8261525468421047	-3.2292191662333334	-9.136245791561404
O	5.491922246842105	-3.7995648462333333	-8.436945951561404
O	5.091208006842105	-5.914601776233334	-5.388363331561403
O	6.3985937668421045	-3.8102572562333332	-2.543514711561403
O	9.399189766842104	-0.2289814922333337	0.9420641384385967
O	10.588044766842104	0.41974953806666637	4.485085408438597
O	10.930406666842105	4.1984385837666665	4.979462538438597
O	2.1112259368421045	10.770143803766665	-6.408482091561403
