73

O	2.9097344338666673	-4.8208236947843135	5.470079634645098
O	3.4759293138666676	-4.978802014784313	3.185905544645098
O	5.119221803866667	-4.507113654784313	4.658280994645098
O	2.1346641538666673	-2.9731948847843137	4.095338974645098
O	3.838334943866667	-2.4640730147843137	5.587871684645099
O	4.272362863866667	-2.5176127447843135	3.339168714645098
O	2.9212564238666676	-0.5871611247843137	4.167176064645099
O	1.6647000438666673	1.3123011672156863	3.060622134645098
O	0.39754928786666727	3.050366045215686	1.413508400645098
O	2.4700856538666676	-4.420567124784314	4.119036294645098
O	4.108775413866668	-3.9638873347843138	5.545552474645098
O	4.6050761238666675	-3.967325004784314	3.355309634645098
O	3.2385647538666675	-1.9860752247843139	4.3164918946450985
O	0.6941720138666672	5.318679495215687	-0.411117227354902
O	1.5644660438666673	2.6117063752156864	3.311903044645098
O	1.2039369138666671	3.4449185952156864	2.391398484645098
O	1.7665205038666671	0.1960214652156862	3.948418194645098
O	3.762062593866667	0.2028471332156862	4.7089081746450985
O	-1.6388730761333328	4.407865595215686	0.122659769645098
O	-0.4559921984333327	3.1941639952156864	-1.1573072253549022
O	0.6165394338666672	1.3211363232156863	1.672777084645098
O	-0.22494851413333272	3.9567710952156863	0.07492343864509798
O	9.279507703866667	12.570670065215687	5.002504804645098
O	-5.1422327961333325	11.791276665215687	-2.493807685354902
O	12.144708123866668	1.698818325215686	2.9709601746450978
O	13.422446723866667	5.245571045215686	2.789435854645098
O	10.237429423866667	6.708210285215686	1.394554829645098
O	9.796959623866668	4.648637835215686	-1.786820205354902
O	10.743937423866667	1.1951135302156861	-3.088006845354902
O	8.332597423866668	-1.7241325747843135	-2.4836082753549023
O	8.161338253866667	-4.862194344784314	-4.723596245354901
O	6.592556443866667	-7.398088874784314	-2.145421045354902
O	4.6348199738666676	-10.495917034784314	-2.905766305354902
O	3.7775289838666675	-13.679627934784314	-1.114449675354902
O	0.2912740268666673	-12.991223334784314	0.383428175745098
O	-8.347354066133333	-8.561081084784314	-1.9433593853549023
O	-1.8844345361333328	-8.195516934784314	-3.522800045354902
O	0.8213688538666672	-7.427315484784314	-0.659813155354902
O	3.0982269038666677	-4.954598804784314	-2.5417446753549022
O	3.3619956538666673	-2.2335886647843135	-5.292905485354901
O	5.3883803038666676	1.0207916782156863	-5.144894735354901
O	5.529806533866667	4.415809125215686	-6.952240145354901
O	1.9026421438666674	3.4504567652156863	-9.391499985354903
O	0.019778994866667288	1.9667931152156863	-6.3488920153549016
O	-0.8474029891333328	-1.7614929147843137	-6.225853825354902
O	-1.8330535161333328	-2.4493959047843137	-2.702395275354902
O	-4.336513716133333	-5.148771314784313	-1.6756021553549019
O	-5.929148526133333	-6.226961124784314	1.692227744645098
O	-9.363020426133332	-7.732712744784314	2.3568831746450982
O	-2.5910779061333327	-6.767758624784314	6.505402014645099
O	-2.083997916133333	-5.361000894784314	9.971547904645098
O	-7.083886256133333	-4.9048709747843136	7.438975304645099
O	-5.646882566133333	-1.3464086447843138	7.915299074645098
O	-7.905696266133333	-0.9929064647843139	10.979431464645097
O	-9.728379116133333	-3.1294929947843135	4.749842674645098
O	-7.686735886133333	-2.1044640047843135	1.684347224645098
O	-8.181807606133333	-1.7193654547843136	-2.080720595354902
O	-5.446796866133332	0.3743207292156862	-3.860882725354902
O	-5.282526766133333	0.44816658721568625	-7.693536905354901
O	-3.6163030761333324	3.7687190352156863	-8.771081235354902
O	12.475547123866667	-3.0857796547843135	-11.882662035354903
O	-6.948161126133333	6.702588345215687	3.053113144645098
O	-3.2852101861333325	5.715069285215686	2.964412484645098
O	-1.2401533101333326	8.618276615215686	1.508618234645098
O	1.5861959238666672	8.261528615215687	3.935601544645098
O	1.5417035838666673	8.093266525215686	7.753010084645099
O	-0.29226482033333273	6.597476885215686	9.510670614645097
O	-2.8755973661333325	7.9447146352156865	6.985214814645098
O	-5.558400726133333	5.506822225215687	8.151621964645098
O	-9.174138836133332	2.2429193552156863	5.258060284645098
O	-8.925731176133333	2.433354445215686	1.4862078546450979
O	-7.876581826133332	5.062111625215686	-10.043079635354902
O	15.972740023866669	8.773183445215686	1.034068851645098
