70

O	-0.8144365278909096	-6.267763532703636	-2.0777969382527273
O	-0.8663747618909096	-6.1176621627036365	-0.5926414272527271
O	-1.1556022058909097	-4.633234902703636	-0.37104013205272707
O	-2.5284540088909093	-4.370004412703636	-0.8989343692527271
O	-2.6575854488909094	-4.7509389627036365	-2.360457768252727
O	-2.2337446098909095	-6.153511822703637	-2.543833428252727
O	-2.9763903888909096	-3.0229324927036365	-0.873946845252727
O	-1.4148583064909095	-3.8878524027036363	-2.662970568252727
O	-1.9796427828909096	-2.6184957327036362	-2.869437268252727
O	-2.42278829689091	-2.0399533627036366	-1.676512628252727
O	-1.9055317278909096	-0.7813250807036365	-1.277617141252727
O	-1.5431160427909096	0.18262067329636344	-0.9686195262527271
O	-2.2928202688909094	1.6230814672963634	-2.0280752082527274
O	-1.3506412305909095	1.1468412072963634	0.2853024547472729
O	0.060303221109090366	1.1069620572963634	-1.372007411252727
O	-8.43820805889091	-0.3160347947036365	-12.493922538252727
O	-8.40600004889091	3.3809387472963635	-13.077602538252728
O	-2.1866403788909095	3.2738280172963634	-14.482419138252729
O	7.60471330110909	-4.012122602703637	-11.972695038252727
O	5.45726947110909	-0.9552689227036365	-12.767305438252727
O	5.617215021109091	4.952569117296363	-5.770142958252727
O	4.171088131109091	7.564374937296364	-5.503590048252727
O	-12.78931344889091	-4.165571802703637	-2.705927498252727
O	-13.68910704889091	-2.4223330627036366	-5.914901838252727
O	-10.71274875889091	-0.1015959397036365	-5.934797358252727
O	-11.11849154889091	1.7066350672963635	-2.5902319182527274
O	-12.63477034889091	0.9423288572963634	0.8299633517472729
O	-10.50127461889091	-0.6797792847036366	3.5157344717472734
O	-11.07942693889091	-0.42216212170363654	7.271575701747273
O	-9.33335843889091	-3.6357899627036363	8.599622781747271
O	-3.3957906988909095	-4.124581412703637	9.201778371747272
O	-5.752035528890909	-1.6788521727036367	7.356788001747273
O	-6.2357015188909095	1.9599637672963635	6.219484451747273
O	-7.789621558890909	3.2152613772963634	2.947092741747273
O	-7.915155018890909	6.397003767296364	0.8586300517472729
O	-7.233751438890909	7.656348557296363	-2.6527742582527267
O	-4.95105449889091	8.413062727296364	3.5075793917472726
O	-2.7048983988909097	5.237098047296364	3.704299191747273
O	-2.2614335408909096	3.4810221072963636	7.088445461747273
O	-0.7438088858909095	0.11495207929636353	6.222502271747273
O	1.6740421111090904	-1.7071033027036364	8.549127761747272
O	3.7249614611090904	-4.976389182703636	8.152317321747272
O	7.0321580011090905	-5.919475002703637	9.780144261747273
O	1.3564089311090903	-9.741411402703637	5.6971519817472736
O	6.113387001109091	-9.121837632703636	4.524742151747273
O	5.226644401109091	-7.900466962703637	0.9525222617472728
O	8.02924798110909	-10.081884062703637	-0.38658723735272704
O	10.75090575110909	-8.183578442703636	1.568500601747273
O	8.33513714110909	-5.618949992703636	4.753466271747273
O	5.904629211109091	-2.7056500427036365	4.959835041747273
O	5.65349784110909	0.7557638272963635	6.473180911747273
O	2.8907649411090905	3.0175220572963637	5.052324411747273
O	2.0142203111090904	6.348179867296364	6.752216561747273
O	0.5329353811090904	8.703663467296364	4.087106711747273
O	6.328303471109091	0.43201882729636354	-3.393029288252727
O	2.6915337811090905	-0.4707792134036365	-3.2278432982527274
O	0.6871223411090903	2.0818428872963635	-5.3043291582527266
O	-1.6265367688909096	-0.5461031493036366	-6.705282338252727
O	-0.8323886898909095	-3.875416472703636	-8.453392728252728
O	1.1422425611090903	-5.9211151927036365	-7.652463808252727
O	3.2819633711090908	-2.7672978327036364	-7.095611898252727
O	5.875821161109091	-4.6865060827036364	-5.063172928252727
O	8.81946355110909	-2.686392132703636	-3.8474024282527273
O	8.48041320110909	-3.4146125727036365	-0.20847393525272706
O	7.492587551109089	-0.1275971887036365	1.3641816617472728
O	9.21462885110909	2.4010396872963637	3.5220098417472725
O	6.959649201109089	5.457124817296363	2.940382471747273
O	6.321813761109091	7.854433397296363	5.795558161747273
O	4.58034376110909	10.970616587296364	4.420917101747273
O	-1.6335967698909095	6.6490653472963634	-9.465282118252727
