13

O	-5.2829635457787045	-0.21414559508707676	16.24091590619582
O	-5.798248606902615	1.2907491527028119	18.262001248583278
O	-5.827912277328427	4.128349315637248	15.670446311015892
O	-4.958484029071376	2.673813511718204	16.020379615640646
O	-7.2629624863590605	1.3927221561128196	16.63964258604888
O	-3.820642565643048	2.9240967016961656	15.396480959426784
O	-2.4145974500201666	4.80913512270153	14.365054004699534
O	-2.184363198188538	6.137993884793007	14.333077670693397
O	-3.2252218421056353	6.99325636787718	14.568077796753784
O	-4.439861067749662	6.3962930616690175	14.769950736984615
O	-4.574226461254108	5.008951660999317	14.872469326744673
O	-3.5005935210159054	4.18482599611955	15.02017939334256
O	-5.782432228919619	1.339084340097565	16.771594177498354
