75

O	-0.6675547967250001	8.04036789625	-4.345026365173078
O	-1.702046202725	1.9515506382499996	-5.439811745173078
O	-1.062629976725	6.77278260625	-3.8860808751730778
O	0.5079497642750002	-2.2336635537500005	-1.419724831173078
O	-2.169210057725	4.35202574625	-3.081671765173078
O	0.5076387742750001	-3.4313741437500003	-2.614122155173078
O	-4.264524655724999	2.22535425325	-1.002523711173078
O	-1.190986337725	0.09665879624999962	-0.834812109173078
O	-3.066140735725	5.4316396962499995	-3.621084725173078
O	-3.035179425725	3.2686730062499993	-3.027405195173078
O	0.01775296427500006	-2.7694272737500008	-0.13535089517307797
O	-2.925253175725	2.50700677625	-1.540243232173078
O	-2.434995878725	6.73837200625	-3.933606515173078
O	1.9069380042750002	-1.9573026137500005	-1.029433324873078
O	-1.294865997725	4.35831295625	-6.039867705173078
O	-2.243685347725	3.3748506362499997	-0.5767812221730779
O	-2.239896844725	3.1579694062499994	-5.981950235173079
O	-0.3594424057250001	-0.8597629837500005	-2.005920565173078
O	-0.8445314177250001	-0.3948294937500003	-3.176845115173078
O	-1.517078692425	0.8073639662499996	-3.197528235173078
O	-1.9233525067250001	1.1545988932499998	-1.906729671173078
O	-2.308286520725	1.3845376645499996	-4.294427285173078
O	-3.383209665725	2.3632728362499997	-4.002665775173078
O	0.8259812042750001	-2.69395006375	-15.309983755173079
O	7.795339084275	-3.9686200337500006	-12.945793955173079
O	11.889109994275	6.01382335625	-6.661996475173078
O	11.580152694275	2.4478375662499996	-8.003059755173078
O	9.355794594275	-3.2936441637500007	-1.250564285173078
O	8.780647494275	-6.231410453750001	-1.429369068173078
O	-9.188595755725	-0.6920230937500005	-10.239536975173078
O	-7.569701945725	-2.5136840137500003	-13.102177355173078
O	-4.612632255725	-3.77651778375	-11.129168355173078
O	-6.322145635725	-5.72954146375	-8.326755315173077
O	-9.656453665725	-5.6378282437500005	-6.485850165173078
O	-10.031887565725	-3.5517254237500007	-3.355068945173078
O	-12.546629205725	-4.0982030937500005	-0.546137380173078
O	-12.872841705725	-0.5353939537500003	0.996833114826922
O	-8.760529015725	1.8452269372499996	4.654583964826921
O	-8.834751515725	-1.1734164237500004	2.230823694826922
O	-7.534065435725	-4.75748650375	1.6323985748269219
O	-6.520958755725	-6.36435616375	-1.709042799173078
O	-4.491442505725	-9.322143203749999	-2.994514165173078
O	-3.147042135725	-10.37022770375	1.145465464826922
O	-2.466030268725	-6.670544253750001	2.070740984826922
O	-4.508786955725	-4.88340720375	4.750056664826921
O	-3.763283615725	-1.1727030337500004	4.216528194826923
O	-3.779506975725	1.2410985392499996	7.221446024826921
O	-2.911943565725	5.01918820625	7.505197104826921
O	-1.580610475025	6.92615680625	10.519392844826921
O	-4.628834925725	8.78867827625	3.299695594826922
O	-3.285237545725	11.38459149625	0.939111664826922
O	-0.15151985572499993	9.83820465625	5.221244664826923
O	1.588665894275	8.54891263625	2.014158654826922
O	3.9182279542750003	11.543619396250001	2.156157604826922
O	5.401024024275	10.52322349625	5.552565004826922
O	2.406982424275	7.2208379662499995	7.193625564826922
O	1.2336684242749998	3.6843013862499996	6.466333084826921
O	1.1552792842750002	0.2809873762499997	8.107890984826922
O	0.4910125942749999	-2.7145849137500004	5.798118554826923
O	-0.20285042572500012	-6.20163438375	7.2901021048269214
O	0.8485474742750001	-8.83450170375	4.668092134826923
O	7.229213924274999	1.1388689012499997	0.3504397748269221
O	4.033741854275	0.8264422592499997	-1.655677884173078
O	4.438537444275	-2.1278571537500004	-4.064565285173078
O	2.7623350742749997	-0.4153896137500004	-6.910011605173079
O	3.489939214275	3.0202141762499997	-8.447150695173079
O	3.887911544275	5.58057812625	-7.0050801551730775
O	6.106506994275	3.3200683262499995	-4.859159645173078
O	6.359829314275	5.886852666249999	-2.073099735173078
O	8.519075994275	4.89748235625	0.858288324826922
O	5.983276134275	5.349071556249999	3.548806504826922
O	5.240792924275	1.8737926092499997	4.804269364826922
O	5.518288854275	-3.62594574375	6.690696244826922
O	4.096030504275	-6.1871297837500006	9.090412844826922
O	4.432368794275	-9.65618950375	7.510288444826921
