64

O	-1.747311176111111	-1.294694441129629	0.24940249125925884
O	-1.810069100111111	-5.627754151129629	0.009598574259258821
O	-2.909707875111111	-4.775416531129629	-0.11577704674074117
O	-0.6526079491111111	-5.046288081129629	0.4336680692592588
O	-2.271299675111111	-0.7322913311296292	-0.7684444237407412
O	-2.536493695111111	-0.9675873711296291	1.3807003032592589
O	-3.634842385111111	-2.606983191129629	-1.4614507067407412
O	-2.714284245111111	-3.370898591129629	-0.13087216174074118
O	-0.680295159111111	-3.702961991129629	0.5738375742592589
O	-1.550424337111111	-2.7430067811296293	0.07918123215925882
O	-13.329399085111111	-4.671294011129629	4.796243103259259
O	-14.01649908511111	-1.9749580511296294	9.24008276325926
O	-10.80044673511111	-0.2470014911296292	10.253617523259258
O	0.328813864888889	-4.376653661129629	14.046503623259259
O	-2.695526115111111	-2.1181170211296294	13.46560852325926
O	-0.39470015711111106	4.960786888870371	8.10040053325926
O	-2.158007485111111	7.1408999988703705	7.0450194332592595
O	-9.876272985111111	-7.352025101129629	-5.704601086740741
O	-12.931188085111112	-6.54269256112963	-3.6663395367407414
O	-11.415139885111111	-3.6326316411296293	-1.7983777767407412
O	-10.35451650511111	-1.3369913911296294	-4.674804556740741
O	-9.28095301511111	-1.7580144711296293	-8.308150116740741
O	-5.630486745111111	-2.2676142811296294	-9.192521036740741
O	-4.014853855111111	-1.4047404111296293	-12.53223027674074
O	-0.9353240721111111	-3.7786490211296293	-12.62210317674074
O	4.079417544888889	-2.739363531129629	-9.49841098674074
O	0.4877723048888889	-1.3203708111296293	-9.434408186740741
O	-1.648544252111111	1.813540428870371	-8.74849967674074
O	-5.114739745111112	2.0199341688703707	-7.117027816740741
O	-7.348502985111112	4.529931738870371	-5.339161196740741
O	-9.180928135111111	5.153894488870371	-2.0814313367407413
O	-4.206330735111111	7.6819976788703705	-5.6192413867407405
O	-1.4119499111111111	5.208412378870371	-4.499202906740741
O	1.398664994888889	4.3273598988703705	-6.9496931267407405
O	3.061975694888889	1.289156895870371	-5.390925006740741
O	6.826253064888888	0.6217763268703709	-5.8578516067407405
O	9.147214614888888	-2.1127904711296295	-4.360772946740741
O	12.88670791488889	-1.9108884411296292	-3.672284756740741
O	7.4650733348888885	-7.695547341129629	-3.969942226740741
O	10.176795114888888	-6.245627931129629	-0.12074493674074117
O	7.125355394888889	-6.028227431129629	2.225877353259259
O	9.129730414888888	-7.71760871112963	4.932223533259259
O	11.745945214888888	-4.875223381129629	5.066955083259259
O	10.929510614888889	-2.3476868611296293	1.1240991632592587
O	8.289099314888889	-0.10931122112962915	-0.4502259847407412
O	7.888736974888889	3.422513178870371	-1.7232541967407413
O	4.318854514888889	4.701186348870371	-2.2372445867407413
O	3.590406614888889	8.001367158870371	-4.045359616740741
O	0.21231020488888896	9.34974175887037	-2.7621798467407412
O	2.885328284888889	1.3062169908703707	6.54295968325926
O	0.457864284888889	-0.3186833911296292	4.14363042325926
O	-3.037400835111111	1.1450851728703708	4.768697723259259
O	-4.768784125111111	-2.1655873211296295	4.34203895325926
O	-4.130150205111111	-5.49187797112963	6.119436573259259
O	-1.546082733111111	-6.8115954211296295	6.630643643259259
O	-0.5526352391111111	-3.215847561129629	7.615036783259259
O	3.1707115748888883	-4.021394921129629	7.498567913259259
O	5.477800484888888	-1.1847279811296292	8.318890553259259
O	7.506394824888888	-1.235938251129629	5.195167303259259
O	6.648856284888889	1.9875799688703708	3.425148623259259
O	5.4490999248888885	7.513354268870371	1.9764427832592588
O	5.853152004888889	10.22488204887037	-0.6271427407407412
O	2.7868250448888885	12.51155542887037	-0.5197390807407412
O	-8.545307715111111	4.098508848870371	6.650580123259259
