22

O	-5.685794351684956	4.390139297829239	14.973144608782938
O	-6.205085269630962	3.2917353821527335	15.601177204348504
O	-5.3726366863812824	2.3277493468869954	16.08073222278274
O	-4.196805980981287	2.2237577369658013	15.402217325920091
O	-3.7123265596994894	3.2740602327566437	14.670412855328259
O	-4.407237052676267	4.43463545488452	14.533255737488634
O	-4.0846081981872775	5.342717763118782	13.456191248183234
O	-4.957032392128512	6.140623508413452	12.99404542113043
O	-2.687122603005369	5.601561650446393	13.259807720346672
O	-2.4285182343736733	6.792630444086047	12.504425967048338
O	-6.007457241195006	0.9319092230872283	16.873992580288668
O	-7.47715264192074	1.0122184821645597	17.026867064466828
O	-5.572476039087759	0.9099113943600416	18.290961788692286
O	-1.649101699364956	7.815107133698672	13.189353212817148
O	-0.26941945768148656	7.76697967864447	13.065483030903046
O	0.4424498253628526	8.750776340399053	13.691961258189915
O	-0.1424964579846817	9.660005142813365	14.52793656578542
O	-1.4520919513563886	9.435871086262644	14.84613093004669
O	-2.113880608806255	8.312402025601521	14.357286123119286
O	-5.426159087750294	-0.47021103992539803	16.103076787873086
O	0.1586226760543079	6.60853700444287	12.536853344389582
O	-3.255700360943675	7.771288440154548	14.905710626502897
