19

O	-6.462448532097825	3.525079414640344	15.82497041633454
O	-5.519119262584377	2.084556085306877	15.918898896298876
O	-4.42289429498892	2.3885805179102206	15.205948679187957
O	-4.402326089594009	3.6073330321921695	14.585953909428902
O	-3.8921922163402023	3.8309487132432425	13.230106299212828
O	-4.869876597903552	4.646311897556448	12.439368686372188
O	-4.6528496125883585	6.074936486066521	12.781415044898653
O	-5.674996809615162	6.04850387601997	14.268885736175973
O	-5.37118261397476	4.500493988501908	14.999894188505039
O	-6.0803937739840865	0.773056245453486	16.8835781158085
O	-5.7939264202041345	1.0364086798917151	18.296790844202864
O	-7.55158797571814	0.752284277974141	16.885135357502996
O	-5.453659664429427	-0.658930674473527	16.27943236713943
O	-2.7081410087004976	4.5665220016381225	13.052190401586525
O	-4.982873531968081	7.179647551097341	11.857132858019204
O	-7.044734117677338	6.226472039483664	13.778121851005213
O	-5.094533649294381	7.0461809839508405	15.121087464001606
O	-2.598057114871274	5.622276417420335	13.687265493839732
O	-1.9261446479538673	6.902386315028755	13.234596345563379
