73

O	1.759525698117647	1.7279308091568633	1.985863128333333
O	1.9725182181176473	2.047396430156863	0.5630322583333331
O	2.8783365181176475	0.9710227949568633	0.13017215633333323
O	-0.06122291188235285	0.5312200561568632	-1.0759309756666668
O	0.47525737811764723	1.9574205001568632	-0.2824407686666668
O	-1.565741870282353	-0.11625827984313686	-4.071910291666667
O	-0.4545556918823528	2.874598550156863	-0.6638551966666668
O	-3.1836047718823526	-0.8109484198431367	-2.595094061666667
O	-1.1783388258823528	2.530646710156863	-1.763204470666667
O	-1.4443751778823528	1.1636726201568632	-1.8230190616666668
O	-2.482481747882353	0.4281340471568632	-2.974046861666667
O	-3.3978487418823526	1.6253634131568633	-3.7586675916666668
O	-3.3552418318823527	2.816103430156863	-2.8940362716666668
O	-4.496331691882353	2.447151860156863	-1.9543801616666667
O	-5.698473031882353	2.643706430156863	-2.573951141666667
O	-6.863228701882353	1.9354878891568632	-2.301243421666667
O	-6.670336911882353	0.6852473661568632	-1.7271918436666667
O	-5.520170341882353	0.6257591261568632	-0.9972090626666668
O	-4.3295863618823525	1.2730434721568633	-1.290774790666667
O	-7.788422051882352	-0.09608647984313667	-1.5584940966666667
O	-9.096199021882352	0.43800575015686327	-1.3754485056666668
O	2.5323126781176475	3.6300757401568635	0.39130328833333317
O	-6.6545695818823525	14.357234070156862	0.6455518583333333
O	-3.174954661882353	15.068848470156862	-0.4950673326666668
O	-7.998410691882353	4.835617670156863	11.502034508333333
O	-5.241190641882353	7.413844720156863	10.935264508333333
O	2.6937530981176474	3.194597400156863	9.239135608333333
O	5.360439648117647	4.420218260156863	8.627826918333334
O	-2.8195783418823526	8.832554190156863	-10.005821041666666
O	-2.269568896882353	12.278155170156863	-8.637064371666666
O	-0.3988780518823529	11.201472170156862	-5.542264091666667
O	2.5018548981176476	9.213497700156863	-7.038638341666667
O	3.1582261981176476	7.173759080156864	-10.203135951666667
O	2.3982565181176474	3.4588625001568634	-10.252934601666666
O	4.013121298117647	0.8484800551568632	-12.515018891666667
O	1.3173653981176472	-1.9645736698431369	-12.623302591666667
O	0.45678691811764716	-5.859385509843136	-8.137440351666667
O	2.313341228117647	-2.485709419843137	-8.504660261666666
O	5.372911488117647	-0.44743707984313685	-7.345025621666666
O	5.586941118117648	3.328781900156863	-6.681203231666666
O	7.798915318117647	5.825101000156863	-4.837442651666667
O	10.308284998117648	2.545506360156863	-3.144017301666667
O	7.237864128117648	0.3413453271568633	-2.302910351666667
O	6.654612478117647	-2.999460179843137	-4.070301521666667
O	3.0040382581176477	-3.846092679843137	-3.2775551016666666
O	1.944725998117647	-7.5404985898431365	-2.970555441666667
O	-1.4398880378823529	-9.165920629843137	-1.9862918816666668
O	-2.036167597882353	-12.560354429843137	-0.3506513056666668
O	-6.495481661882352	-7.039987269843136	-3.982362171666667
O	-9.786227131882352	-5.572893149843137	-2.789497781666667
O	-6.792772161882352	-8.714488619843138	0.6885637083333331
O	-6.864589851882353	-5.146754359843136	2.140821068333333
O	-9.597828981882353	-6.218443949843136	4.547909828333333
O	-7.3372468618823525	-8.790441519843137	6.288263508333333
O	-3.6406256318823527	-9.278463129843137	3.350813898333333
O	-0.6714776328823528	-7.320870719843136	2.012480458333333
O	3.098605578117647	-7.534301009843136	1.9987629783333332
O	4.995236068117648	-4.337507069843136	1.0627340683333333
O	10.222033698117647	-0.9239868998431369	1.1734078083333332
O	-0.7571676408823529	-0.1813359698431367	7.367958278333333
O	-1.1780899568823529	1.4900680541568634	4.0091483583333325
O	0.6196081281176473	4.886016430156864	4.144720118333334
O	-2.062094123882353	6.6299733001568635	2.1733542383333333
O	-5.838494311882353	6.748810510156863	2.7640409483333332
O	-7.638405141882353	4.548174760156863	3.513032248333333
O	-4.747422711882352	3.6546223301568634	5.821408608333334
O	-6.048261701882352	0.1289439861568632	6.515501198333332
O	-4.020416481882353	-1.9917061998431367	8.828656138333333
O	-3.3772934618823527	-4.879717039843136	6.564157888333334
O	0.3029236981176471	-4.721560429843136	5.7931461383333325
O	6.109481198117647	-4.334716049843137	6.130633858333333
O	9.411019598117647	-5.688206209843137	4.866866298333333
O	12.006754998117648	-2.879673629843137	4.986967148333333
