70

O	1.5052927179999998	1.0572789992413796	1.0766683300827582
O	-0.649243038	2.5193105982413795	0.2278691250827582
O	-0.17762746200000012	0.023526485241379513	-0.6847099059172419
O	0.4114480479999998	1.3138422522413795	-0.2785652579172418
O	1.1968400579999998	1.2235496972413795	2.398272214082758
O	3.732248828	-0.9594177417586204	4.022232364082758
O	1.252656468	1.7275295982413796	-1.397264355917242
O	2.026960018	0.7402475612413795	3.430140714082758
O	3.172932218	-0.005733996758620463	3.106691884082758
O	3.1390235479999995	-0.43375170075862046	1.812192274082758
O	2.304441528	-0.01863358275862048	0.8361823030827582
O	0.856204148	-0.46878224375862043	4.554301564082759
O	1.1183132779999998	11.883536698241379	8.635703974082757
O	-1.769751715	13.501294798241378	6.882926784082758
O	1.816059918	14.716591498241378	1.7456372240827582
O	8.724969997999999	11.712926698241379	-3.063100405917242
O	2.105453848	6.64249083824138	-6.905188375917241
O	-0.8472377290000002	7.16571690824138	-6.941837225917242
O	-0.4373893170000001	1.5032393082413793	13.048838224082758
O	-1.4697227280000003	5.09717754824138	13.364387824082758
O	-1.9068682920000002	5.72041651824138	9.678417364082758
O	-4.465534892	3.0404461982413795	8.721086044082758
O	-5.531349872	-0.4217012757586205	9.993718374082757
O	-3.837812602	-3.5369890017586205	8.610366694082758
O	-5.262051061999999	-7.06302081175862	8.488651444082757
O	-2.061015782	-9.289254451758621	8.399295144082759
O	-1.6772066270000001	-12.757568201758621	7.038466164082759
O	3.2355772579999997	-15.256637901758621	4.620423164082759
O	-0.2325443410000001	-11.73713170175862	0.3136626422827582
O	1.2339255379999998	-10.097016101758621	3.439449274082758
O	-1.513439997	-7.59117613175862	4.512270804082759
O	-4.469969862	-5.44980047175862	3.289366514082758
O	-5.444473201999999	-1.9192176517586206	4.419165774082758
O	-7.604345362	0.9931409642413795	3.241104134082758
O	-7.369728702	4.702532518241379	2.477524364082758
O	-5.651478452000001	7.531833078241379	-3.8650292359172416
O	-5.924784541999999	6.50883233824138	-7.528520005917241
O	-9.386266012	2.4956722882413795	-1.7436991559172417
O	-8.498059542	-1.0497281317586205	-0.6333667139172419
O	-4.845764502	-2.23625735175862	-1.0598327459172419
O	-3.919400102	-5.93432647175862	-0.985400975917242
O	-0.12530516200000008	-5.9927124917586205	-0.5052244009172417
O	1.943687058	-8.87536726175862	-2.042610735917242
O	5.776743238	-9.490444701758621	-2.197609705917242
O	7.779094618	-11.399689701758621	-4.810340055917242
O	10.887649688	-3.4711870617586205	-1.268509255917242
O	9.499410588	-6.530106291758621	-5.4941385659172415
O	5.835066617999999	-5.853765901758621	-4.820929915917241
O	2.445298678	-6.269100901758621	-6.401261305917242
O	-0.4358936660000001	-4.1906289617586205	-4.924797755917242
O	-4.062730012	-4.884164181758621	-6.041608035917242
O	-6.087128551999999	-1.6308109417586203	-5.589105275917241
O	-9.916620062	-1.8411605417586205	-5.395107045917241
O	5.601996538	3.0686931282413794	-5.596540685917241
O	4.3882036079999995	2.72840182824138	-2.0310348259172417
O	1.947195358	5.63377345824138	-1.341764995917242
O	3.269156998	6.1565569982413795	2.1511768340827584
O	6.8556045779999994	6.86527001824138	3.285295764082758
O	9.322915988	5.472282688241379	2.465839454082758
O	7.688187787999999	5.7987479182413795	-0.9885999559172418
O	10.045317088	3.2377673282413797	-2.5500249059172417
O	9.536075387999999	2.56867632824138	-6.2209860359172415
O	9.037417057999999	-1.1236353417586207	-6.040955315917241
O	5.412265558	-1.6733806917586205	-6.918366815917241
O	0.12687715799999988	-1.5728392617586207	-9.361559905917243
O	-2.893196912	-3.62563217175862	-10.373384975917242
O	-5.998381622	-1.3988127417586207	-10.234344775917242
O	-5.186529582	9.18706354824138	4.940485184082759
O	-4.8096460620000006	9.39140506824138	1.110558662082758
O	-1.9908365620000001	10.83877829824138	-0.9990377359172418
