10

O	-5.5522801117171054	1.8922860207463603	15.645283977290376
O	-5.500153872267244	1.2228448486063515	14.43379401048842
O	-5.098192254309324	-0.020616727727131412	14.342169333177779
O	-5.806562296469037	1.0164535545702202	16.985125527727572
O	-6.133659201679707	3.2346275784907905	15.42434395493969
O	-5.91414844849283	3.9764384291882937	14.299243666379468
O	-5.73684241277559	3.122210716533354	13.160504261042876
O	-4.973832724910798	2.055872511424645	13.440473614747294
O	-6.640964937878961	5.28253940955844	14.33188551496292
O	-3.609647492586964	2.1981193164327415	12.930727296574348
