86

O	1.777011785444444	0.2427916344518528	2.2972375999444443
O	0.895472515444444	1.1811937124518528	1.7244379599444444
O	0.443983454444444	0.9857190884518527	0.4000905955444444
O	1.268960545444444	0.28552100945185277	-0.49572755905555554
O	1.961904015444444	-0.6895817875481473	0.09985041894444441
O	1.954686035444444	-0.7420244675481472	1.4329706299444445
O	0.834784609444444	0.4109570454518528	-2.1178362000555557
O	0.518664386444444	1.8721314024518527	-2.3851076200555554
O	-0.537655519555556	-0.1296824505481472	-2.2200895600555555
O	2.040264085444444	-0.06348626654814726	-3.1361667500555557
O	1.300537225444444	-0.5884041575481472	3.6443261899444446
O	3.9589211354444442	-0.9329299375481471	2.3254610699444447
O	4.854137445444444	-1.223742017548147	3.3769862899444445
O	4.992240025444444	-2.4080890875481473	4.036170509944444
O	5.143128995444444	-2.4450331375481476	5.379402069944444
O	5.6657598954444435	-1.3716962975481475	6.014350779944444
O	5.9703348554444435	-0.3019684175481473	5.249100969944445
O	5.6124671754444435	-0.2725651275481472	3.9583704099444446
O	2.196565405444444	-1.9821311375481474	4.232810569944444
O	0.12151781134444398	-1.4605505375481473	3.4354341199444445
O	0.6414102054444439	0.3246554304518528	4.509553759944444
O	2.3042915254444436	-1.4647439575481473	5.471968769944445
O	2.840859025444444	-1.7594724075481474	2.0676783399444445
O	4.1601011054444434	1.8744694624518528	6.680852959944444
O	3.6326476054444443	0.8668827824518528	7.382034439944444
O	2.761940325444444	0.03418883645185278	6.768393879944444
O	2.6647387654444437	-0.05399182654814727	5.451147019944445
O	3.617817525444444	2.0252824524518527	5.435050699944444
O	2.9246970854444436	1.0737497534518528	4.7790575599444445
O	0.16825911994444398	2.1530833624518526	-0.07545081605555559
O	1.5119486954444439	2.3198701724518527	2.1964319399444445
O	3.141412865444444	-1.0466619675481472	-0.37878759605555556
O	14.621650715444444	-0.2983684575481472	-2.7643164800555557
O	12.642951315444444	5.4342844724518535	-7.094326500055555
O	6.955783035444444	14.129931572451852	-0.18190651405555558
O	8.163525625444445	12.057080972451852	-3.1581935400555556
O	1.0936748564444438	7.846657682451853	-7.018590860055555
O	1.1053765364444441	5.965856362451853	-9.329298840055555
O	9.207339565444444	-8.109490637548149	3.4314367899444442
O	12.030248515444443	-7.600474187548147	1.0219709189444446
O	10.101759825444443	-5.345435787548147	-1.3200536600555555
O	7.118236535444444	-7.579520857548148	-2.2288816400555556
O	5.124570885444443	-10.336753127548148	-0.5016202580555555
O	2.111368175444444	-9.457132127548148	1.5913273299444444
O	-0.820686434555556	-11.806398027548148	2.2810156099444443
O	-2.2841423645555556	-10.461077327548148	5.591687359944444
O	-5.691009454555556	-10.619547527548148	7.027259079944445
O	-8.572853484555557	-6.703407277548147	10.539461119944445
O	-5.660911354555556	-5.445572517548147	5.851321729944445
O	-3.3333542245555563	-7.059448277548147	3.1988332699444446
O	-2.8071437745555556	-7.533938787548148	-0.5802106700555556
O	0.49341149744444396	-7.584068067548148	-2.5045694000555554
O	1.718192315444444	-7.282382367548148	-6.113270040055555
O	4.160381825444444	-5.238972837548147	-8.218585070055555
O	-2.3725657345555557	-6.264376167548147	-7.568860830055556
O	-3.099208434555556	-3.9203185875481474	-4.631332250055555
O	-5.715880134555556	-4.683805357548147	-2.0111230400555558
O	-5.106955064555557	-2.3977038075481474	0.8728186259444444
O	-7.951999034555556	-1.0935693475481472	3.1034247399444443
O	-7.993991194555557	1.4219841114518528	6.056137579944444
O	-10.814572784555557	3.6973954524518526	7.172312199944445
O	-3.8821847645555563	1.3115628474518528	10.191316689944445
O	-1.3138603445555561	3.5940044924518526	11.825605019944446
O	-5.283990134555556	5.875825292451853	9.025906559944445
O	-2.0893888945555563	6.662390312451853	7.039241299944445
O	-2.0392503445555556	10.140244452451853	8.586875329944444
O	-7.264290954555556	7.121567672451853	5.568491389944445
O	-6.726857724555556	4.400247282451853	2.9712903199444445
O	-8.533186534555556	2.9065306324518527	0.04016439194444443
O	-6.496247354555556	0.7980783940518528	-2.4055441600555554
O	-8.095907734555556	-1.3149326175481475	-5.116352400055556
O	-5.600580634555556	-1.7637481975481473	-8.011657720055554
O	-6.1081440945555565	-4.613627317548147	-10.505533780055556
O	-0.444514922555556	8.183057292451853	-2.1313767900555556
O	1.412412235444444	5.023548992451853	-1.0221336700555557
O	3.7133018954444443	3.869913672451853	-3.7345219700555554
O	6.502900615444444	3.021513622451853	-1.5660763800555555
O	8.181170445444444	5.114979172451853	1.1316878139444444
O	6.994848225444444	6.976225912451853	3.0655719999444444
O	4.771140615444444	7.874346752451853	0.15495023994444443
O	2.101596105444444	9.539195052451852	2.3398376299444443
O	-3.486772184555556	9.163225232451852	2.2401315199444447
O	-4.929163384555556	7.011366192451853	-0.46442124605555557
O	-8.225300874555556	1.2670176844518528	-10.301348380055556
O	14.938147115444444	-8.891446187548148	-2.3260719900555555
O	7.480925875444444	2.9974842024518527	-9.109898480055556
