23

O	3.6199100174625887	11.708332892383922	14.490148740739723
O	3.2940503637520093	10.711236354687372	16.657797428884095
O	1.5250375429899279	12.049204472164398	15.67260704501607
O	-5.129707260866636	5.081732903363867	15.1480507076917
O	-3.3437136521176862	3.735887743665189	14.829953885643206
O	-5.854902719149846	3.916258715240711	15.479000052099273
O	-4.18517968988919	2.6304793861135503	14.976133775105922
O	-1.0634323315159713	7.7608965835543895	12.295124134256922
O	-2.198690107675663	7.871469808565427	12.9344577486869
O	-0.2612164667468644	9.0394613056949	12.145790408532253
O	-2.4096151237090564	7.128718337633796	14.158428861928462
O	0.7228362945002891	9.690370348738014	14.404175306432593
O	-3.817393888161253	5.041636010841038	14.65740394873379
O	-5.255214050656811	2.733986039544522	15.799331971849824
O	2.5897165546526395	11.061450816684669	15.374554630063395
O	-5.586660043435394	-0.16123838149042324	15.844151841037053
O	0.6549379556049741	8.85152336190605	13.274483144514647
O	-0.06822981741697287	10.643972233033807	14.481606810891265
O	-7.500659074844275	1.3649415631721613	16.628834537033438
O	-5.714572571792774	1.1828249385154779	18.027372012540475
O	-3.15117796777803	6.004131985637997	13.951408744042807
O	2.065508838213729	9.985757476849955	14.681025991482821
O	-6.002982444259047	1.360580363107191	16.574776027631934
