20

O	-5.421721498973226	-0.45642944418359743	16.102592649836605
O	-4.341717502858606	4.490372024374757	14.571521352444616
O	-5.58420742240289	0.9129378765137481	18.29426143568389
O	-5.674288698999801	4.420166887773845	14.820021045074908
O	-7.479977601378267	1.0050431593933529	17.024925914010776
O	-6.198827709930117	3.3591052365978125	15.554722086812227
O	-5.414099534247933	2.3574281776479036	16.05254121961984
O	-4.215426392961998	2.2503602240633103	15.406626128610256
O	-3.699253280186518	3.2926194547895182	14.685270792029835
O	-3.886589599270324	5.600330682909675	13.729954935524844
O	-4.649684475390519	6.462637104523003	13.249460055561856
O	-2.634282789919273	5.404125032994353	13.117989353559494
O	-2.2182120713624354	6.294794165287062	12.041232786096575
O	-2.3912142066739888	7.687205831283973	12.58219181326757
O	-1.5344555427565112	7.801153617356306	13.688599866923084
O	-0.23905543331959933	7.643301709180598	13.170820453455509
O	0.4093837884455045	8.999974368083306	13.201335538201633
O	-0.590212857133686	9.944553763685914	12.989105214370447
O	-0.8703524535357827	9.952651116282695	11.634158961874906
O	-6.007655240794142	0.9497407507446862	16.872146046287423
