73

O	-4.060150163618181	3.2094386193854545	-0.7411083379636362
O	-3.314431853618182	2.2273775603854546	-0.7276688689636361
O	-3.0322244136181817	1.5757391618854548	0.5280790860363639
O	-1.3621747010181817	0.9112922333854547	0.12225024403636386
O	-2.882663763618182	2.1710522083854547	1.7522370570363641
O	-2.040857634618182	3.245153299385455	1.1215631870363638
O	-0.7406369866181818	3.106761419385455	0.7412545170363639
O	-0.022464793618181655	4.195476519385455	1.1183779970363639
O	-0.4899010496181817	5.294381889385455	1.788069977036364
O	-0.11930790361818167	5.940140219385454	2.940291787036364
O	-0.8947041026181817	6.3389493093854545	4.033143897036363
O	-1.7580811036181818	5.476102829385455	1.390069377036364
O	-2.6158707036181816	4.457873479385455	1.155173227036364
O	-3.779964883618182	4.642239009385455	1.9352204070363639
O	-3.9142843036181816	5.631952019385454	2.9698227270363637
O	-3.288194253618182	1.0073556093854548	-1.3986292029636362
O	-2.2640225646181817	0.12116340938545478	-1.1646173369636361
O	-2.4057937236181814	-1.0933078406145451	-0.9589699669636361
O	-15.313544883618182	1.6576848824854546	0.5736753330363639
O	-14.049539483618181	-4.934058710614545	3.8421303670363636
O	-5.927889503618181	-3.3546765406145456	13.190678417036363
O	-8.087007223618182	-4.952043190614545	10.476194217036364
O	-2.7734184636181816	-8.463548070614545	3.858312687036364
O	-3.6129688936181816	-9.833057770614545	1.3212103470363639
O	-9.038513203618182	9.231749319385456	-5.1446871729636365
O	-12.407946583618182	7.540549709385455	-5.150192482963637
O	-11.13523959361818	4.060779049385455	-4.424218912963637
O	-8.645650803618182	3.5330039693854545	-7.272457622963636
O	-6.491580023618181	5.710371719385455	-9.550060122963636
O	-2.9323349736181816	6.547480519385455	-8.505727702963636
O	-0.14240281361818186	7.463279619385455	-10.960782682963636
O	2.312954766381818	9.511432219385455	-8.752849162963637
O	6.0228947563818185	6.979773169385455	-4.772615822963637
O	2.9520661163818183	5.776728579385455	-6.783534682963636
O	1.3276344463818182	2.750262059385455	-8.534880882963636
O	-2.3790437136181817	1.7879839703854548	-8.693533652963637
O	-4.566167193618182	-1.2512136306145452	-9.382257862963636
O	-7.2694960036181815	-3.390855720614545	-7.807201322963636
O	-0.9914962976181818	-3.8927711106145457	-9.868840102963636
O	0.7786495563818183	-2.383702650614545	-6.7964614129636365
O	3.9826263263818182	-0.36737227061454525	-7.086713502963637
O	4.3547835163818185	1.4581596383854547	-3.764020392963636
O	7.876361256381818	2.208282463385455	-2.357833972963636
O	8.99828331638182	3.7656035093854543	1.0159560470363638
O	12.229220816381819	3.1837333893854547	2.936275107036364
O	6.318970826381818	8.373789789385455	3.233508617036364
O	4.413142256381819	9.503362919385454	6.333682177036364
O	7.718152006381818	5.146961239385455	6.7194646370363635
O	4.112468296381818	3.8391841993854543	7.263314547036363
O	4.761304886381819	3.882357849385455	11.017895917036364
O	7.617522696381819	1.3390691063854547	10.791567117036363
O	8.699526216381818	1.1596145363854546	6.172455537036363
O	7.213909186381818	0.08939284938545478	2.838934117036364
O	7.957346476381819	-2.3229653506145453	0.018615978036363834
O	5.0334727063818185	-3.0754700306145457	-2.361219492963636
O	5.667519776381819	-5.038417730614546	-5.621747372963637
O	2.3931513763818186	-6.826192220614546	-6.594953872963637
O	0.06991734638181835	-4.504285180614546	5.580494507036364
O	-1.6207804376181818	-1.8402539206145454	3.489027647036364
O	-4.786688203618182	-3.4886722106145456	1.973844077036364
O	-6.804028563618181	-0.33867367061454523	2.4401936670363638
O	-7.471959583618181	1.6371562080854547	5.6626739970363635
O	-5.515159603618182	2.485131023385455	7.678267207036363
O	-4.275888533618182	-1.1026565806145452	7.185162787036363
O	-0.9714720666181818	-0.4294888606145453	8.956850977036364
O	1.388944716381818	-3.3444289006145453	9.197247927036363
O	4.3130004263818185	-1.7470811106145454	7.525930127036363
O	4.721075526381818	-3.602938830614545	4.272451647036363
O	7.170619686381819	-6.1411071706145455	2.990621307036364
O	5.173619036381819	-7.661229210614545	0.09307408203636386
O	6.976061886381819	-8.707220770614546	-3.062264682963636
O	4.573759106381819	-10.711482870614546	-5.259612442963636
O	-9.91874266361818	-6.917013220614546	-0.14104378196363615
