35

O	-6.128336055721045	1.3045669097253925	16.941869505040554
O	-7.5631485286408155	1.2884724147640543	16.98793111466044
O	-5.6890737118691375	1.4643097797950926	18.294657728318516
O	-5.7757715905446965	-0.45801394596971035	16.66146475463325
O	-5.508041529970473	2.2486344479095868	15.694146534946603
O	-4.743404982508128	1.4623786911511858	14.908132639043446
O	-3.8251163120754845	2.0608139308713533	14.10781843900989
O	-4.204149536714697	3.171394708421322	13.417305379450536
O	-4.691547974952281	4.069231306406976	14.386343400300312
O	-5.490063457230692	3.54439762702544	15.30562388680443
O	-3.908800511260573	3.5578991187199898	11.76933140153291
O	-4.042203098597443	4.7753397956287	10.950588849352613
O	-5.335150393869217	3.6539948228841195	11.544182356260045
O	-2.2437737051478424	3.7243037665063814	11.875604659015147
O	-1.4395273134933522	4.0090775045265135	10.64303305256782
O	-3.821098116982459	5.2421223936621395	14.34120921873948
O	-2.1836157039745583	4.866006365591424	9.840825610310864
O	-3.5170131717022723	5.8270535799917855	13.170089288761908
O	-4.967714970082854	6.327112989841307	13.08892709247035
O	-4.646618710762828	7.535527869276226	12.512856879159337
O	-4.513862512046007	8.518035843573777	13.395908792986301
O	-4.116027230958704	9.76330196203656	12.921396275000673
O	-3.642109727675931	9.921497930282955	11.662836584436466
O	-3.761967646210384	8.849830472654219	10.830270237512446
O	-3.9644050496265724	7.621680980672108	11.370155098934521
O	-5.975686161813971	5.698796141195874	13.570744604540156
O	-2.4540469974499137	6.781986239696591	13.047683247181343
O	-1.4005741095117177	6.912477648419976	12.198849884112537
O	-0.8027718522685179	8.135947534747475	12.13780211923735
O	-0.8123085887017858	9.050572406928966	13.155833542169406
O	-1.377612929522706	8.577047959849166	14.304295623641826
O	-2.1759556488986442	7.434923271321628	14.251591909711891
O	-4.151647596141946	0.27775698632934187	15.314135314117632
O	-2.8313850212533382	1.302845969162533	13.504740035453468
O	-5.418637053818097	4.479403190672581	16.248599465543908
