63

O	-9.791120233716327	0.7813938663673468	1.3015082093265309
O	-9.779650763716328	-0.6025767126326533	1.5336900843265306
O	-8.439827573716327	-0.9509985226326532	1.5342666433265308
O	-7.595858173716328	-0.015025262632653247	2.3712748923265305
O	-7.579135103716327	1.3889995183673467	1.8747733723265307
O	-7.102324043716328	1.3965052863673468	0.4586057543265307
O	-5.791914273716328	0.6762337583673468	0.4374792383265307
O	-5.691303933716327	-0.6773332126326532	1.0245059863265307
O	-4.8472624337163275	1.5845659013673468	1.1183647253265308
O	-4.5691438237163275	2.7437310073673467	0.21191699132653075
O	-5.768662973716328	2.9802994673673466	-0.48217003767346933
O	-4.198637263716328	3.7923716473673466	1.0236404983265306
O	-7.9898453037163275	0.5064325323673468	-0.3229743566734693
O	-7.877292573716327	-0.8801863326326533	0.15682914132653075
O	-6.769539593716328	9.414033837367347	10.379510882326532
O	-4.058442643716328	11.514581837367347	8.94233769232653
O	-3.2653417737163277	-4.313739472632654	13.672182672326532
O	-1.1923628317163275	-1.1372698926326532	14.029269172326531
O	5.998190286283672	-1.5084185026326533	8.35629029232653
O	8.146464496283672	0.5459957623673467	7.936503152326531
O	-6.554323423716328	11.387090137367347	-2.173162417673469
O	-5.890339583716328	13.614617537367346	0.7616582983265308
O	-2.9572937587163275	11.666324037367346	2.105347772326531
O	-0.5818437437163275	11.630091537367347	-0.8885891676734693
O	-0.9047855637163273	11.756657537367346	-4.689761137673469
O	-1.2879405847163274	8.513787937367347	-6.629549627673469
O	-0.3452077537163274	8.025253177367347	-10.285001927673468
O	-2.5858244887163275	5.047046777367346	-11.36673462767347
O	-1.3572600497163274	-0.6468707826326532	-9.92954242767347
O	-0.10681462371632744	2.805011487367347	-8.69955842767347
O	2.925939056283673	4.728548417367347	-7.322823307673469
O	3.0086475762836726	7.535695087367347	-4.721330727673469
O	5.485053026283673	9.247704497367346	-2.3807199876734693
O	8.748409796283672	6.410073097367347	-3.540915347673469
O	6.383634026283673	3.334322437367347	-3.3664136876734694
O	5.539285136283672	1.3594864653673469	-6.514081967673469
O	2.5769915762836724	-0.7963245926326532	-5.596683097673469
O	2.0218781662836727	-4.252522452632653	-7.185660827673469
O	-0.6523373437163273	-6.999624792632654	-6.529266877673469
O	-0.3446146337163274	-10.760492362632654	-7.014640867673469
O	-6.296159863716328	-5.611287302632653	-5.688096377673469
O	-9.092826433716327	-5.914769022632654	-3.1377993676734692
O	-4.786104483716327	-9.388743662632654	-2.8823041676734693
O	-4.688963233716327	-7.1841355926326536	0.2896425983265307
O	-6.3264243637163275	-10.017858862632654	2.2231803123265306
O	-3.3942769937163275	-12.425443762632653	1.6030718223265308
O	-0.8777302237163274	-10.369573262632654	-1.8572506476734696
O	1.3189218462836725	-7.346803032632653	-2.5181007876734696
O	4.844462516283672	-6.461248532632654	-3.544315227673469
O	5.944465106283673	-2.8258930226326537	-2.8828917176734694
O	10.502968696283672	1.3581183023673467	-2.0855868576734693
O	2.438929536283673	-4.266022092632653	5.812010862326531
O	0.8339266662836726	-1.2593304926326534	4.257485762326531
O	2.1554150062836723	1.9315883183673468	5.941272912326531
O	-1.2556312457163274	3.5912463373673464	5.952480302326531
O	-4.560773023716328	2.3560099573673465	7.425739552326531
O	-5.779434303716327	-0.31926986263265333	7.249352572326531
O	-2.1830334216163276	-1.4114756626326532	7.7378209623265315
O	-2.8965847767163275	-4.915578292632653	6.477286612326531
O	-0.01273209371632733	-7.326295492632653	6.667756022326531
O	0.06738322628367266	-8.314475992632653	3.0812748523265308
O	3.2857109162836724	-6.883592702632653	1.7208102923265307
O	8.778270196283673	-5.116225022632653	0.8084962363265307
