77

O	-1.8659659140925924	1.5066824778148151	-3.403553256074074
O	-2.726779834092593	4.0726691978148155	-3.882758956074074
O	-1.9852699740925923	3.265192287814815	-1.6113498960740742
O	-2.7625643640925928	2.8300694078148148	-2.772657586074074
O	-1.4445819260925925	1.2759022578148151	-4.675108646074074
O	-3.9562087640925925	2.6222942278148147	-1.946835906074074
O	-0.5053814588925925	0.268324045814815	-4.859312126074075
O	-0.18009148409259246	-0.546706919185185	-3.851488366074074
O	-0.9252635080925924	-0.533004522185185	-2.750172636074074
O	-2.0276402340925923	0.328500309814815	-2.793965736074074
O	1.1691034359074075	-0.880219849185185	-3.759311346074074
O	1.4041372859074075	-2.258705242185185	-3.808459156074074
O	0.7346557159074076	-3.153752912185185	-3.261640546074074
O	2.7868057459074076	-2.3796189221851853	-4.160726316074074
O	3.4357730559074073	-3.211775662185185	-3.246628296074074
O	4.159815985907408	-2.948767742185185	-2.159352606074074
O	5.142919745907408	-3.848750052185185	-1.8347751560740742
O	4.821738405907408	-5.162866412185185	-2.011972906074074
O	3.777730205907407	-5.457547122185185	-2.828727616074074
O	3.0098712759074076	-4.481647992185184	-3.374087856074074
O	6.527301165907407	-3.691863852185185	-1.4837683230740741
O	6.890822025907408	-4.411238592185184	-0.3461068040740741
O	7.300146225907408	-4.038482942185185	-2.430331076074074
O	-0.7446145320925924	4.763735647814816	-16.455555366074073
O	-11.317847074092592	4.176657847814815	-3.828051576074074
O	-10.717147674092592	7.112022287814815	-3.603739366074074
O	8.425346235907408	2.094194437814815	-10.277032756074073
O	7.192815965907408	4.2257617778148155	-13.101409066074073
O	3.9943108259074074	5.305337867814815	-11.427700366074074
O	5.324431565907408	6.836566427814815	-8.201944996074074
O	8.358695425907408	6.465857297814815	-5.917721036074075
O	8.206248545907409	4.017129057814815	-3.019828006074074
O	10.275365425907408	4.265125247814815	0.20105265792592586
O	10.307853925907407	0.559747258814815	1.4179761239259259
O	10.751282625907407	-0.741926343185185	4.9278351139259255
O	11.820106425907408	-3.965866882185185	6.555549703925926
O	8.501039385907408	-5.846744642185184	7.235134573925926
O	-0.7070338730925925	-4.0567292621851845	10.474653133925926
O	2.9415528459074074	-3.831323622185185	9.438573483925927
O	4.291927225907408	-0.882215251185185	7.434725943925925
O	5.611795795907407	-2.143202192185185	3.992783423925926
O	6.152800785907408	1.183467487814815	2.103866193925926
O	4.977751865907408	4.780118447814815	1.6224615239259261
O	4.5435881659074076	6.676305697814815	-1.655442156074074
O	2.8025542859074073	9.879474017814815	-2.858725546074074
O	0.8957357259074077	10.591933827814815	1.147358123925926
O	-0.014307470092592478	6.877013307814815	1.5859518939259258
O	1.5376901259074074	4.691388927814815	4.268525753925926
O	0.8171831159074077	1.100442527814815	3.258375703925926
O	0.32415564390740753	-1.612196972185185	5.875992793925925
O	-0.6230847460925925	-5.356889282185184	5.668368083925926
O	-2.4415516140925924	-7.524776002185185	8.221975063925926
O	0.014922993907407534	-9.869745432185185	9.958177033925926
O	1.7173430759074078	-8.806473762185185	1.5815965739259261
O	0.7320318859074075	-10.964439872185185	-1.3746120720740742
O	-1.8531148540925924	-12.989776672185185	0.7370607439259259
O	-3.0359242940925926	-9.803432752185186	2.4641879439259258
O	-4.252646584092592	-8.157890282185186	-0.7927116150740741
O	-6.648935034092593	-11.089117472185185	-1.3073597800740742
O	-5.832833044092592	-7.372199972185185	4.304932223925926
O	-4.5340074940925925	-3.806588552185185	4.153282603925925
O	-4.683045464092592	-0.605500333185185	6.1855280839259255
O	-3.630988004092593	2.609366707814815	4.359964733925925
O	-3.088630784092593	5.888821547814815	6.246292973925925
O	-3.6911588740925927	8.809974677814814	3.7846023839259257
O	13.350475225907408	12.279291927814814	0.4335788069259259
O	-9.545127744092593	-0.5053265101851849	-2.463165446074074
O	-6.053297424092592	0.085135373814815	-3.893827136074074
O	-6.287631734092592	3.191048197814815	-6.205965086074074
O	-3.9895624240925924	1.7090887478148151	-8.760412366074073
O	-4.380257234092593	-1.567894012185185	-10.691273266074074
O	-5.093049834092592	-4.229558402185185	-9.643490496074074
O	-7.631850284092592	-2.131325622185185	-7.655679906074075
O	-8.361859904092592	-4.963046672185184	-5.231542456074075
O	-8.807637434092593	-5.055245632185184	0.4149507639259259
O	-8.259797684092593	-1.7442207921851849	2.163384653925926
O	-7.642062004092592	9.448646617814815	6.148491043925926
