23

O	-5.147372811174874	10.586031414352334	9.148551439749923
O	-5.376062850430847	10.866995784446884	7.825141363835726
O	-3.9120262677744067	9.876636861765249	9.501167841993585
O	-3.1690307149929335	9.14196047695591	8.424845869744036
O	-1.9850596652440498	8.726782056791944	9.070074749314257
O	-3.988876463240646	7.8319254353115575	8.45283770739459
O	-5.2659208143047795	8.28394565848113	8.20358772037452
O	-3.974854717188415	7.624044104855618	9.965261011050224
O	-4.126513607940351	8.900109708506006	10.397748625007399
O	-5.275045208188131	6.942630698592791	10.265894593932744
O	-6.2955334804296665	7.8478826202852225	10.033986029133855
O	-3.5129998629232846	5.753607535529209	11.224137154444099
O	-3.006220071428279	6.763141916593614	10.388318726064131
O	-2.3819030118234563	5.035612441966363	11.898911118536436
O	-2.9953454701330857	4.390609212097229	12.939736261313382
O	-1.4550957784214287	6.1795860067374315	12.135351889816093
O	-0.9095640632994453	6.493680089981625	10.865149043065237
O	-2.2336710931169623	7.406117650546694	12.464427510011898
O	-1.5575292720193605	8.522033675036358	12.064564488497574
O	-3.6738069638888597	7.374911223109886	12.528522036271635
O	-4.341797676008008	6.220551773777178	12.219453795806418
O	-4.43364714768087	8.211563100736196	13.415477685920674
O	-5.7256691580701125	8.359837459271338	12.995634499733661
