41

O	-1.370979891961838	7.630317576611887	9.865458197959747
O	0.24211793604980958	9.345215955318746	11.418990800087975
O	-6.896554101679865	1.6989836900612545	16.472915647239255
O	-5.42574232031804	1.8602624903380773	16.396936840536465
O	-4.882973447510168	0.4258664542578572	15.664389265924925
O	-5.094341087848037	1.8071510229938608	17.843408151293104
O	-3.551886289886912	6.441195371474583	11.273255979116307
O	-0.41950758705826097	10.049766385310514	12.425972508799214
O	-1.9510377855768697	6.978903691770656	11.56889296205085
O	-3.634110852706218	7.395282758974558	10.192005717877803
O	-0.3884592962790041	10.018587782466298	13.867963350276119
O	-3.7590608067783013	5.208258556818366	11.918252738435395
O	-1.6077129322418005	10.634955523433383	11.75701586556991
O	-2.3750828690798835	11.54622593778057	12.55653407865498
O	-2.1432350692518725	10.281349144552918	10.448485044256326
O	-3.436162528850409	10.115731442835411	9.882165351787428
O	-0.7391783605212803	9.795682852737535	10.401480211305266
O	-0.2372125344562832	10.848886277347551	9.558918498117121
O	1.0568944267286877	8.357417914135208	11.95852351485705
O	-4.907954840292448	7.2896880097584384	12.016921292178655
O	-5.982754102178374	6.588147760621875	11.540479777196424
O	-6.881559954031371	7.749950459804231	10.993447959602758
O	-6.704303925341976	8.964364369293412	11.812122481334569
O	-6.771990632138646	8.12120450729585	13.020186729615261
O	-5.947973881098048	6.857998118029286	12.900579353389256
O	-1.9978664896121225	6.3507718522637155	12.759491848794683
O	-2.9942235604700924	8.53227213622263	12.533388372247625
O	-1.9441498952011464	7.846163622059365	13.261924146565612
O	-2.4417964361243323	7.457606814393069	14.48828187244095
O	-3.85662701571971	9.325040417108912	13.376584536650219
O	-4.155508145709177	8.692722974986683	14.48217239188654
O	-3.722237570139877	7.247055263996963	14.478721745708926
O	-4.512789226819759	6.290822617098374	15.184931416493226
O	-5.5346687840448485	5.3867915785366876	14.751857465490144
O	-5.782596706824213	4.035627886734527	14.733496856117918
O	-3.6750528159975437	5.072975328252451	15.011146612785758
O	-3.693236087736643	3.8223707736443946	15.531077131869338
O	-4.945972171327375	3.2867898441335255	15.541192999792061
O	-4.443848454068368	11.019287801654432	10.438556934577417
O	-4.04660599659316	12.49434305340608	10.464164532796836
O	-1.630512426011407	8.821428601687288	11.402736523149013
