91

O	-1.7745287856750003	0.12787007045454502	2.8546926945
O	-2.337599045675	0.539522090454545	0.6482466185000002
O	-0.4785315046750004	1.2930768904545453	1.1057009045000001
O	-1.0907030756750005	-0.09477554954545475	1.2449645545000003
O	-0.5121254306750004	-1.6528211845454548	0.8686976045000001
O	0.17818925432499963	-2.475461553545455	1.9157493445
O	-0.4533502606750004	-3.541108359545455	2.6707288845000003
O	1.2973913743249996	-3.201933969545455	1.3040703245000003
O	1.9692254243249998	-4.3004722595454545	1.2469263645000002
O	0.34910913932499954	-4.126023859545455	0.6174457075000002
O	-1.0431612066750005	-3.7963168195454546	0.7473081645000001
O	0.6721098003249996	-3.3082948095454547	-0.6277270684999998
O	0.11445943732499961	-2.179423319645455	-0.32079812329999985
O	1.9721962243249997	-3.810477119545455	-0.9551040504999999
O	2.628686024325	-4.571753869545455	-1.6159530654999998
O	-1.1181227166750003	-4.614554479545455	-0.24981351369999982
O	-0.9099393066750004	-5.7757308795454545	0.6276183665000001
O	-1.4774218856750003	-6.7196005095454545	-0.24322871319999984
O	0.39060606832499956	-6.480756879545455	0.7313571045000002
O	0.17668792132499964	-7.6763357995454555	1.2604304845000003
O	1.1198637243249998	-6.675643649545455	-0.46308458049999984
O	1.7751216943249997	-7.823060169545455	-0.5138380284999998
O	0.0970474833249996	-6.205592339545454	-1.4292805654999998
O	-0.3279158336750004	-4.982990959545455	-1.2103361325
O	0.6260503853249996	-6.6434152595454545	-2.7003168255
O	0.6742023513249996	-7.922289039545454	-2.2271314054999998
O	0.0976960223249996	-5.895481549545455	3.5974356945
O	0.4370540373249996	-4.6177629595454555	2.9334521945
O	1.2992125443249998	-4.077438419545455	3.6425350745
O	2.978433954325	-5.0612273395454555	1.5711365845000003
O	3.2182178143249995	-6.2091004495454545	2.4235617745000004
O	3.890810254325	-4.2476743695454555	1.6274959745000002
O	3.6036981943249997	-5.486593419545455	-1.7436221454999998
O	3.9025379743249995	-6.511184629545454	-2.6864792755
O	4.490251744325	-5.294869199545454	-0.9291073364999998
O	-1.9586566356750004	-8.964321169545455	-0.8500339254999998
O	-1.5466467356750002	-7.9693393595454545	0.13571220050000016
O	-2.1027332956750002	-8.028229129545455	1.2884609545000003
O	0.9372101843249997	-8.734368229545455	1.3127179445000001
O	0.5647268383249996	-10.125686009545454	1.0151203945000002
O	1.4774634743249997	-8.587011749545455	2.4546646045
O	3.4221051743249995	-9.771833169545454	-0.6296601264999999
O	2.929232504325	-8.395288049545455	-0.3109845245999998
O	3.8102208143249996	-7.8223590495454545	0.2746638395000001
O	1.1489322243249998	-8.953009029545456	-2.9486345555
O	0.8172743263249996	-10.217064849545455	-2.2697314155
O	2.3036352543249996	-8.726262379545455	-3.3227053055
O	-9.283449855675	-9.847039279545454	7.6422976144999994
O	-8.009127905675001	-7.514518869545455	10.2462864145
O	-14.622735625675	-2.713745534545455	-1.2009108484999997
O	-9.586920675675	6.737976960454544	2.3906749945000003
O	3.3350702643249996	-8.559742569545454	8.207109174500001
O	0.6682643833249996	-8.936722589545456	10.8558134145
O	-1.2634253056750002	-5.864042339545454	9.9256760145
O	1.3124212143249998	-3.019134199545455	10.4650268145
O	5.082477694324999	-2.9398469105454548	10.067716114500001
O	6.845878984324999	-1.9312891995454549	6.996837774499999
O	10.208741774325	-0.3833858795454548	6.4221346345
O	11.205989274325	-1.7438994025454548	2.9112470545000004
O	9.282762664325	1.0901155704545453	-2.1551393955
O	8.038889274325	0.8104584004545452	1.5391807445000003
O	6.439591124324999	2.9935858904545447	4.2367352545
O	4.256199824324999	2.190478870454545	7.2606771844999995
O	1.7028746543249997	3.736604050454545	9.632192874500001
O	2.043242634325	7.692896020454544	7.572417714499999
O	1.9211132543249998	6.154471050454545	4.0262121744999995
O	4.966652644324999	6.353008010454545	1.7440449545
O	4.353639884324999	3.9985465804545455	-1.0846424005
O	5.582148684324999	4.497796860454546	-4.6972160555
O	5.087796904324999	2.4280605904545447	-8.0179793855
O	5.027025394324999	3.634150010454545	-11.639090185499999
O	5.174167414324999	-3.679197629545455	-7.5636178355000006
O	3.1773651143249997	-6.789053349545455	-8.1148393555
O	1.9809829743249998	-1.907955205545455	-10.8949977855
O	-0.9389498756750004	-2.870749098545455	-8.4844643255
O	-2.8415461956750003	-4.1462417995454555	-11.549468985499999
O	0.21429690432499962	1.8872885604545453	-10.951384985499999
O	0.8062890803249996	3.471248510454545	-7.5098984955
O	1.3117545543249998	6.960045930454545	-5.9236592755
O	0.8652444943249996	6.999858160454545	-2.0351375254999997
O	-0.11298316097500039	10.372623030454545	3.1943504145
O	-7.307571715675	2.711246330454545	-3.8471863854999997
O	-5.362706755675001	0.737535530454545	-1.3852127354999997
O	-6.749706845675001	1.1284707404545453	2.1097590245
O	-6.412862265675001	-2.5454326385454547	2.9657535645000004
O	-7.562718875675	-5.693314149545454	1.0721242045000001
O	-7.030307095675001	-6.373735149545455	-1.7949659954999997
O	-8.420613455675	-2.683947111545455	-2.0781785655
O	-7.2612232556750005	-2.498842004545455	-5.7084018055
O	-4.527591015675001	1.475668140454545	-8.428002465499999
O	-3.5964411856750003	4.579701110454545	-6.4198733355
