16

O	-3.897296138116161	2.7292345271886367	15.24682275110532
O	-5.533774864428234	-0.6259132305502906	16.37424103499168
O	-5.371987203980972	1.5084745903791532	17.803195971421808
O	-5.708301418193717	1.0987666737420305	16.434482182083016
O	-4.507724040394311	3.8342802980685287	14.454294536362296
O	-3.5484676347540542	4.503523001011017	13.70237558640976
O	-7.16189687234857	1.3145258256371868	16.48381176957625
O	-2.9786294366886072	4.062748457446622	12.579452011322443
O	-2.2441302013026565	6.1068300928125705	12.93709583021369
O	-1.9084589379104866	4.898645111981043	12.50064231163483
O	-3.0568940428083673	2.7624095580600985	12.117709498652975
O	-1.916903367152491	2.05079908910551	12.240654158324906
O	-3.4345683680661505	5.848778735762931	13.5459419219833
O	-4.829078228955764	1.6656912915065094	15.1544364340643
O	-4.131652927950561	2.1710234585660255	12.216004718221617
O	-4.558552029059585	6.821206403799446	13.265950309284705
