84

O	0.3573920687592589	0.6971597769999999	4.046438618796296
O	-0.9169416232407411	1.821264459	2.321584878796296
O	-1.0195685982407412	3.0698168	1.8227282117962957
O	-2.224684691240741	3.87115908	2.020149998796296
O	-0.19371725124074124	0.7065628009999998	5.295641488796296
O	-1.3815543072407412	-0.1048484300000001	5.311141348796296
O	-1.3535824602407411	-1.0742080000000003	4.295970668796296
O	-0.003980851240741101	-1.49468715	3.9820265687962957
O	0.8073492087592589	-0.4688517200000002	3.7342027787962957
O	-1.750731277240741	-2.52938869	4.580945718796296
O	0.3004459787592588	1.660079489	2.9600439387962956
O	0.20373540875925888	3.5484497399999997	1.9548887887962958
O	0.9041153987592587	2.4328531399999997	2.1807300487962955
O	-1.3823153782407411	-3.36409351	3.5009187787962954
O	-0.7994260172407411	-1.7095755300000002	1.7008611017962958
O	1.0158624487592587	-2.96325886	2.127756668796296
O	-0.7407209442407412	-3.1765954	5.316691498796295
O	-0.21074326124074116	-2.72305931	2.7222170187962957
O	-1.674425376240741	3.00591919	4.0163279087962955
O	-2.671809321240741	3.2210386799999995	3.1312549787962958
O	-2.504816851240741	2.94397277	5.265324758796296
O	-1.7901580822407412	3.14509641	6.461332798796295
O	-3.197453811240741	4.262145289999999	5.065743998796296
O	-3.3887462412407414	4.92355171	6.261932548796295
O	-2.741127661240741	5.26008767	4.098332788796296
O	-3.6104607312407415	6.2283054	3.706120078796296
O	-1.3873387002407411	5.25471614	3.6612268587962955
O	-0.8704429592407412	4.08186362	4.155854418796296
O	-0.6997082902407411	6.42155263	3.162387598796296
O	-1.5224260942407413	7.04256053	2.1996489387962956
O	-9.86472470124074	-4.02537508	13.296738118796295
O	2.7861542287592584	-12.59750415	6.864556238796296
O	-7.384449971240741	7.76072153	-9.877510381203704
O	-11.17896555124074	3.66661559	-5.291954471203704
O	-11.89702564124074	4.0974184	-1.6005988612037043
O	-13.38220344124074	2.057418473	1.2945539887962958
O	-11.170255721240741	2.8960435799999997	4.266325978796296
O	-12.93349054124074	0.6609775759999998	6.650342708796296
O	-10.38168801124074	-2.07078993	6.616393148796296
O	-10.25582106124074	-2.8494214600000003	2.8637532387962956
O	-10.80829912124074	-1.0135651300000001	-0.4634542112037041
O	-7.918653091240741	0.7126386289999999	-2.1884131212037046
O	-7.491743251240742	1.543639652	-5.844484751203704
O	-4.973295821240741	4.49904164	-5.873685501203704
O	-2.643929681240741	5.56137597	-8.628201891203705
O	-0.8143882592407412	8.73428622	-9.514816681203705
O	2.7266197187592587	8.26999539	-8.024472071203704
O	9.63728195875926	1.2834027209999999	-6.706519311203705
O	6.5526586987592585	3.29159221	-7.660131151203704
O	3.077403108759259	1.7356024289999998	-7.523853011203704
O	0.9586804487592591	3.7848929799999995	-5.099407251203704
O	-2.170149151240741	1.567609708	-4.422141351203704
O	-3.5145580312407407	-2.0136617900000005	-4.528910191203704
O	-6.0762719512407415	-3.6925601500000003	-2.2397460912037044
O	-7.202135641240742	-7.197962690000001	-1.1942689012037044
O	-3.983098831240741	-9.08223015	-3.6324436812037044
O	-1.3162923522407413	-6.48359193	-2.5165338812037046
O	0.2585856387592589	-4.08096784	-5.004211261203705
O	2.001857178759259	-1.4669182500000002	-2.836652081203704
O	5.1825252687592585	0.2295322999999999	-4.045847881203705
O	7.619469658759258	2.72936759	-2.404121831203704
O	11.34511865875926	3.23969928	-3.0580204512037046
O	11.93875195875926	6.40854408	-5.110613221203704
O	5.715853138759258	7.17486457	0.7423911587962958
O	5.960907578759259	8.68953531	4.231397328796295
O	9.73813515875926	8.57396303	4.289618818796296
O	9.74893385875926	5.15796107	2.631942578796296
O	7.8419882087592585	3.4349161399999995	5.4922749987962955
O	10.583202358759259	4.51253348	7.892083378796295
O	11.33179025875926	1.448977083	1.8323004877962958
O	8.54239757875926	-0.64422025	0.36966679479629583
O	8.149703008759259	-3.4940218400000003	-2.122422041203704
O	4.8071087487592585	-5.3403815	-2.0193042012037044
O	3.7719143487592586	-7.8235077	-4.683210461203704
O	1.361659698759259	-10.45458325	-3.2675722112037047
O	-13.42498994124074	-3.32646261	-9.814987681203704
O	6.625989978759258	-5.83110203	7.440111278796295
O	3.344139518759259	-4.24461024	6.918193728796296
O	0.4776599287592589	-6.64560365	7.909937898796295
O	-1.7379841262407412	-4.0266202799999995	9.534035368796296
O	-0.8807133102407412	-1.3986094500000001	12.132011318796296
O	1.525534128759259	0.3043557189999999	12.254061618796296
O	3.2917444487592586	-2.9976090600000003	11.335743418796296
O	6.501358728759259	-1.2256419400000003	10.340076488796296
