76

O	3.46396778977193	6.429247988720878	-0.4607629586807018
O	0.5943110417719297	6.166856398720878	-1.110600005280702
O	3.04884562977193	0.7197590557208775	-3.027156488280702
O	3.60512026977193	3.4684370587208777	-0.7345565512807017
O	1.2462722197719298	2.5433532187208776	-1.4371771582807016
O	4.23565619977193	0.9603136827208775	-0.8335264182807018
O	3.42341322977193	-0.04323147127912241	-0.09601466928070179
O	3.39276358977193	2.1509241257208775	-0.8797147932807018
O	2.51718026977193	4.279660108720877	-0.6202307442807018
O	1.3840093197719299	3.8925688287208775	-1.2860379372807018
O	2.13606250977193	1.5988046087208776	-1.1171801022807017
O	2.16780322977193	0.29143596672087746	-1.8551052082807016
O	3.43632834977193	-3.0382377212791223	0.26822792071929824
O	2.82935221977193	-0.7640850012791225	-1.1816537732807018
O	0.9848095197719298	-2.1858247912791224	0.1909992837192982
O	1.8468030797719297	-3.0665173612791223	-1.7299677582807016
O	2.52000948977193	5.508757958720878	0.002554993719298182
O	0.4905705877719298	4.871162528720877	-1.6421852782807016
O	2.20624873977193	-2.1840819712791224	-0.6131205932807018
O	16.08570871977193	-0.8975766412791226	-0.8175954462807018
O	16.53044181977193	-3.969174481279122	1.279845211719298
O	3.03416481977193	-10.380284301279122	-4.171378228280702
O	3.53611556977193	-11.462198201279122	-1.4209563782807018
O	10.05687001977193	7.728179088720878	3.5785658417192985
O	13.23751531977193	5.7550326987208775	3.991281241719298
O	11.63952671977193	2.3766107587208776	3.3911197717192985
O	8.95331707977193	2.3104434687208775	6.106239571719298
O	6.83451049977193	4.8485089687208776	8.019442001719298
O	3.44666964977193	5.856145048720878	6.661545581719298
O	0.5252616987719299	7.246200768720877	8.617946041719298
O	-1.4874583802280703	9.242227718720876	5.949625591719298
O	-5.15207690022807	10.077703158720876	5.968392041719298
O	-7.37432395022807	12.630386498720878	4.3227241617192975
O	-8.795739350228072	10.805883958720877	1.222081241719298
O	-12.13888378022807	1.9187089507208777	-1.654787028280702
O	-10.83964478022807	4.922761748720878	0.2898358117192982
O	-8.12030474022807	4.529935198720878	2.9540756817192984
O	-5.07318091022807	6.590291588720878	1.9429311617192981
O	-2.33710364022807	5.359587498720877	4.3992497817192975
O	-1.0866465552280702	2.422805428720878	6.504778641719298
O	2.49287718977193	1.2113363856308774	7.068061671719298
O	4.30404193977193	-1.8767374112791226	8.354048011719298
O	6.94275458977193	-4.363300771279122	7.259348811719298
O	0.48832493177192987	-4.170086061279123	8.744260261719297
O	-0.8621241322280702	-2.8690357412791228	5.382307621719298
O	-3.88973659022807	-0.5997070212791225	5.157036451719298
O	-3.83823069022807	0.8597173857208775	1.667559321719298
O	-7.05761699022807	1.7590315047208775	-0.17849695428070178
O	-7.79048428022807	3.0244725087208773	-3.7649072882807015
O	-10.87916358022807	2.5010079087208776	-5.9228196582807024
O	-4.39380451022807	7.1437772787208775	-6.169646198280702
O	-5.86107185022807	3.7146369187208776	-9.412985588280701
O	-2.36798715022807	2.0473496237208773	-9.468795398280703
O	-2.65990380022807	1.7655328247208775	-13.243760588280702
O	-5.76470589022807	-0.5045758812791226	-13.065784788280702
O	-7.25504358022807	-0.10999176127912258	-8.574937998280703
O	-6.17159382022807	-0.9514047112791224	-5.021122978280702
O	-7.4055129302280704	-2.991729441279123	-2.066623138280702
O	-4.77176227022807	-3.725094881279123	0.6516921417192981
O	-5.85050663022807	-5.247473621279123	4.020225111719298
O	-2.84355817022807	-7.171750251279122	5.480827431719298
O	-2.77829338022807	-7.960413401279122	9.231460551719298
O	0.6603245587719297	-6.519964551279123	-6.658714138280702
O	2.41817307977193	-3.7723938912791226	-4.667703328280703
O	5.26880563977193	-5.322212471279123	-2.616183448280702
O	7.63630608977193	-2.4806944812791225	-3.246662108280702
O	8.732172989771929	-0.9259772712791223	-6.549338698280702
O	7.08539243977193	-0.2074995812791225	-8.883938408280702
O	5.47516236977193	-3.6288987112791222	-8.106701018280702
O	2.39716352977193	-2.857570351279122	-10.241623508280702
O	-3.12611451022807	-3.569143151279122	-9.230179788280703
O	-3.97258083022807	-5.017412741279123	-5.849204208280702
O	-7.25738969022807	-9.058821501279123	1.7406032217192982
O	-5.23687894022807	-10.986572201279124	4.353051191719298
O	16.74478061977193	3.8381617987208774	6.4142197617192975
O	9.913045319771928	-8.888741201279121	0.2804653677192982
