75

O	-1.312958207561404	-1.5817116402982454	-1.352391615982456
O	-1.929775624561404	0.16052045870175446	-0.30088813998245606
O	-0.15653527456140393	1.8149548637017545	-0.4244523454824561
O	-2.692280894561404	-1.8853369502982456	-0.9649678879824561
O	-2.687951714561404	2.8496560497017547	-0.45485716378245605
O	-1.3572085535614038	1.7139724617017547	1.4524046400175439
O	-0.8807548375614039	-0.7472032402982456	-0.20259743698245605
O	-2.857847064561404	0.009073438701754477	-3.276025989982456
O	-3.9885168345614037	0.5526102827017545	-2.226525249982456
O	-4.277099664561404	-0.9066214602982454	-2.837302009982456
O	-2.067566574561404	-2.3151163202982454	-2.187788809982456
O	-1.510813998561404	-0.6996558102982455	-2.6321762699824562
O	-2.427457110561404	0.6340165497017545	-2.208401059982456
O	-3.448827894561404	-0.2734975902982455	-0.9248044559824561
O	-3.9431446345614036	-1.5841622202982455	-1.389171998982456
O	-3.6316030845614042	-2.3987223302982454	-2.709164319982456
O	-3.971565134561404	-3.9302173002982452	-3.256243299982456
O	-1.535861942561404	1.7029590597017545	0.031124165017543948
O	-14.631248134561403	-1.3609976402982453	-4.656364369982456
O	-15.244124534561404	2.6945216797017544	1.6091912100175438
O	-10.094858354561405	-3.4190588602982452	11.275229370017543
O	-11.557538254561404	-0.6348880802982455	9.094895840017545
O	-5.064658514561404	5.418147949701755	6.9250933300175435
O	-5.297537964561404	7.875805459701754	5.222636370017544
O	-5.823639464561404	-5.361091130298245	-10.957646329982456
O	-9.261400514561403	-3.7737480402982455	-11.249712229982457
O	-8.757677744561404	-1.1366628902982454	-8.547436079982456
O	-5.602362304561404	0.6719750407017545	-9.863371169982456
O	-2.5241909025614038	-0.19941976029824549	-11.950053429982455
O	0.666343645438596	-1.5200309002982455	-10.345875319982456
O	4.183420145438596	-1.2235201602982455	-11.783107229982456
O	6.105755825438596	-4.156485700298246	-10.114517399982455
O	9.772510165438597	-4.507667140298246	-9.444600489982456
O	12.489323265438596	-7.514997670298246	-4.975584919982456
O	8.050240985438597	-4.023506620298246	-4.4195702399824555
O	5.568312375438596	-1.8996029602982456	-6.5173239499824565
O	4.130565915438597	1.6297553027017546	-7.0760958399824565
O	0.5531368054385959	2.6527120697017548	-8.017250619982455
O	-1.759063175561404	5.668822859701754	-7.834961379982456
O	-5.084900854561404	6.873739189701755	-6.478553389982456
O	1.411464305438596	8.094248319701755	-5.832897299982456
O	2.265692875438596	5.137167889701754	-3.408776559982456
O	5.757234385438596	3.5474803997017545	-3.551326309982456
O	5.465277725438597	0.3280146917017545	-1.5544687399824562
O	8.460735365438596	-1.1014234802982454	0.433669852017544
O	8.708288865438597	-4.158653780298245	2.838032860017544
O	11.069774465438597	-4.673920340298245	5.7571345100175435
O	6.104868075438596	-9.255368370298246	1.597970360017544
O	5.961533495438596	-8.166087950298246	6.424781710017544
O	2.2049156254385958	-7.203002870298246	6.302127680017544
O	1.656685075438596	-9.083204100298246	9.530876590017543
O	4.061429635438596	-6.812129640298245	11.495345870017545
O	6.455745095438596	-4.427632010298245	8.157147100017545
O	5.933594345438596	-1.8035382202982455	5.468727240017544
O	7.105935535438597	1.6600417497017546	4.517601750017544
O	4.9709765854385966	3.5498000897017543	1.9473274400175438
O	6.2314361854385965	6.841111899701755	0.3861209270175439
O	3.1652301254385966	8.931831599701754	-0.666670289982456
O	3.640125815438596	11.749485129701753	-3.2306729899824562
O	-2.3189828625614037	1.0617203607017545	7.528471980017544
O	-2.953817064561404	-0.15580615229824546	4.0734885900175435
O	-5.629932214561404	2.0670144797017542	2.4198065000175437
O	-7.532638334561404	-0.7052192602982454	0.8910786200175438
O	-8.743759524561405	-4.089125540298246	2.285271440017544
O	-7.341056674561404	-5.880102250298245	4.189441750017544
O	-6.459534654561404	-2.5292693102982455	5.841487980017544
O	-3.731675814561404	-4.123981080298245	7.984252550017544
O	-1.981691317561404	-1.7721018202982455	10.339086470017543
O	1.521135035438596	-2.4075534202982456	9.237283410017543
O	2.6177280454385965	0.7895701017017545	7.565140140017544
O	3.6619536354385964	6.332338459701754	6.102395160017544
O	6.175340455438596	8.766159329701754	4.633392710017544
O	4.277943875438596	11.638416229701754	2.9636786300175437
O	-12.608034634561404	-1.1294056802982455	-13.168925629982455
O	-10.400329944561404	6.229322549701754	0.6075762700175438
