73

O	3.290638904308164	5.3004578319	4.661090449718367
O	4.704421514308164	5.460473281900001	5.105819029718367
O	5.481585364308164	6.1490149419	4.034900669718367
O	4.565135034308164	6.5619226819000005	2.9418230197183672
O	3.0781536543081636	4.0629605319	3.749650189718367
O	4.2520498243081635	4.2942366419	2.959114499718367
O	3.9374085243081636	5.4722010219	2.1263419097183673
O	5.162894474308164	3.5771835719000005	2.261775229718367
O	4.625477494308163	3.0634539419000006	1.0059082257183671
O	3.910603114308164	2.0256481809	1.501868659718367
O	3.6466733143081638	1.2688318159000005	0.3031018847183671
O	3.391112774308164	-0.07156873809999964	0.6745243377183671
O	2.0292807243081636	-0.3514206880999997	0.7212123557183671
O	2.651764194308164	2.0315567639000003	-0.23066115228163295
O	1.6425192843081637	1.2246893119000004	-0.765489676281633
O	1.6856185843081637	-0.17545778809999968	-0.5837994272816329
O	1.8481886543081638	-3.4071605180999995	-1.338447970281633
O	-0.6603951336918362	-3.2395278281	-0.616190805281633
O	1.2509364143081638	-2.4680153580999997	0.9020349097183671
O	3.3158946143081636	4.6462743019	-0.745779032281633
O	0.5362013873081638	-0.9584938680999997	-0.870450790281633
O	2.0270848543081637	3.8221191119	1.2367180197183671
O	3.1498661043081637	3.6841349119	0.33367418171836705
O	0.7813824663081638	-2.7271405880999993	-0.804040225281633
O	13.705989844308164	-4.855151128099999	5.4016231297183674
O	13.295003644308164	-6.9320000681	2.342832599718367
O	2.1547351443081637	-3.4862617081	14.087567669718368
O	3.294980294308164	-6.5112561681	12.088345369718366
O	-2.808260595691836	-8.3503369481	5.478945569718367
O	-2.7302404056918363	-10.5214750781	3.406837139718367
O	12.012848144308164	1.2075389959000002	-5.527191510281633
O	14.007760844308162	-1.8344702980999998	-4.631054760281633
O	11.086272944308163	-3.9413696080999996	-3.517877550281633
O	8.864938314308162	-3.9275737680999994	-6.637094870281633
O	8.227735224308162	-1.5659358780999995	-9.570598950281633
O	5.566048154308164	1.1173832039000002	-9.368395420281633
O	3.703540674308164	2.6667196419000003	-12.297550930281632
O	2.547502144308164	6.120991671900001	-10.982071430281634
O	-2.068290375691836	6.8527067819	-7.159051940281633
O	0.05641935510816374	3.8312765119000005	-8.376333430281633
O	-0.04207358259183626	0.05729897190000033	-9.213521880281633
O	2.6499594343081636	-2.6055732481	-8.589285620281633
O	2.9473851043081636	-6.416249018099999	-8.465696310281633
O	-1.4504589756918362	-6.903999418099999	-8.868119940281632
O	-2.201933845691836	-4.0196929380999995	-6.369630170281633
O	-3.958748535691836	-0.8690925380999994	-7.606761270281633
O	-3.519398305691836	1.6685004142000004	-4.844391960281633
O	-6.113980115691836	4.3845913319	-4.104740720281633
O	-6.418743635691836	7.0774489219	-1.3197164002816328
O	-9.509158875691837	8.654685801900001	0.17337250451836708
O	-1.6510387256918362	10.020952661900001	0.45039932171836705
O	0.3865234733081638	10.718088581900002	3.559294249718367
O	-4.763111685691836	8.9425937319	4.167507579718367
O	-2.4811538556918364	6.1874414919000005	5.562378349718367
O	-3.1745915656918364	7.4005063819000005	9.086500669718367
O	-6.913634095691836	6.6259264119	8.837617089718368
O	-7.643765865691837	5.9625344019	4.205645769718367
O	-6.810931655691836	3.5481385019000005	1.414569009718367
O	-8.586324865691838	1.2370228759000004	-0.9704704302816329
O	-6.493928405691836	-1.4357518680999997	-2.719365720281633
O	-5.950511295691836	-6.882591668099999	-5.685895850281633
O	-3.3104215056918362	-3.2484939781	6.054294609718367
O	-0.46152410869183624	-2.4746481880999998	3.8982730597183672
O	1.5550154043081637	-5.691795378099999	3.0510363097183673
O	4.959788024308164	-4.0895562881	3.346612799718367
O	6.361555554308164	-1.9436996680999998	6.1011955397183675
O	5.046595674308164	0.1262218419000003	7.669805729718367
O	2.1412208943081636	-2.2105339981	7.540380919718367
O	-0.3737448466918362	0.39988624190000044	8.660277289718367
O	-3.9008960556918364	-0.7335028380999997	9.103419139718367
O	-5.494515495691836	1.6663851265000003	6.748789099718367
O	-6.7041449156918365	-0.44165051809999945	3.882802369718367
O	-9.036292095691838	-4.5821782981	0.504494176718367
