25

O	-3.702750180128872	3.8249568137452377	14.311819038133837
O	-4.73779737489142	5.2639307708889165	15.684684196859427
O	-3.2205791839263513	4.805690260983338	13.600207957675455
O	-3.9783805505543475	6.2253490308553765	15.119747038112347
O	-4.446381610429848	3.7582027474862088	15.5428733274182
O	-4.803349097849606	0.007750293693984389	15.986950701078586
O	-3.497960443379493	6.061848332879934	13.841139512240863
O	-6.726093317606676	1.5598555879681228	15.232765924576148
O	-6.322859992216113	1.0197538046301684	17.667926278465547
O	-3.832476958548606	8.640764544536088	13.95514079858042
O	-3.4036249817631745	7.260703207066307	11.845173763784363
O	-4.934038446330524	2.7621774383257245	16.214515580002665
O	-5.297485477923477	1.3763443440408043	16.45016743464964
O	-3.8426981167672767	7.547680687526189	13.127222558103167
O	-5.509155881720515	7.515833255420022	12.948790703899634
O	-5.637140201784657	6.421450425323388	12.103033418279098
O	-4.4892730295419545	5.458970609278454	11.992308081557505
O	-6.094542673078218	5.157599171995966	12.782374052886627
O	-5.951466189293853	3.8124250554998547	12.713932336405907
O	-6.9500122180335	5.312591459965993	13.920187181576608
O	-7.407240947375316	4.549566250514105	14.868433073501237
O	-7.078631699212732	6.74103536624209	13.919588700517485
O	-5.810033899854506	7.050859611449283	14.250479453223523
O	-7.533431937760997	7.972233069899063	13.328426405220654
O	-7.3841585312776274	8.405366902374105	12.039413180978624
