14

O	0.8894732489734283	9.3718727274987	11.979174881157439
O	0.8742752645243437	10.19480468022278	13.11582194943
O	0.05777557139878997	9.536479668095957	14.019404098489968
O	0.3825472858892631	8.063008663208702	14.130397934755285
O	0.17105479052259653	7.301887400302158	12.867843241425225
O	-1.24429588965595	7.483084711848864	12.424125051388174
O	-2.1141432789063344	7.097218447739213	13.57776447281653
O	-1.8896456587280381	7.715199515470349	14.902365018952855
O	-1.977004450843046	5.630612273264099	13.684059806949703
O	-2.7038836577395933	5.003123675023535	12.534901037967106
O	-2.543468241472125	5.8881477925933465	11.454360970753932
O	-2.112308389869537	3.778080189447487	12.322475720334818
O	-1.4928675628965822	8.9354893165483	12.2843969161178
O	-1.3664532879284623	9.605375856416885	13.588568241245198
