79

O	0.6133204878918427	0.8247086252745097	3.5285701966666667
O	-1.1741553261081574	-0.45594483872549035	3.7336658466666663
O	-1.6837939381081575	0.8376677352745097	3.1968428166666665
O	-1.1636124331081574	1.3211889402745096	1.8812307976666665
O	0.3431137078918426	1.1302863652745097	2.0514473286666663
O	0.009468319891842603	-0.4867223807254904	3.0484009866666666
O	-3.9351910521081575	1.7541252802745095	-0.005246883333333452
O	1.3009866878918426	-2.7912664097254902	2.4012545066666666
O	2.5677876278918426	-0.7781733337254904	2.7513770166666665
O	-1.6985963651081573	0.5035900222745096	0.9091389126666665
O	-1.6363178861081573	2.8706785802745096	-0.16761013333333352
O	-2.1081795921081574	0.9602273282745095	-1.7223623733333335
O	1.2878820478918427	-1.4636716797254905	2.9400661166666664
O	-2.6789907321081574	1.9204859802745096	-0.09428743333333345
O	-0.44337826510815737	-1.6106579297254904	7.542323356666666
O	-0.4649804181081574	-0.5976135647254903	8.591804036666666
O	-0.5910514041081574	-2.8575466097254902	7.729362266666666
O	1.1612638778918427	-1.5876162597254904	4.6214095466666665
O	-0.1797657861081574	-2.0127898897254903	5.218707946666667
O	-0.6001516781081574	-1.1673001697254903	6.254509926666666
O	0.6168165478918427	-3.1183533997254904	5.782706566666667
O	0.9376358078918426	-3.9835993397254907	4.761721316666666
O	1.8542431078918424	-2.6008193197254905	6.530441016666666
O	2.9987896578918427	-3.2799410497254904	6.151238866666667
O	2.0520576478918424	-1.1268778797254904	6.403883646666667
O	1.5210612978918427	-0.47083881372549036	5.259403086666666
O	3.1225679578918424	-0.5965357827254905	7.215827926666666
O	2.7062971778918423	-0.4215737177254904	8.523266446666666
O	-11.058537902108156	6.15314359027451	9.128168466666667
O	2.2441789778918424	14.95708630027451	4.822188376666666
O	-1.4135784891081573	14.699134200274509	3.7474213566666665
O	-2.1129071921081573	10.009632080274509	-4.112965203333333
O	-4.599547502108157	9.186763090274509	-5.564139073333333
O	-7.426878882108157	-4.63431516972549	9.532708616666667
O	-10.462363162108158	-2.4749726097254903	10.056514396666667
O	-10.035338082108156	-0.37524544072549043	6.9447173766666666
O	-10.026560312108158	-3.0436312197254902	4.194290246666666
O	-9.081038772108156	-6.72843564972549	3.9069846766666667
O	-5.5246267721081574	-7.70525875972549	3.0193357066666664
O	-4.522994042108158	-10.985402599725491	1.3742769166666664
O	-0.8262396705921574	-11.42020849972549	2.4757552966666667
O	1.8960337078918426	-13.343054499725492	0.7480385416666665
O	7.791931557891843	-12.151061499725492	0.8457335916666665
O	3.6807787478918423	-8.36966723972549	-0.04223215333333341
O	-0.16451233510815733	-8.030863259725491	-0.023065593333333467
O	-3.1969127121081575	-6.91184342972549	-2.0808230033333337
O	-6.397020122108157	-5.15834692972549	-0.9489252833333337
O	-9.353268422108156	-3.2775159197254906	-2.4672058633333336
O	-7.492125432108157	-3.29447102972549	-6.517432143333334
O	-3.9605226221081575	-2.5084323597254903	-5.178543053333334
O	-1.1484396291081573	-5.04957488972549	-5.420377103333333
O	1.5808775578918426	-3.8599241797254904	-3.141227113333333
O	5.297276937891843	-4.48987452972549	-3.8336051333333336
O	8.510837047891844	-3.3503903297254904	-1.9757547033333336
O	11.976385897891843	-2.7615819997254905	-3.446923883333333
O	8.855053237891843	-3.4467404797254906	3.8513333166666666
O	9.666819997891842	-1.1923006197254904	6.779546946666667
O	11.200271597891843	0.4314814062745096	1.8070821466666664
O	8.370452297891843	2.8380152002745094	2.9406560766666665
O	11.041628497891843	5.31685552027451	4.0078870066666665
O	10.592496197891842	2.0328462702745096	-1.9525054633333334
O	7.267803947891842	0.7684764342745096	-3.2537140633333332
O	5.590637967891843	-0.1420405327254904	-6.519667433333334
O	1.7490123778918427	-0.4082332657254904	-6.439629243333334
O	-0.19255181910815733	-1.8720791697254904	-9.411813513333334
O	-3.7507927021081575	-0.3786920437254904	-9.399521813333333
O	2.1966315978918427	8.06031590027451	-2.0539908333333337
O	0.32057521789184273	5.66485881027451	0.06573557666666652
O	-3.3969807921081574	6.32909250027451	0.13204335666666656
O	-3.9858095221081573	5.82490642027451	3.7485312366666665
O	-2.0306257821081575	7.10726092027451	6.765382556666667
O	0.8698312278918426	7.35953268027451	7.083206406666667
O	0.5995192078918427	8.723228070274509	3.4955781066666667
O	4.352376837891843	8.38781037027451	2.9183247666666663
O	7.274747907891843	6.27131916027451	-1.4078104133333333
O	5.260509347891843	4.89502159027451	-4.303584083333334
O	1.3497298678918423	1.7050471402745095	-11.985019313333334
O	-2.3055997921081572	2.13443789027451	-13.017670713333333
O	-15.070625302108157	-1.4921073897254904	10.106705126666666
