24

O	-3.9032945527937795	0.37505782555530365	14.301970178754521
O	-4.319529055692605	0.6957834783838985	12.894913594812532
O	-5.542058644989573	1.9851960166983635	14.04245230912294
O	-4.859634068992175	1.1642322963398195	15.021009874880962
O	-5.492937017414458	-0.4091470137892458	16.721011190852487
O	-4.541254446730322	2.0834228521357017	13.062408292095327
O	-6.955083996324812	1.9465474130808345	16.204306944376174
O	-5.800419443516092	1.5258067497399088	18.303971264365728
O	-4.010003482323413	4.3114546427964	11.278705741173004
O	-5.720364964765528	3.8730676955399126	12.23788419660121
O	-4.599348246682573	1.9381468231415289	16.04895220903495
O	-5.8697272326104315	0.9487543686284509	16.99528707590717
O	-4.782197264797312	2.9739089265097336	11.515471648194147
O	-3.4236676450486585	2.235547751769129	12.00617133871073
O	-2.070964312259681	2.339942934702068	11.578913137570263
O	-2.040650957231752	3.663663614773547	11.20423962422713
O	-1.7180187401802893	2.2649132502377873	13.032587296310096
O	-1.3695761377149371	1.0675892622521361	13.357378495836109
O	-2.5141232067560133	3.076054646502035	14.067229035313938
O	-1.655458449853493	3.972074026437063	13.22781057669162
O	-3.6463252811312787	3.862306490162178	13.655895440208457
O	-3.961539308257536	2.762750594353473	13.205311731598812
O	-4.2484402577775215	4.657404669311679	14.407155983959656
O	-4.334715932417485	5.8361192050586235	13.636356895306456
