76

O	1.0241374345873013	2.9332169412444444	-1.573135919230159
O	1.0850917445873014	1.0208756682444444	0.307172345769841
O	-0.7990519113126986	-0.9974377787555557	-1.7771771542301589
O	0.34195505458730147	0.24266723424444442	-2.120305324230159
O	-0.8530622524126986	1.7363478512444444	-0.26309098223015903
O	0.8735147745873014	-0.18501397875555559	-3.250694994230159
O	0.9398976445873014	-2.2522093687555556	-4.770203834230159
O	0.10100449058730143	-3.0260183487555556	-5.510542184230159
O	-0.8489458264126986	-3.6955959287555555	-4.733668664230159
O	-0.7713777876126986	-3.3024121087555556	-3.4001328542301588
O	-0.5548300334126985	-1.9529620387555555	-3.1439301242301587
O	0.5315356045873013	-1.3788731487555557	-3.742844724230159
O	0.4481308945873014	1.4956854412444445	-0.9384749972301589
O	7.248346084587301	5.677059371244445	-12.584107124230158
O	8.261634614587301	8.844871351244445	-10.85475772423016
O	12.1828807345873	5.638698511244445	-6.977983034230159
O	13.2399623345873	-5.998809298755556	-2.577011224230159
O	13.4340692345873	-2.1951913287555556	-2.877963774230159
O	10.5008523345873	-1.0810018287555556	3.234600125769841
O	7.986314434587302	1.7433117512444445	3.3704673657698407
O	7.417537294587302	4.659574221244444	3.7717159557698414
O	9.4807071345873	5.815853761244444	6.786505505769841
O	0.4432295045873015	6.155879421244444	-11.325982624230159
O	-2.4827701354126988	7.461625421244444	-9.242621964230159
O	-6.284427215412698	7.179208121244445	-9.303354934230159
O	-7.977470435412698	4.330595221244445	-7.457701734230159
O	-11.5671979654127	4.355658241244444	-6.164840454230159
O	-12.4383011654127	0.5679364442444443	-6.017783214230159
O	-14.9620218654127	-1.1545836387555557	-3.839287944230159
O	-14.7338745654127	-6.8016408587555555	-1.760935764230159
O	-10.4757446454127	-3.0720905187555556	-1.6753154542301592
O	-9.5248921254127	0.47290820024444435	-2.890884544230159
O	-8.2724385954127	3.9423732012444446	-1.7749123842301588
O	-5.877825155412698	6.286559601244444	-3.641286434230159
O	-3.5874610054126985	9.232562371244445	-2.930206244230159
O	0.0067098265873014595	10.376299431244444	-3.265467964230159
O	-1.2588802124126985	11.110729231244445	1.683179155769841
O	-4.466552675412698	9.061001201244444	1.4567297957698413
O	-4.176985715412699	5.226125951244445	1.5529265857698409
O	-7.140065145412699	2.956811361244444	2.308162425769841
O	-6.042987865412698	-0.5290874197555556	1.174114145769841
O	-7.374590445412698	-3.641170128755556	3.007473065769841
O	-6.583525705412699	-7.420180528755556	2.624516685769841
O	-6.735832805412699	-10.186914368755556	5.216418515769841
O	-5.989436035412698	-9.802669478755556	-2.710753554230159
O	-2.8368610354126984	-11.664068068755556	0.5939751057698409
O	0.14470433058730137	-9.726189398755556	-0.912156524230159
O	2.2579918445873015	-12.862373968755556	-0.573877364230159
O	1.9085722245873016	-12.942830868755555	3.248103925769841
O	0.24129758258730138	-10.060556568755556	7.481829125769842
O	-1.6432409744126986	-9.944748068755557	4.181873415769841
O	-2.5008937954126984	-6.255168698755556	4.072259075769841
O	-3.5166741354126985	-3.424946198755556	6.354051345769841
O	-3.1303478254126986	0.1318879598444444	4.930189775769841
O	-4.623081205412698	3.1396471612444445	6.829058495769841
O	-2.5635769354126987	6.264325931244445	5.8624625557698415
O	-4.097691185412699	9.738287951244445	6.425089295769841
O	6.255373854587302	-2.3655887387555556	6.182192615769841
O	5.571099424587302	-2.730185468755556	2.4845371057698413
O	3.746023024587301	-1.5481273287555557	-0.586308933730159
O	5.168586924587301	1.8783589012444444	-1.598373907230159
O	4.9629418045873015	1.0659487912444443	-5.280519874230159
O	6.494414164587302	-1.8865716587555557	-7.217480624230159
O	6.374026694587301	-4.7535822387555555	-6.5169857242301585
O	7.194189954587301	-3.3307148387555556	-3.0385846442301587
O	6.2027666145873015	-6.557376738755556	-1.2918424052301591
O	6.629415984587301	-6.5983064387555554	2.4515041757698413
O	3.1254778845873017	-7.499285488755556	3.3451740557698413
O	1.7229102745873015	-4.4427900587555555	5.049248195769841
O	0.8560781145873014	-3.5516279887555555	8.588884125769841
O	0.8011175345873015	0.2829473932444444	8.338820115769842
O	-1.7189079734126986	2.2419234912444446	10.360027175769842
O	-0.8356667064126986	5.9608865012444445	10.17231017576984
O	3.909301044587301	10.236603731244445	-7.227126104230159
O	8.3436197045873	7.488799081244444	-2.646128664230159
O	13.3080707345873	4.503118941244445	3.624143675769841
