15

O	-4.178445114899274	4.2975144312846485	14.702116966646374
O	-5.114847163948136	0.4057451141798398	15.71439107511673
O	-4.870055077578545	2.4854841673448247	17.1929047274167
O	-5.2126512599394665	1.7479091502095565	15.942371808211428
O	-3.1474017470932076	4.453713866457067	13.66474945143362
O	-7.010901937959507	2.1894174783224076	15.8971668573157
O	-2.509858316181908	5.804050992528044	14.025725343745401
O	-4.892743486479904	3.1191640206190483	14.682986922467315
O	-3.5251072900448928	6.853112194487767	13.719358082852176
O	-4.091360680974396	7.355144727768003	15.012663481410131
O	-3.3330114427200495	8.645524748129738	15.32177701142814
O	-1.8782684702933974	8.290366442625274	15.224904394027073
O	-1.244271843162255	8.624075072679105	13.909986982930167
O	-0.9600136482008423	10.089749424767847	13.897507281939387
O	0.35171718297494525	10.471422402077978	14.512271108023342
