71

O	1.827609207854545	1.4324843433636363	-4.855171557636364
O	1.564061757854545	1.5425070673636365	-6.1923802976363636
O	2.449879557854545	1.0993794593636363	-7.155472517636364
O	3.509394347854545	0.3010808533636364	-6.827078337636364
O	3.8986496178545447	0.39364727836363633	-5.5203211576363636
O	3.048869737854545	0.8484308633636364	-4.542753837636364
O	0.8969164978545451	1.6497730683636362	-3.792781897636364
O	0.809697377854545	0.7232748957186363	-2.824231837636364
O	0.03189160885454506	0.9656754923636364	-1.650470965636364
O	-1.1035985871454548	1.7107311323636365	-1.583370110636364
O	-1.218703008145455	2.3832475953636365	-2.7978189776363642
O	-0.24726405814545493	2.3633062353636363	-3.835247997636364
O	-3.5048903221454553	2.8824589253636366	-0.472280412636364
O	-1.8027563221454548	1.6851278763636364	1.0486709823636362
O	-3.086358222145455	0.38052197336363636	-0.13086626063636397
O	-2.309533732145455	1.6274314323636365	-0.337977719636364
O	-9.226481422145454	9.068140345363638	-10.004804777636364
O	-13.751280342145455	3.5538839853636364	-7.817584077636364
O	-8.374292272145455	-7.418356844636365	-10.321936667636365
O	-10.688078842145455	-4.759254714636364	-8.846596537636364
O	-9.567221372145454	-6.652190414636364	-2.354609657636364
O	-9.161798042145454	-3.853658724636363	0.1407392623636361
O	-10.434975842145455	-1.9280751046363633	2.041839902363636
O	-4.159133062145455	11.332054065363637	-5.851265377636364
O	-2.760112032145455	12.050861465363637	-2.3651794676363638
O	0.4910437978545451	13.406530965363636	-0.896917811636364
O	3.327227037854545	11.025121865363637	-0.06678270263636399
O	6.066159917854545	11.645534965363638	2.509685222363636
O	8.966588157854545	9.385961925363636	1.244803742363636
O	11.777104057854546	7.858611155363636	3.204897362363636
O	14.641668857854546	2.7137538753636363	1.9355643023636362
O	9.040730137854545	3.4316306253636366	1.9996140123636361
O	6.343951067854546	6.186332615363636	2.349273102363636
O	3.185488967854545	7.286711655363636	4.2495169923636364
O	0.08069634585454505	9.043423205363636	2.832147122363636
O	-3.554624602145455	9.679762515363636	3.7898579223636357
O	-3.210599342145455	7.111922475363636	7.414773382363636
O	-1.2134259081454548	4.389463955363636	5.564306192363636
O	2.419091937854545	3.6031198753636366	6.421891552363636
O	3.687279897854545	1.5537672053636364	3.483705022363636
O	6.383372967854545	-1.1429551146363637	3.9765346923636358
O	7.985393957854546	-3.733154234636363	1.563266002363636
O	9.460241717854545	-7.135005894636364	2.297953482363636
O	9.452160537854546	-2.2005981746363634	-3.902867837636364
O	8.552738937854546	-2.8873881246363635	-7.552337557636364
O	7.603829067854545	-6.730759774636364	-3.638448307636364
O	4.230090597854545	-5.732418824636364	-5.156659137636364
O	4.320132237854545	-8.871898574636363	-7.286724187636364
O	4.2851610778545455	-11.211346234636363	-4.233965757636364
O	5.319220117854545	-8.403696484636363	-0.553960439636364
O	3.872688287854545	-5.528759464636364	1.4645012323636362
O	2.800172607854545	-4.638482024636364	4.967852002363636
O	0.5701485418545451	-1.5411033246363637	5.399990342363636
O	-0.19630092414545494	-0.11510060463636362	8.876825732363637
O	-3.567422342145455	1.7480689053636365	8.689050032363635
O	-4.4052845821454545	4.320442145363637	11.413536972363636
O	-4.562922412145455	-5.416810314636364	-1.595912456636364
O	-3.443866312145455	-1.9590510046363634	-2.615228217636364
O	-6.384291292145455	0.47071651136363635	-2.389839567636364
O	-5.527400992145455	2.2998253653636365	-5.542993827636364
O	-4.854450352145455	0.9357077643636363	-9.059405287636364
O	-3.140186442145455	-1.3533420546363635	-9.802891767636364
O	-4.959522442145454	-2.9390641346363635	-6.816964627636364
O	-2.464924642145455	-5.804889554636364	-6.573844117636364
O	-3.160099912145455	-8.378992094636363	-3.904267297636364
O	0.10644953485454506	-8.182395694636362	-2.111511417636364
O	-0.700560549145455	-6.624137124636364	1.2322401123636362
O	-0.8834547581454549	-7.870366624636364	4.748797292363636
O	-3.049664862145455	-5.133603994636364	6.368388352363636
O	-2.354211572145455	-4.102562884636364	9.941844472363636
O	-5.212242902145455	-1.8519312946363637	11.140103072363637
