17

O	-3.3306030195691467	6.407162937376686	14.609921917508396
O	-3.5927547553019945	7.6825746694636505	15.079367525389763
O	-2.717200200225686	8.801992376957996	14.936767697841677
O	-1.399453799845178	8.519065318781298	14.737281698245692
O	-1.2977915592755416	7.5328827350803795	13.795834635882933
O	-2.163878735133083	6.419837917029789	13.832855551853953
O	-4.059524300650402	5.170182081098836	14.909633563556788
O	-3.4919142086624393	3.9108575075764502	14.810973136396939
O	-4.0665577081057425	2.778036510485319	15.377122513258968
O	-5.287119395439086	2.7419067394943637	15.992008029382609
O	-6.007879675604588	3.875790577744732	15.62646985450841
O	-5.410362124973611	5.033331659884972	15.117717279294556
O	-2.4106143578242154	5.792036410639627	12.522987934569427
O	-5.341248063958442	-0.17461323930824602	16.065863950337967
O	-5.636830484796878	1.1162693627794997	18.22777508005663
O	-7.367949851458235	1.204357631488623	16.850133753122115
O	-5.896982962065018	1.319076923605615	16.783024039466465
