70

O	0.2730739092280705	2.7536506618000005	-0.5470475156859647
O	1.2520098692280703	0.6439472768000003	0.5227732204140354
O	-1.0624044117719296	-1.2975196081999996	-1.9228993965859646
O	-0.08607172577192956	0.13099811380000037	-1.8591620465859646
O	-0.8848042037719295	0.7351425748000004	0.6612504334140354
O	0.26629767922807046	0.22445564180000038	-3.124831686585965
O	0.18429388922807055	-0.9352595581999996	-5.431012266585964
O	-0.5808998727719294	-1.7037225681999995	-6.237989646585964
O	-1.2585044857719294	-2.7572518982	-5.648960026585964
O	-1.0402995253719296	-2.8945182581999997	-4.304208126585965
O	-0.8595104767719295	-1.7107864281999996	-3.5880174965859646
O	-0.06711352777192947	-0.7147545481999997	-4.052096386585965
O	0.10812418922807043	1.0574424818000003	-0.3762335414859646
O	4.149154569228071	9.2635746118	-10.808596616585964
O	4.9731147492280705	12.112978731800002	-8.513903266585965
O	10.018826309228071	8.973378921800002	-6.178326106585964
O	13.649007109228071	-2.9233011481999998	-5.091426906585965
O	13.20382330922807	0.8131108518000003	-4.429242786585965
O	8.478553299228071	2.1314541718000006	3.344750963414035
O	7.536904829228071	4.7138705318000005	4.542504333414036
O	-6.473125080771929	5.2024863618	-10.743404816585965
O	-4.408290860771929	8.218213371800001	-11.599325416585964
O	-2.2868091907719297	8.1379955518	-8.479092026585965
O	-4.944441900771929	8.373106441800001	-5.728461146585964
O	-8.59586182077193	7.330039531800001	-5.301598186585965
O	-9.428273150771929	3.8567062718000003	-4.0062417965859645
O	-12.650931890771929	2.8808523718000005	-2.2184466765859647
O	-12.872075790771929	-0.9427391681999997	-2.902243236585965
O	-9.608197600771929	-4.9869193882	0.0942167654140354
O	-9.43141863077193	-1.1489156981999997	-0.37902221318596463
O	-8.53616258077193	2.1694247618	1.3643942734140355
O	-6.923313350771929	5.287213141800001	-0.18101755858596463
O	-5.086829430771929	8.4407200918	0.9309454334140355
O	-1.8401933067719294	10.3277705418	0.36784420941403534
O	-2.235478080771929	9.6515506918	5.471412203414036
O	-5.03077375077193	7.070102531800001	5.179443083414036
O	-4.0102892707719295	3.4417451718000005	4.156180483414036
O	-6.473070320771929	0.5758448178000004	4.823371273414035
O	-5.134492860771929	-2.3194996081999997	2.759409053414035
O	-5.606604530771929	-5.9559231081999995	3.958418583414035
O	-4.32010183077193	-9.3324214282	2.5299073034140354
O	-3.5455126107719295	-12.5773946682	4.368829683414035
O	-4.43939218077193	-10.4089616682	-3.2166952465859646
O	-0.42166082077192946	-12.241464868200001	-1.0136669985859645
O	1.8648966592280705	-9.4607416682	-2.4375472165859646
O	4.469544319228071	-12.0996501682	-3.229590166585965
O	4.893418389228071	-13.0970484682	0.46479318741403536
O	1.1654687692280705	-11.145319868199998	2.667477213414035
O	-0.26358109677192954	-7.755785608199999	3.595119603414035
O	-1.2535946947719294	-5.7354379082	6.633381863414035
O	-1.7014678267719296	-1.9476510781999998	6.071300333414036
O	-3.232805870771929	0.24803415220000036	8.817052443414036
O	-1.9060704547719296	3.8334099618	8.376901153414035
O	6.701364669228071	-2.4393367081999995	1.7216784134140355
O	4.127798939228071	-0.9587959981999996	-0.6060968265859646
O	4.76587058922807	2.8160179118000004	-0.8995938155859646
O	4.1265897892280705	2.8828327418	-4.619611336585964
O	5.561349979228071	0.7127363628000003	-7.4409802765859645
O	5.994357539228071	-2.2023909081999995	-7.477498356585964
O	7.28589031922807	-1.4527920281999995	-3.9275229965859646
O	7.16606399922807	-5.1294908082	-2.941785446585965
O	8.32366940922807	-5.9210869882	0.5586042734140355
O	5.249962129228071	-7.678283298199999	1.7275864534140355
O	3.7331420692280703	-5.3950743282	4.324506933414035
O	3.4385968292280706	-5.4650024582	8.063226653414036
O	2.7253112892280704	-1.7398601581999995	8.731360823414036
O	0.38107977922807046	-0.8212059881999996	11.563856283414035
O	0.6168169992280705	2.9439120218000006	12.178830883414035
O	1.2315750992280703	11.830952031799999	-4.029778386585964
O	6.828669049228071	9.0424605318	-0.9865883335859646
