26

O	-4.7819047165584525	-0.13808522159368408	15.905360579670305
O	-5.187143073180676	2.114778412736357	17.077762403672338
O	-6.859811766633962	1.1974749559573437	16.14011506220629
O	-5.41722054224029	1.4901192404972976	15.747049083523867
O	-4.832928842708362	2.490284233825208	14.494492536307165
O	-5.123581102053517	2.7670373505414734	13.065368266574865
O	-4.288064557206333	2.741659668388678	11.969837155749957
O	-5.685882045416396	4.149442475325156	12.623236299924148
O	-5.730596979703307	4.520390582054686	11.33434277115489
O	-4.641932896768499	4.7472857704267035	13.374156106080328
O	-3.4073702008316173	4.460135855970921	12.899487729291737
O	-5.006502673173114	4.683064084707048	14.771087694969902
O	-4.245794835678655	3.602785046317277	15.036755721723058
O	-4.664746584379414	5.995450581798601	15.31587195733028
O	-3.2638537716096994	6.114407331071427	15.245125440001377
O	-3.8265376894779664	5.443193748202832	12.070229213954399
O	-3.406889516633148	5.293405850295562	10.729230415453477
O	-2.311722875048554	4.538511246951513	10.569806249393057
O	-3.897490153270405	6.349640808023752	9.89718853972088
O	-3.5313287764370513	6.451814804633124	8.59011200717812
O	-4.383905661147693	7.642956768910589	10.449442967002343
O	-5.648521321378185	7.955010172898728	9.95926950254689
O	-4.344992088053869	7.732250976246224	11.925902175634754
O	-4.529333990436973	6.521731624591045	12.464963751271435
O	-3.2406575675681277	8.578549177115612	12.483905723200756
O	-2.0405521985112998	8.098713743082264	11.992054579133946
