72

O	-5.791994669720408	-2.383594317	0.6913133315020414
O	-6.556599939720408	-1.4298301170000003	0.5542188345020413
O	-7.6337283997204075	-1.0887878470000003	1.3122554035020413
O	-6.080400149720408	-0.4075437270000002	-0.45376862449795863
O	-4.784421889720408	-0.050789527000000056	-0.010841640497958632
O	-5.030936199720408	0.06644948299999998	1.4036198035020413
O	-6.054002949720408	1.11837040905	1.4730747035020413
O	-6.480465009720408	1.702843466	2.6258005835020413
O	-6.740235539720409	3.0290585529999996	2.577473383502041
O	-5.754032659720409	3.679037293	1.8362620435020414
O	-4.556290319720408	2.876059703	2.157672283502041
O	-4.509262269720408	2.906160023	3.5617836935020417
O	-3.5375961297204084	2.020339934	3.9929093835020417
O	-2.9385835927204083	1.4128845069999998	3.0724194535020413
O	-2.8382977517204084	0.9712520699999999	1.7382180635020414
O	-1.9711963257204081	0.0013534929999998724	0.9152993505020414
O	-2.027031263720408	-1.3592756070000003	0.4894687635020414
O	-2.897152215720408	-2.2535506770000002	0.8525711385020414
O	-2.084418547720408	-1.7404877170000002	-0.8827386864979587
O	-3.5618748197204084	2.170085683	1.3639414735020414
O	-6.624966169720409	1.0020702	3.7373558735020413
O	-5.880473529720408	-0.14456537700000016	3.7022127135020417
O	-5.276148449720408	-0.5856541770000001	2.5545927935020414
O	-6.825854529720408	-10.646745157	8.726114323502042
O	-6.047461069720408	-12.781329757	5.778729023502041
O	-1.1604138397204082	-9.270618357	12.275418823502042
O	-1.1610740097204082	-3.629838647	13.83139402350204
O	3.7398089102795917	-1.6364027670000003	13.344938923502042
O	4.001080950279592	-5.210254247	11.994934323502042
O	8.09792525027959	-5.279500207	3.8712106335020415
O	-11.258924909720408	-7.621958677	-3.098859106497959
O	-10.766079319720408	-10.881578557	-1.2598004864979586
O	-7.045810699720407	-10.579742956999999	-0.8041350064979587
O	-5.976212669720408	-9.991958756999999	-4.4511312064979585
O	-7.444553089720408	-8.310823797	-7.6127516464979585
O	-6.827971209720408	-4.627152167	-8.403170016497958
O	-6.789723829720408	-2.9260793570000003	-11.760256276497959
O	-7.385923709720409	0.8378952609999999	-11.065004176497958
O	-3.031057243720408	4.564517813	-9.029696066497959
O	-3.573285319720408	0.6914235779999999	-9.200847706497958
O	-1.7025836857204082	-2.627389577	-9.755810596497959
O	-2.341103860720408	-6.037304997	-8.165999596497958
O	2.612253970279592	-4.424052567	-7.066347946497959
O	1.3235713002795917	1.334637422	-6.860996236497958
O	2.302501010279592	5.010350562999999	-7.180347376497958
O	1.8246211702795923	8.044553773	-4.817719816497958
O	4.013954190279591	11.119657843	-4.460663636497959
O	-3.5898377797204084	12.944787343	-2.7962640064979585
O	-3.1228975117204083	9.227036023	-2.0541369964979586
O	-4.546559299720409	9.533161383	1.5639689635020413
O	-1.9898146357204083	12.102762943	2.5398841335020412
O	0.8036738602795919	10.240889533	0.7665124865020414
O	0.480523540279592	7.116191972999999	3.021835113502042
O	1.1621900502795919	9.178094143000001	6.0911796135020415
O	4.6525535802795925	10.115106213	4.793496083502042
O	4.556043680279592	8.816401893	0.1908598919020414
O	4.540355480279592	5.810371023	-2.0616215864979583
O	6.7207058302795915	4.173371123	-4.708158746497959
O	5.7874541902795915	0.4979128479999999	-5.422674546497959
O	7.312158110279592	-5.090237487	-7.509547636497959
O	6.107751590279591	-0.5776344170000001	3.997667583502041
O	2.779235240279592	-1.7325788170000003	2.7088970035020417
O	2.677505890279592	-5.5650475969999995	2.732537713502041
O	-0.7313766797204082	-5.939049017	4.033300813502041
O	-2.334274650720408	-4.236682797	7.147269023502042
O	-2.154148293420408	-1.354120817	8.10486881350204
O	1.4420159702795918	-1.974584847	7.077762133502041
O	2.2908086802795915	1.7561413089999998	7.118569063502042
O	5.909585330279592	2.512532363	6.502818903502042
O	5.479229260279592	4.7560629930000005	3.577736573502041
O	7.010690960279591	2.917604113	0.6610389805020414
O	10.178743850279591	-0.3487971270000001	-2.9070025464979583
