79

O	0.49323008594444495	-1.142585450814815	-4.483730778092593
O	-0.8915879440555551	-0.6858074808148149	-2.7806863280925924
O	-0.1584274320555551	-0.330889710814815	-5.2693577880925915
O	-1.700212517055555	-0.11326269581481496	-3.696389198092592
O	0.27359407594444485	-1.6248752008148148	-3.145039218092592
O	3.228737665944445	-3.9631328308148146	-2.708917988092592
O	-1.1729430909555552	0.38939026518518505	-4.863308268092592
O	3.056261425944445	-1.635352570814815	-1.6014606010925923
O	2.233414635944445	-3.7273360408148153	-0.44783964009259225
O	-3.173155764055555	2.002634119185185	-4.448217978092592
O	-1.2698713210555552	2.348688179185185	-6.120999828092593
O	0.9577746359444448	-2.417081630814815	-2.380000098092592
O	2.1058774859444447	-3.216770930814815	-1.9920364710925922
O	-1.9139387900555551	1.897151199185185	-4.980788508092592
O	-1.1699701923555552	2.790970449185185	-3.773505798092592
O	0.14342430594444489	2.752606119185185	-4.223930288092593
O	0.529484155944445	1.705497659185185	-5.229290028092592
O	1.028193795944445	1.782335209185185	-3.4865036680925923
O	2.087596795944445	0.961703559185185	-3.683677528092592
O	0.7150432059444449	1.545316426185185	-2.109467622092592
O	1.0746331659444448	0.697148997565185	-1.1920021314925922
O	-0.3856527180555551	2.453120939185185	-1.9633349030925922
O	-1.2703380890555551	1.815310659185185	-2.7541256280925923
O	-0.9351428170555551	3.783114839185185	-1.9267185280925923
O	-0.7568884170555551	4.8042015391851844	-2.819495028092592
O	5.314789815944445	-7.7081390708148145	-14.276249128092592
O	-4.658914414055555	-13.893384020814814	-6.495745158092593
O	0.285726785944445	-11.793000720814815	0.9531504219074076
O	3.2168398659444453	-12.217928920814815	1.3812143519074076
O	6.4121431459444445	3.392243919185185	-11.938852328092592
O	7.993105725944445	0.571340982185185	-13.870270228092593
O	7.742184365944445	-1.999989180814815	-11.105890228092592
O	9.725481725944444	-0.305805180814815	-8.280187358092592
O	10.441023225944445	3.299387559185185	-7.204776038092593
O	8.151938675944447	5.165494319185186	-4.831633438092592
O	9.042598625944446	8.036496769185185	-2.546300858092592
O	5.754724375944445	9.967786239185186	-1.967742999092592
O	4.574350545944445	12.102570179185186	0.8175806519074078
O	-1.002328046055555	12.965951679185185	2.945555821907408
O	-3.497046154055555	15.936495179185185	2.7271875519074076
O	1.418265925944445	8.027294949185185	1.8023284319074078
O	4.631697835944445	6.455797139185185	0.1943062519074077
O	7.530085215944445	3.905832689185185	0.7679199619074077
O	9.198517225944446	1.526563842185185	-1.824687118092592
O	10.914096125944447	-2.121113520814815	2.513140391907408
O	7.062361555944444	-1.239714790814815	2.463406401907408
O	5.895975835944445	1.937464829185185	4.314289761907407
O	2.330401445944445	2.3715704391851853	3.091496511907408
O	-0.45681512705555505	3.913263119185185	5.161178721907408
O	-4.286496024055555	4.430797759185185	4.690852411907407
O	-7.050857694055555	4.6252070391851845	7.254327121907407
O	-8.200971144055554	8.250407339185186	7.650617481907407
O	-8.782546554055555	9.006264639185185	0.5534344119074077
O	-6.469040244055555	6.228767379185186	-0.4837954890925922
O	-8.757330514055555	5.114628559185185	-3.3144885680925924
O	-11.572914774055555	4.447726849185186	-0.8882140280925922
O	-9.278667464055555	2.868834379185185	1.712917301907408
O	-8.138220304055555	0.053373431185185005	-0.6781747950925923
O	-11.726962574055555	-1.045052280814815	-0.9768930910925921
O	-12.054059174055556	-1.8145656808148152	2.798114221907408
O	-8.254101004055556	0.229185173185185	4.7627559419074075
O	-4.449621224055555	-0.03839577881481493	4.756462691907409
O	-1.599760245055555	-0.589193950814815	7.1821582119074066
O	1.7702199659444449	-1.5935464308148148	5.588542091907408
O	4.964179555944445	-1.7095098608148152	7.793673611907407
O	7.3889299659444445	-4.251398500814815	6.171532651907407
O	-3.332148064055555	-8.046660230814815	0.9222788319074078
O	-1.4134227090555551	-6.0424913608148145	-1.4610134290925922
O	1.5291688959444447	-7.869786490814814	-3.0598678480925923
O	1.021598865944445	-6.626863280814815	-6.590791278092592
O	-2.161884554055555	-6.501680890814814	-8.731803428092592
O	-4.897540414055555	-5.662003380814815	-7.927838258092592
O	-3.982139524055555	-7.821178100814814	-4.845451338092593
O	-6.929469624055555	-6.460839100814814	-2.8012123680925924
O	-7.267241724055555	-4.623731650814815	2.548232541907408
O	-4.056858104055555	-4.724914100814814	4.532330051907408
O	0.577207765944445	-6.186060860814814	7.770424741907407
O	3.0409470759444446	-5.037651300814815	10.415758971907408
O	6.3487972559444446	-6.906147740814815	9.864710271907407
