12

O	-4.9856164760318435	0.13954415700532605	13.471598788206615
O	-5.3423262888576915	3.3312569963523275	11.027402039353806
O	-5.424274401609976	4.160533906733807	12.094809071866333
O	-4.676419496147606	2.1501830558321675	11.042695028290696
O	-5.2255634390476144	3.5470595511841236	13.2953277917182
O	-4.074234602728447	1.8438113422599707	12.23323162002038
O	-4.0108087661517136	2.018531117296638	14.640010340606707
O	-5.65573713505012	0.7036278612936542	15.823352424940426
O	-4.1537233910149105	2.6682071475153384	13.322487546621097
O	-5.0960340765203975	1.0297915074551987	14.586294422378145
O	-6.690841942347034	1.8104777117161446	16.445992814017238
O	-6.224492912358957	-0.9755394929336711	16.235614609210568
