25

O	-5.571940122911027	0.8336584903955035	18.326843111127154
O	-6.01740622947889	0.6763632467797294	16.937583285310847
O	-7.465584822581393	0.7869454433015477	17.129197770060035
O	-6.237617356347805	3.437144180844538	15.96131635589948
O	-5.354454683017739	1.9580525473100303	15.990793916757948
O	-6.872305734774275	5.795500695255485	13.34097325584639
O	-4.41924195740202	2.1082659771374637	15.02407700238835
O	-5.597935925829419	6.798970022860971	15.073160091011758
O	-4.217772888287262	3.3461275837702464	14.49118771371004
O	-5.261682631137498	4.218689355887651	14.85555622640518
O	-5.613435413243551	5.715758029985206	14.11875172940039
O	-4.3181649594575315	5.849451947087882	13.064867517941614
O	-3.9453764016041686	4.6103032790978595	12.497010846933634
O	-3.1899278518924823	4.073370759819694	13.741995254200523
O	-2.1356046823901718	3.5591507739734127	12.993657345168991
O	-1.4318457017473118	4.696184260582403	12.401290772748304
O	-3.3285180399062053	6.777212610690203	13.27080522096178
O	-3.129180078588024	7.60285514764028	12.20304931320953
O	-1.8237729001564826	7.970988218589614	12.108423529450013
O	-1.0884883083876504	8.194780010830446	13.225965042154805
O	-1.8244550922380398	8.120687385283661	14.406987599408078
O	-5.457702847056424	-0.7594826343815404	16.27259253498689
O	-2.68800471106594	7.03298788965109	14.426440186207593
O	-1.365484080503574	8.864667427310593	15.447001227205302
O	-0.6937551375340538	10.058070706473526	15.16805176513419
