12

O	-4.237371134780054	3.1949755436725145	14.773369141596687
O	-3.4303746733803218	3.283597924424171	13.62582317678886
O	-4.287165005602671	3.201701553686707	12.561110699845145
O	-4.611020961431462	1.908992137659877	15.252729006915455
O	-4.9928541878155155	4.438461114483722	14.997391113003767
O	-4.831430776798834	5.463935463619505	13.9784448410523
O	-3.8413988433614668	5.589762461720367	13.132558144223722
O	-2.8073404377216615	4.5980910490165	13.447442905352089
O	-3.328526589885965	6.989660462552536	12.923227808643652
O	-4.4071589207804	7.727273341846239	12.583338408239637
O	-2.336468224029116	6.879002026889567	12.012760055784572
O	-2.7783666862647936	7.529075509974104	14.043255980683348
