74

O	3.208178558524194	-2.3391464003516127	2.9695210963709675
O	1.893345748524194	-2.5077844903516127	2.611998916370968
O	1.278990698524194	-1.4670538303516127	1.9693260063709677
O	1.813957348524194	-0.18188796035161267	2.0416116963709676
O	2.5964095685241935	-0.14661891335161267	3.1322943263709675
O	3.3888274585241938	-1.1454648603516127	3.6935815163709678
O	1.2308869685241939	0.9274896366483873	0.8760390543709676
O	-0.2860046434758062	0.8349578786483873	0.7172627583709676
O	1.5325010885241939	0.5135673596483873	-0.5582073836290323
O	1.5759457185241936	2.5875401196483874	0.9594017043709676
O	3.6573656085241932	-1.6735852103516127	4.941545666370968
O	1.5063956385241937	-3.716929310351613	3.1446223463709675
O	11.040119168524194	9.354886629648387	5.816893846370967
O	9.973925968524194	12.200627259648387	3.636268556370968
O	12.151158168524194	9.195587939648387	-1.5453931036290323
O	13.485111868524193	1.1989731126483874	-5.237202203629033
O	7.673600328524193	0.2984199474483873	-8.805644613629031
O	4.7064670585241934	2.357741919648387	-7.667204183629033
O	3.1520151085241936	4.9109922596483875	-7.857836473629033
O	4.742967898524194	8.045048469648387	8.502884446370969
O	0.9166265485241938	8.098513729648387	8.308564816370968
O	-2.000424721475806	6.894572959648388	10.470245016370969
O	-3.366620361475806	3.370651499648387	9.99395060637097
O	-6.916074001475806	2.281614159648387	10.87116541637097
O	-6.534092351475806	-1.5479808803516129	11.416729616370969
O	-9.151345331475806	-4.213241610351612	11.056025916370968
O	-8.316544851475806	-9.956434540351614	9.463756206370968
O	-8.851999451475807	-5.926948800351612	4.316072736370968
O	-6.0685319814758065	-5.454135150351612	6.886079916370968
O	-5.761292811475807	-1.6142418903516127	7.215367416370968
O	-6.372474901475806	1.7430472596483872	5.424019026370968
O	-4.257144051475806	4.9366962896483875	5.566526846370968
O	-3.694987331475806	8.119503259648388	3.5591665763709677
O	-0.9925033074758062	10.118525179648387	1.8001873563709676
O	0.9247902985241938	9.334294269648387	-5.037236203629032
O	-0.7398711829758061	8.260754599648386	-8.300833753629032
O	-4.753282611475806	9.464398509648387	-1.6702531036290322
O	-6.5252795714758065	6.7833675396483875	0.3803315063709677
O	-5.058759071475806	3.198772409648387	0.3414724243709677
O	-7.202714381475807	0.24481297464838733	1.4371444463709677
O	-4.777528631475806	-2.6109737203516126	1.9441365163709676
O	-5.799896121475807	-6.251635460351612	1.2959068663709676
O	-3.835818841475806	-9.601976150351613	1.3430450263709677
O	-4.410832781475806	-12.792055040351613	-0.6150551636290323
O	0.04420883552419386	-10.739081940351614	5.601059856370967
O	4.118696988524194	-9.496234980351613	0.7801250623709677
O	6.638766478524194	-12.008484540351613	-0.46722151662903233
O	4.451214208524194	-12.975834340351613	-3.4689799136290325
O	0.0771846575241939	-11.512594840351614	-6.287184543629032
O	0.17367948652419385	-11.181307540351613	-2.514659153629032
O	-1.6350922164758062	-7.879562840351613	-2.1897204736290323
O	-4.393722191475806	-5.810408110351612	-3.577747373629032
O	-4.491329421475806	-2.065210900351613	-2.8121533936290324
O	-7.594986661475806	0.04291169164838732	-3.7230152036290325
O	-6.403686811475806	3.6784348696483873	-4.187205223629032
O	-9.013521981475806	6.494764269648388	-3.984669483629032
O	4.627110698524193	-2.284584410351613	-5.406117183629032
O	4.304187348524193	-0.9046953103516125	-1.9092640136290324
O	4.924939828524193	2.878952109648387	-1.9869752136290324
O	6.923130108524194	2.8983674396483874	1.1762755963709677
O	9.960153268524193	0.7934316336483873	2.1812726563709677
O	10.362605368524193	-2.1038185703516126	1.8268912263709676
O	8.911625858524193	-1.2912195903516128	-1.6579887536290323
O	8.245753678524194	-4.972172660351612	-2.420132543629032
O	6.687071148524193	-5.707040500351613	-5.774162833629032
O	3.698948688524194	-7.564421950351612	-4.521369723629032
O	0.7585626985241938	-5.342066320351612	-5.361742153629033
O	-2.018683491475806	-5.404091730351612	-7.865090103629032
O	-3.1238156414758063	-1.7221636903516127	-7.827684713629032
O	-6.790913741475807	-0.8800884003516126	-8.225165093629032
O	-7.128924591475807	2.8959407396483874	-8.720658973629032
O	4.197365598524193	11.740498759648387	2.941018966370968
O	3.8257762385241936	10.822802359648387	-0.7792496496290323
O	6.284931798524194	9.156800359648386	-3.1477684336290324
