22

O	-1.4172627634904282	7.442290653562119	14.336820778137827
O	-0.45867990530881375	8.51428686026581	14.172329759659547
O	-0.12966125453720778	8.969444838715974	12.751675923587705
O	-1.5747656730222124	9.01391503740911	12.313202696563923
O	-2.110096522886791	7.8282339174383395	12.279243769677189
O	-1.6125362211777885	6.819197866738066	13.196734097643823
O	-0.3428911383040587	9.504195853038853	14.910068532586894
O	-2.268874388695715	10.200934124048526	12.917026186384458
O	-1.9677860126024251	5.065341061776918	13.00467517990097
O	-3.6386601630400266	5.099764927101207	12.472201115554885
O	-4.3625522770475875	5.683417167351899	13.652223465974924
O	-3.9930862051360902	6.87096918204179	13.903228907340765
O	-4.48376171999392	4.670991544818436	14.71222398789883
O	-3.6724771299066443	3.5510825798492935	14.820122357466985
O	-4.093452084772544	2.3824723066030153	15.454937436878456
O	-5.3358363632136925	2.3002341561340605	16.011145656327173
O	-6.175905396291913	3.2733495104285306	15.564904014903775
O	-5.711253452703462	4.526682407826693	15.273085306953453
O	-6.00819224055623	0.9380188745895328	16.835068362248823
O	-7.489311469028479	0.9975479787224781	16.89549090658497
O	-5.689250670249094	0.8645023487551331	18.281645762432106
O	-5.487093259234733	-0.5099400353486159	16.10669287539502
