14

O	-5.128867844223089	2.1832708882557563	15.8234839045008
O	-5.429820496434757	-0.5469861378867589	16.305785050138528
O	-5.714711793517864	1.373161721082899	18.163426752019582
O	-5.958459574649336	0.9948130694612116	16.75484478452034
O	-4.3923933048278885	4.327960013873683	14.605867532445018
O	-3.649544600081825	3.0829090235001977	14.374782012826145
O	-7.4162667141370555	1.262370606731699	16.636425697494044
O	-5.8058126496543245	3.7828174906895944	15.49019833819552
O	-4.803499099965903	6.1861678291724065	13.081571315410748
O	-3.9219993133162188	2.293803793265241	15.456929558685585
O	-5.610445374940098	6.786039902133513	13.847668025832679
O	-4.962552824832823	6.601709895782266	11.676437396986913
O	-4.766241772886185	4.772564828983155	13.309880289227218
O	-2.4952710703721985	3.230696500750116	13.508780711595284
