74

O	-0.07307953825454505	5.619094383972728	-3.424651877636363
O	-1.193876736454545	2.6510068739727277	-3.7319262776363633
O	1.3908906017454548	1.9869865809727276	-3.410032237636363
O	0.4521712117454548	2.9607748139727272	-3.981163397636363
O	0.7490729817454549	6.761123943972727	-3.267482057636363
O	-2.842614868254545	2.2466592079727277	-2.0891607076363634
O	0.9099539717454548	3.228734643972728	-5.353776127636364
O	-0.8949481952545452	1.0148635109727275	-1.572120657636363
O	1.7872462917454548	6.676314073972728	-2.3415912276363633
O	-3.037688618254545	1.7420790099727275	-0.9016346376363633
O	-1.8024454062545452	-1.7837777660272724	0.13393016736363672
O	-2.774042628254545	-0.7041820760272723	0.3227108773636368
O	1.6184967017454548	5.6034295539727275	-1.4725554076363632
O	-4.4116374082545455	-1.0971257860272723	0.09439497936363672
O	-2.531233118254545	-0.4155503260272724	1.744906452363637
O	0.9549131117454548	4.413009373972727	-1.796143717636363
O	0.5389990517454548	4.449642133972727	-3.1213987976363633
O	-1.5540792732545452	2.3966071939727276	-2.390515257636363
O	-2.297648938254545	0.6481315729727275	-0.6303241636363632
O	-14.083484558254545	6.392245433972727	-3.603703957636363
O	-14.734375858254545	5.262295533972727	3.746249932363637
O	-5.293649608254545	10.916592163972728	9.585832872363637
O	-8.251790798254545	8.618361963972728	8.850374472363637
O	-5.537090048254545	-0.11962545602727248	8.845800782363636
O	-7.1556164882545445	-2.5723973960272724	8.245973622363637
O	-6.547305518254545	3.5300913739727275	-11.630301427636363
O	-10.202960048254544	3.8273656939727276	-10.889886527636364
O	-10.038015248254545	2.2745133219727274	-7.460931547636363
O	-8.488474628254545	-1.1398928560272723	-8.225051677636364
O	-6.120150558254545	-2.6110036160272725	-10.828237927636364
O	-2.390297148254545	-2.6047177360272724	-10.245279757636364
O	0.22401708174545476	-4.890628726027272	-11.734257627636364
O	3.485943571745455	-2.7815925360272726	-11.576753627636364
O	7.028133861745456	-3.9919198860272727	-11.468083327636364
O	11.723929241745456	-1.2671552560272725	-8.883101407636364
O	6.623875561745455	-1.9875625360272724	-6.538679937636363
O	3.0437899217454554	-3.229230536027272	-7.337026907636363
O	0.2751409017454549	-5.722867026027272	-6.292557317636364
O	-3.5187856582545454	-5.148142696027273	-6.357762727636364
O	-6.695365708254545	-6.592291576027272	-4.832499487636364
O	-4.333241718254545	-9.425021436027272	-2.3001609976363633
O	-1.738776511254545	-6.696964016027271	-1.3492658956363632
O	1.9030499617454548	-6.984442146027272	-2.477761017636363
O	3.3751447817454547	-3.5435240860272725	-1.9036507276363634
O	7.072280071745455	-3.061170006027272	-1.0131677116363633
O	9.154843441745456	0.07303012397272757	-0.08504874563636328
O	12.253987941745455	0.2596235039727275	2.118602582363637
O	8.605438811745454	5.0895179239727275	-2.9416481676363633
O	7.702155521745455	8.742502953972728	-2.383683587636363
O	9.379962541745455	5.720784513972728	1.916039422363637
O	5.7433028417454555	6.675951593972728	2.6448086523636367
O	6.891442421745454	9.459324773972728	4.9345902823636365
O	8.563183111745454	7.000351323972728	7.336871092363636
O	8.775687601745455	2.9262653439727275	4.916847592363636
O	6.521781781745455	0.21229410397272752	3.531400792363637
O	5.971544381745455	-3.5061429860272724	3.9633479123636373
O	2.6483777017454546	-4.888533586027272	2.6168554123636367
O	2.064372151745455	-8.686337336027272	2.4039098523636366
O	-1.7400579092545452	-9.307067436027271	2.594212882363637
O	-3.123163578254545	-12.661864036027271	1.3393378023636369
O	-1.262394470254545	2.3563292439727275	7.316841262363637
O	-2.2113782782545455	2.547106803972728	3.662495672363637
O	-5.885594758254545	1.4721947074727275	3.3531682023636367
O	-6.711027658254545	4.116588693972727	0.8437982523636368
O	-6.104770348254545	7.9121929739727275	0.9499726123636368
O	-3.7248868482545454	9.378587223972728	1.8927928223636368
O	-3.8671721582545455	6.713716223972728	4.627761952363636
O	-0.3159745232545451	7.4230611639727275	5.788033082363636
O	0.8856607517454547	5.417269163972728	8.740614422363636
O	3.9148075417454553	3.9238538939727277	7.165462332363637
O	3.166756251745455	0.26040992397272755	6.8176363223636365
O	1.551900651745455	-5.273155586027272	7.682889992363636
O	2.3935621317454547	-8.908970436027271	7.0492683723636365
O	-0.8682719032545452	-10.900200736027273	6.876710782363636
