70

O	-4.783712306433333	-0.04889909445000029	-0.2753119405766665
O	-5.006346506433333	1.2598204765499996	-0.5867799785766664
O	-3.8638986864333336	2.0912462855499996	-0.5702305715766665
O	-2.5628365414333336	1.6380905665499996	-0.7745043485766665
O	-2.6098420294333335	0.2764316725499997	-1.0951478435766664
O	-3.7820337864333333	-0.5022849244500003	-1.0793771935766665
O	-1.0401357144333336	2.2933477455499998	-0.3763482815766665
O	-0.15876544643333346	2.2369815355499996	-1.5656741635766664
O	-0.35645163643333344	1.3156406165499996	0.5164843664233335
O	-1.0094013864333335	3.82499778555	0.3221915724233335
O	-8.089609716433333	14.10100800555	0.3461179454233335
O	-5.061873046433334	15.94996370555	1.5427643564233335
O	3.7927225535666667	6.5841729855499995	-10.109471333576668
O	4.6977945135666666	6.28106869555	-6.447039883576666
O	6.190320473566667	7.36976572555	-4.089173743576667
O	-7.755571996433334	8.937495485549999	4.998653466423334
O	-5.781449736433333	6.7096323155499995	7.413173016423333
O	-6.544901526433334	3.7591331755499997	9.715573996423332
O	-6.3258208364333335	0.20853081054999967	8.379019716423333
O	-5.681413446433334	-2.9019051644500005	10.493417866423332
O	-7.238144726433333	-5.73857038445	8.339380476423333
O	-6.355806346433334	-9.386218394450001	8.320870716423332
O	-8.053934376433332	-12.582767194450001	7.287784726423333
O	-6.766164836433333	-13.22497589445	3.7000990864233336
O	1.5239948335666664	-12.54934739445	-1.7137154335766664
O	-1.0915088514333335	-12.56421279445	1.0554092864233335
O	-1.1763911594333336	-9.80201309445	3.6953065564233336
O	-4.5463417964333335	-8.016077014450001	3.4913629064233334
O	-4.0426258264333335	-4.83791644445	5.640159126423334
O	-1.4276839134333335	-2.37713447445	7.029990976423334
O	-1.7571298294333335	1.3966781805499997	7.5866007564233335
O	0.44280176356666656	4.47002356555	8.001548826423333
O	1.1506573935666666	7.87873583555	6.493912506423333
O	5.856119823566666	9.167486785549999	1.3002951664233335
O	9.163049753566668	7.69175310555	0.0971496355233335
O	5.705668583566666	5.47047356555	6.764285046423334
O	4.170032893566667	2.0494156655499998	7.474520356423334
O	2.6993946335666665	0.07923719154999964	4.5040374064233335
O	2.0109383035666664	-3.6571366244500005	4.701890726423334
O	-0.26039961643333354	-4.41399926445	1.7388598464233336
O	-0.10502248643333356	-7.85187835445	0.004099191923333509
O	-1.8993797084333335	-9.25347038445	-3.1403441635766662
O	-0.6898702904333336	-11.952840794450001	-5.564766913576666
O	-5.007637426433334	-4.3503639644500005	-8.517723253576667
O	2.4276890935666664	-7.62292740445	-10.625573733576667
O	-0.7717790144333335	-7.70001735445	-8.578542493576668
O	0.5314160035666666	-6.20545004445	-5.359009463576666
O	3.5767713935666663	-6.18795108445	-3.1381020335766663
O	3.8115989335666667	-3.3463516244500005	-0.5489353625766664
O	6.524950773566666	-3.4417179544500005	2.1813914164233337
O	7.253564733566667	0.19327561854999964	3.2525823864233336
O	8.968469453566666	0.8090318145499997	6.632711956423334
O	1.7278887335666666	2.32943760555	-7.9016857435766665
O	-0.8104507974333336	2.8111398955499993	-5.087185233576666
O	-0.13294600643333365	6.1832510555499995	-3.3927672035766663
O	-3.7526421264333334	7.09641124555	-3.0717594335766663
O	-6.505161296433333	7.17766973555	-5.727243213576666
O	-7.086230796433334	5.1679184855499996	-7.807346183576667
O	-3.2525023164333335	5.2688473255499995	-8.150453873576668
O	-3.1812640464333333	2.0475693855499997	-10.179138233576667
O	0.2241590235666664	0.9155406015499996	-11.315745933576668
O	0.16977063356666644	-2.50090806445	-9.837178773576667
O	2.747023363566666	-2.43093692445	-7.079394393576666
O	6.1687489335666665	-3.8876169544500003	-6.620494173576667
O	7.508431383566667	-1.6606083444500002	-3.7924114935766666
O	9.767014253566668	-3.1752137844500004	-1.1608590535766665
O	11.257526053566668	-0.3539341114500003	0.9468409864233336
O	-1.8702089474333334	12.179816505549999	4.656204216423333
O	1.2344208635666662	11.61532590555	2.4533024164233335
O	1.7189276935666666	12.074651305549999	-1.2832563135766664
