71

O	4.999295466577359	-6.161123911822641	1.03562496254717
O	4.010637466577359	-5.115315121822642	0.9315344025471701
O	0.8091077605773584	-3.3580029418226416	0.8629541765471701
O	-1.2582005434226415	1.3928772481773586	2.30255620254717
O	-0.6112207124226414	-1.5482332418226414	0.10023023854717009
O	-2.5117688034226417	0.7168267821773584	0.5761380115471701
O	0.3166010216773585	-2.5577656418226415	-0.1322885781528299
O	-3.0686732034226414	-0.2937614748226415	3.00234018254717
O	-0.8377812834226415	-1.1136864718226414	1.37317425254717
O	0.1597022842773585	-3.1674458618226415	2.04370323254717
O	-0.5921096724226416	-2.0610919918226416	2.32309284254717
O	1.5749711265773585	-4.537703551822641	0.5848541435471701
O	2.6304029865773586	-5.1799236918226415	1.32221936254717
O	1.6290507965773584	-4.909292511822641	-0.6399262224528299
O	6.196107696577359	-5.871286951822642	1.7067977025471701
O	5.539358436577359	-6.645164191822642	-0.17739302645282992
O	4.642102116577359	-7.368060191822641	1.64098737254717
O	-1.9304980634226414	0.1638136631773585	1.81099929254717
O	-3.1561777834226414	-7.726920471822641	13.27732508254717
O	-1.4453019634226416	-0.8467834428226415	15.58460828254717
O	9.704459346577359	2.3945758981773584	11.04024258254717
O	6.221674266577359	2.5282661181773585	12.58248998254717
O	0.5177847555773585	7.002844028177359	6.9825613725471705
O	-2.4082356334226414	7.535290948177359	7.3514094925471705
O	-5.060417163422641	-12.66043609182264	3.22830129254717
O	-6.272789443422641	-12.51264779182264	6.7804634525471705
O	-6.119653893422641	-8.753950301822641	7.09288855254717
O	-8.404244203422643	-7.632908141822641	4.240867502547171
O	-9.489524133422641	-8.997363971822642	0.8427485985471701
O	-7.481482083422641	-8.171794691822642	-2.26712557745283
O	-8.772737483422642	-8.13111246182264	-5.84448169745283
O	-5.547774193422641	-8.708392221822642	-7.938746917452829
O	-1.4955523234226415	-4.411707031822641	-8.97254185745283
O	-4.423479473422641	-4.848442011822641	-6.48018254745283
O	-7.252801573422641	-2.9860048518226416	-4.6312607574528295
O	-8.530543743422642	-3.6655687318226415	-1.07503913745283
O	-10.559326683422642	-1.9059248018226413	1.64000463254717
O	-10.716487283422643	1.8845338181773585	-0.7187391934528299
O	-7.001111243422641	1.6247431081773585	-1.76061575745283
O	-5.997400663422641	1.1026291181773586	-5.40975942745283
O	-2.3343171834226415	0.019989146777358476	-5.2433528374528295
O	0.06633190157735852	0.9403550011773585	-8.098416897452829
O	3.8912990265773586	0.4402026051773585	-8.59078756745283
O	6.372706336577359	2.5042933981773583	-10.56960121745283
O	6.439949226577359	-4.632089871822641	-6.986612777452829
O	9.102193056577358	-6.021094811822641	-4.6717339674528295
O	9.240607336577359	-0.6627048068226415	-6.05602143745283
O	8.540698696577358	-0.8508483348226415	-2.26228416745283
O	12.218856816577357	-0.14725191882264152	-1.61082437745283
O	12.084509116577358	3.296584798177358	-3.29833881745283
O	7.986899086577359	3.2821071281773584	-5.693305107452829
O	4.231722046577359	3.241468508177358	-5.10224739745283
O	1.1904275705773586	5.3707070481773584	-5.833389367452829
O	-1.9661585834226414	4.579054828177359	-3.80272084745283
O	-5.338150353422641	6.186270068177358	-4.7418540074528295
O	-7.508588353422641	6.325741568177358	-1.55406995745283
O	3.8629424465773585	4.890474688177359	3.66753364254717
O	2.1986627065773585	1.4748527581773585	3.51878072254717
O	-0.5322433874226415	1.3967976681773586	6.245620332547171
O	0.21079788797735852	-2.1618513818226415	7.20222715254717
O	3.5338156465773585	-3.8170733718226417	8.11650365254717
O	6.172371636577359	-3.4591631918226415	6.876955762547171
O	5.080963376577359	0.17209870217735848	6.78158019254717
O	7.739504776577359	1.1922281581773586	4.256610432547171
O	7.858830156577359	4.829973788177359	3.28793820254717
O	7.447856896577359	4.385250228177359	-0.3965999024528299
O	4.054149376577358	5.831925738177358	-1.17805431745283
O	2.8193372865773583	8.92602057817736	-2.86948373745283
O	-0.7710834774226414	9.08424134817736	-1.50866599745283
O	-3.5248771234226415	10.366091008177358	-3.76455876745283
O	-6.6788913534226415	10.902422908177359	-1.66624457745283
