28

O	-4.113205088749024	3.8156146971106475	13.67467222144297
O	-3.419422273128164	5.187715745447211	15.248851282752442
O	-4.706896089259535	4.641977267254402	15.90715766226812
O	-5.138931853696604	3.2646795830531925	15.588266138229397
O	-5.476325060049961	3.5787474396850945	14.138456903073498
O	-1.749313410102963	9.632538984199533	11.300997768342532
O	-1.1479687808109524	9.95099439328149	9.968594817985432
O	-3.7626272291774026	5.116131235661388	13.899089220361592
O	-5.158905283946381	-0.44179491216266786	15.776065595167982
O	-6.548362570182503	5.467963487963245	13.748062819396235
O	-5.310897050436157	7.030183606928482	15.007782183888539
O	-4.370937177949646	2.1577327341185173	15.500052169920345
O	-5.223383263401654	1.0851138781819656	17.83497154801969
O	-6.908376467853816	1.4486470317355309	16.094802416708625
O	-3.008286823845312	9.577918589519589	11.287047252208616
O	-5.2430148696185475	6.057464145180261	13.882433967297732
O	-5.523112635423049	0.8319820013399446	16.29835133075682
O	-4.654175329263787	6.779239639548847	12.456202005262872
O	-3.999173068247338	6.076176587871105	11.32165830499824
O	-4.821266626341183	4.877044574815169	11.235583883166647
O	-2.801046364070005	5.216952429083255	11.567272746764628
O	-2.630501917052557	3.9234891492792503	11.603597308670409
O	-1.7995516576748445	6.18149347082011	12.047491297794327
O	-1.7422723125643707	6.910393381763356	10.833667273142666
O	-2.546800710080352	6.8908333580721814	13.113149817753946
O	-3.6819682518824073	7.5556254219593	12.961341802163883
O	-1.593750543693547	8.13597465902151	13.224640253547086
O	-1.1421745172924984	8.57852207863516	11.990386454083374
