73

O	1.4743158925762712	1.2248760245762713	-1.352478574627119
O	-0.6580861934237288	2.653781683576271	-2.453873892627119
O	-0.9600126124237288	1.0168587135762714	-0.34013562962711913
O	-0.23092736752372878	1.2284811455762714	-1.6251909426271192
O	3.8169695025762715	1.2192690295762714	-0.27909863062711915
O	3.5689013325762713	2.0442538035762716	-1.290422930627119
O	-0.5878322984237287	-0.03251699942372871	-2.318488682627119
O	2.231443612576271	0.6231668815762713	0.07000212337288086
O	4.632914662576272	0.7931772775762713	1.7906096673728809
O	2.599582942576271	1.5252382035762713	-1.9840641326271191
O	5.6638496025762715	0.9402591915762712	2.527279097372881
O	4.2908000225762715	-0.6708823064237286	1.6676599173728808
O	4.844854692576272	1.4134952125762714	0.4953453103728808
O	4.702976002576271	2.6964779035762714	-1.9706162126271192
O	6.235267902576271	11.097046013576271	-9.12828153262712
O	2.9663465725762714	12.290479513576273	-10.49975757262712
O	2.3444222425762713	6.983477953576271	-14.00712837262712
O	4.262774622576271	-1.7439598664237286	-14.28078347262712
O	-3.468622707423729	-2.2049132064237287	-9.34822267262712
O	-5.680371987423729	-0.1840023934237287	-9.15652223262712
O	7.622640032576271	11.02796441357627	2.189346797372881
O	7.1696882925762715	13.320881713576272	-0.7686449496271192
O	4.442321012576271	11.278142013576272	-2.402845602627119
O	1.8025793325762711	11.187864013576272	0.36186283537288083
O	1.7474592125762713	11.347791413576271	4.180400637372881
O	2.002384712576271	8.132365303576272	6.189307107372881
O	0.6899739725762712	7.6504908435762715	9.73880742737288
O	2.8725873025762714	4.735372543576272	11.08381092737288
O	2.0637921825762713	2.2626736335762714	13.78747522737288
O	4.017855492576271	-3.4180726864237285	14.258327527372881
O	-1.2517222174237288	-2.8376839964237286	10.41745752737288
O	1.9835466625762712	-0.9978047264237286	9.55490782737288
O	0.7948109525762712	2.4057066235762714	8.15320785737288
O	-2.1571308974237287	4.239937273576271	6.489583407372881
O	-2.0277555474237285	7.021386383576271	3.860085847372881
O	-4.260981737423728	8.619564823576273	1.240126127372881
O	-4.441755637423729	9.379343373576273	-2.4649180226271192
O	-8.83714751742373	6.914779753576271	-1.2936274086271191
O	-7.591570737423729	5.753793843576272	2.115872727372881
O	-5.164028297423728	2.7273474435762712	2.216186977372881
O	-4.603175617423728	0.7994145555762713	5.470847217372881
O	-1.4576232174237287	-1.2674033464237286	4.825063947372881
O	-1.0430765614237287	-4.706293566423728	6.543559267372881
O	1.7115875925762714	-7.429645506423729	6.206889647372881
O	1.4223202125762713	-11.192787786423729	6.688816427372881
O	7.379543882576272	-5.968217226423729	5.968854547372881
O	6.251331132576271	-9.766205886423728	3.020859457372881
O	6.442403312576271	-7.571729436423729	-0.16611431062711912
O	8.330683172576272	-10.376120986423729	-1.893978562627119
O	5.402587702576271	-12.847978986423728	-1.556913542627119
O	2.4949824725762713	-10.825238086423727	1.606668287372881
O	0.1994424265762712	-7.831154116423729	2.006218217372881
O	-3.4339459774237286	-7.016942286423729	2.6618395673728807
O	-4.5374679174237285	-3.4157871464237286	1.8524114973728807
O	-8.007171977423729	-2.1651638464237286	2.9529588773728808
O	-9.092963407423728	0.6482151405762713	0.553159107372881
O	-11.826404467423728	3.0896926735762715	1.662792967372881
O	-0.12890603842372877	-4.857001666423729	-6.427624792627119
O	1.2839555925762711	-1.7763517464237286	-4.6774905926271195
O	0.034643871576271246	1.3185464905762712	-6.589356222627119
O	3.3385439925762714	3.0939797135762714	-6.391667412627119
O	6.834875962576271	1.9046473635762713	-7.418779982627119
O	8.09576713257627	-0.7110591764237286	-6.9141917526271195
O	4.590224302576271	-1.9321414264237289	-7.934773862627119
O	5.230360032576272	-5.422451286423728	-6.565155362627119
O	2.4151124525762713	-7.893548176423728	-7.011115072627119
O	2.008242332576271	-8.842560176423728	-3.4279967226271193
O	-1.3508084374237288	-7.453456816423728	-2.4128192026271194
O	-4.721897547423729	-8.914354096423729	-1.679240402627119
O	-6.934510707423729	-5.797329546423729	-2.084370912627119
O	-9.946933957423727	-5.372407906423728	0.1733504433728808
O	-12.08152566742373	-2.4843756164237285	-1.1435266106271191
O	-2.4375592974237286	5.993237893576271	-10.38520910262712
