33

O	-2.738502406748722	7.365884024838773	13.359052704425281
O	-3.4159752399660688	6.069719211850403	13.2063047209624
O	-5.303969541048196	4.2267390257492	14.31040367278199
O	-5.430594061098429	2.099953164915673	15.87157714849016
O	-2.642446367019333	4.83802474189206	13.489099354237904
O	-3.3368783828194477	3.538012094975312	13.09548409463916
O	-4.324883592179527	3.277675386996508	14.190128444781116
O	-4.4235349174799765	2.176810405232377	14.968880628227383
O	-3.4556501363831744	2.459757288011592	10.902970621578913
O	-3.406292750314068	2.9437441109519407	9.454397830056934
O	-3.8180612199663777	4.874523955191365	11.225621399115612
O	-2.0879566559660416	6.081139555153639	10.069909097995355
O	-1.3084451365889365	5.187459687097101	9.255586050863737
O	-5.337479698418661	-0.5927919062561626	16.59633547917329
O	-3.932104473188522	3.531757370157982	11.79145661919734
O	-5.128523403952012	6.7445854430099335	15.009173036330452
O	-5.630220984203065	1.2128895654498502	18.42761081453701
O	-6.058324110849509	6.403859629531428	12.868264078842316
O	-7.442620790242486	0.9217468493580623	17.08323612072828
O	-4.616226887499158	5.298392458922066	10.376804115814497
O	-2.484857829241302	5.110630762234857	11.00865791441029
O	1.403373316340483	5.1940531890607	7.623420890608607
O	0.02408696800524801	4.9122432467376616	9.426367129053297
O	-5.0376794905514055	5.891544070422561	13.79854579971665
O	-6.370183007741967	3.4720718882099817	15.426883071122054
O	-5.958673955165067	0.9227916739255355	17.015578839101845
O	-1.6270700996152918	5.096441782962556	7.79103797818059
O	0.8554443165622869	5.810045637799505	8.701278143693166
O	-0.9888817807613846	7.291387964716983	7.441629117947285
O	1.3035964342719302	6.6676354588485625	9.450187804235686
O	-2.0944938518016025	6.433805727188705	7.613039653463836
O	-0.4859810468831016	7.149635009743627	6.1893336539627075
O	-1.030072952187691	8.262623235440639	8.190951177844003
