22

O	-2.3519129336330744	6.353155490399358	13.346185721674361
O	-0.3880831702331182	9.789323435584816	14.921514594538829
O	-4.553146385233884	6.844143300703463	13.373417989486867
O	-1.7130320007600384	9.795472673008613	14.599862216189914
O	-5.408109330241463	-0.37793921249939855	16.023290961125948
O	-5.473057635374257	1.0229640201114947	18.149874528096127
O	-2.344026362994641	8.513389599863654	14.62653813586945
O	-7.36516908606176	1.1905163263682361	16.889990856965944
O	0.32504343167906935	8.670442532612396	14.493271615664263
O	-0.3623606390444154	7.6702893660453455	13.799455909666221
O	-1.7024431368981183	7.39142591119139	14.098484936193888
O	-1.8104321604883928	6.33502067818627	11.976205030209075
O	-1.006497550096726	7.58538973160048	11.582082764072235
O	0.23620029746874138	7.398067141757295	12.447496389744092
O	-3.6575812681624122	6.007720832478103	13.731476534901532
O	-4.170798883892136	4.801960618556632	14.402036520550894
O	-3.5648266790820333	3.5820892397012654	14.48396996692878
O	-4.019538786801941	2.530138335729966	15.281793063713446
O	-5.235586166923921	2.5024929819591204	15.863956562489571
O	-5.954219862378858	3.600132234094483	15.537440136845577
O	-5.51909075049769	4.658956646989506	14.743083839117952
O	-5.887841436458665	1.1430045195775524	16.719208083317145
