24

O	-1.6218338045112048	10.064176430936012	13.673272286061891
O	-1.0245470912501862	11.268716732749684	13.48120769063567
O	0.20609000798428223	11.48530280361246	14.038321696006575
O	0.8239002662374189	10.43740039224501	14.648524830182213
O	0.4620575781794898	9.15853740204372	14.372390024978298
O	-0.7011290595580428	9.060459959863493	13.764259442404299
O	0.3864711469228457	12.93296169112946	14.45919677653821
O	0.07613121118761157	12.630575846476997	15.937612491614303
O	1.3839067584994025	11.979888403673964	16.379364678758986
O	2.447793474209342	12.966742495339929	15.905027207464176
O	-1.3310282072541657	7.61182622886683	12.968179014118894
O	-1.94051913773423	6.266694485804533	13.928159238017932
O	-3.427444750496323	6.183203460644499	14.152978980297185
O	-3.920386998246479	7.29996396060084	13.78212557639697
O	-4.139460227142575	5.121040822898802	14.82417408324343
O	-3.4737362877206954	3.967930920036376	15.106650717362585
O	-4.046503226004953	2.7417513035913204	15.447071900845966
O	-5.270428227625018	2.695646369917664	16.046600299959408
O	-6.002117915590189	3.7236829629281436	15.516645072442946
O	-5.445098180037491	4.983655655014773	15.177956818278117
O	-5.880603340003745	1.2319571394729505	16.748215280634035
O	-5.63111095707117	0.9880420236162042	18.197139911290247
O	-7.367690817993203	1.1121313737734373	16.77123970822527
O	-5.296734596633853	-0.2459562970601148	16.03628614894287
