71

O	-1.3231729994105261	2.6684747803754387	-0.02818320119298212
O	-3.682607851410526	2.1815544803754388	-1.388414061192982
O	-1.393481775410526	1.013097996175439	-2.159403191192982
O	-2.164586611410526	1.5126993973754388	-0.9903103711929819
O	0.19040362358947394	3.7911280903754387	1.709925838807018
O	-0.8350950954105261	4.465215220375439	1.205602841807018
O	-2.2340901114105263	0.22314226637543888	-0.24952145419298205
O	-0.18285165241052614	2.1998623203754386	1.1737817968070179
O	1.4634684585894737	3.267771530375439	3.492604638807018
O	-1.017149088410526	3.978364710375439	-0.022736573192982112
O	2.022227968589474	3.799577680375439	4.515090278807018
O	2.461640118589474	2.487746140375439	2.689438618807018
O	0.927288488589474	4.305660000375439	2.614403438807018
O	-0.8685858854105261	5.935069760375439	1.381327328807018
O	-8.450487991410526	14.123922770375438	-0.6526056601929822
O	-6.977939691410526	12.527763970375439	-7.794182401192981
O	1.6117387585894738	11.121621570375439	-9.892749461192983
O	1.6421496985894737	4.355661570375439	-11.121955161192982
O	-1.1965970324105262	2.3677794603754387	-9.614637811192983
O	-3.991361901410526	1.2978502883754388	-9.865063661192982
O	-8.938779971410526	9.07652297037544	4.1096666888070175
O	-9.892221341410526	5.514758150375439	5.127262918807018
O	-9.773175331410526	3.384386950375439	8.295678218807018
O	-6.647126861410526	1.3479742743754388	9.046818948807017
O	-6.577949721410526	-1.792936849624561	11.223104238807018
O	-2.897938911410526	-1.9425259796245613	12.444306338807017
O	-0.883791907410526	-4.925485589624561	13.504327838807017
O	5.0715849085894735	-5.688995289624561	13.011268138807017
O	1.837717238589474	-7.278856639624561	7.550815908807018
O	1.6401322485894738	-3.7205625996245613	8.940797398807018
O	-2.027941261410526	-2.677557489624561	8.314144388807017
O	-5.140050541410527	-3.3291763096245615	6.135315948807018
O	-7.730304311410526	-0.7819919796245611	4.909979858807018
O	-10.335217331410526	-0.40755084962456123	2.1836818888070177
O	-11.348191241410525	1.808804272375439	-0.7066045541929822
O	-9.315171851410526	-4.4096365896245615	0.4322141668070179
O	-5.528140701410527	-3.7549228096245613	0.7249330548070179
O	-3.292625201410526	-5.772260039624561	3.048129178807018
O	-0.06926951041052609	-3.738165399624561	3.340646188807018
O	3.286285068589474	-5.591240439624562	3.863515438807018
O	6.935813508589474	-4.268007999624562	4.020381218807017
O	10.169641858589475	-6.061159889624561	3.099371488807018
O	8.278795368589474	0.6016085123754389	6.968196568807018
O	10.865550058589475	0.12424137237543886	2.801931518807018
O	8.776499788589474	2.8161931803754388	0.959979465807018
O	11.996717358589475	4.238290020375439	-0.45514804319298213
O	12.859724458589474	0.9912317299754388	-2.333895081192982
O	10.832749658589474	-3.778163819624561	-3.8429356911929817
O	9.958217558589475	-2.2702974596245613	-0.46434289919298205
O	6.2669798285894736	-3.154501289624561	-0.26515121219298204
O	3.9391811385894737	-5.995908699624561	-1.1840959411929821
O	0.18492926658947395	-5.134670749624561	-1.2414695411929821
O	-2.432656511410526	-7.93912632962456	-1.569910521192982
O	-5.6015874014105265	-6.438807479624561	-3.171663921192982
O	-8.942656301410524	-8.270359109624561	-2.772460161192982
O	2.9041201785894737	2.3151080303754386	-6.473929871192982
O	0.9757873985894739	3.4981456903754387	-3.442088101192982
O	-2.507066541410526	4.673856740375439	-4.621510961192982
O	-2.553126731410526	7.652784040375439	-2.3553277811929823
O	0.04401545458947387	10.45382439037544	-1.877360081192982
O	2.9730433585894738	10.195125810375439	-1.643583761192982
O	2.3832830085894736	7.742335250375438	-4.555037541192982
O	5.861037718589474	6.240792510375439	-4.218630691192982
O	6.705113478589474	3.511608540375439	-6.6802229911929825
O	7.610032558589475	0.8755585113754388	-4.205456941192982
O	4.928521038589474	-1.761801279624561	-4.553140741192982
O	4.715017098589474	-5.21580382962456	-5.966725881192982
O	0.9009441285894738	-5.561241149624561	-6.360474551192982
O	-0.7007845890105261	-8.94464122962456	-5.782112471192982
O	-4.336670451410526	-8.805655489624561	-6.9629873211929825
O	-8.066492051410526	6.554260080375439	-7.409005601192982
