21

O	-7.505774304863077	4.032836018901968	16.205216794076044
O	-5.60096997135341	2.280025660364584	16.25988578170503
O	-5.671800183002482	-0.5976081566152835	16.444515431831416
O	-7.723676027592149	1.0261356262061656	17.017645589733746
O	-6.299188713583599	0.9449222956906311	17.033597025794386
O	-5.944278987434179	3.468542170958213	15.804991483697028
O	-2.9571569220649288	4.528013172033809	13.961306066645133
O	-5.903033505830327	0.9805254046880023	18.449124029211184
O	-5.096587545634516	4.507487954872102	15.344255865107053
O	-2.7428874855248724	6.87392207020422	12.815971990384565
O	-3.9564218203156516	4.046238837716736	14.794162645954835
O	-4.253933048980053	2.094300718005057	12.81087761794177
O	-3.718640820616077	4.766335832164403	12.71184336384135
O	-3.1317363361971005	0.6636997750161626	14.026532671164237
O	-3.8862523104575426	6.225797887807504	12.996830543924908
O	-4.318829220079033	6.950199798207695	14.059656856835439
O	-4.085165622893005	8.282952807843238	13.69030719214555
O	-2.9802843319600676	8.1879954968352	12.845721303304659
O	-3.760574644007914	2.70641234910569	14.784900265890723
O	-4.384356406238117	1.9364444295791379	15.707675722874196
O	-3.254640076737336	1.9578968003059833	13.592197719733456
