30

O	-6.068063035427667	0.7125740257519433	16.918618121847462
O	-5.669309002578734	0.8365645188946109	18.333404144902264
O	-7.536278095257638	0.7639115535702259	17.057741205481257
O	-5.415044397171124	-0.6930958095230229	16.254541595147742
O	-5.4432909036918895	2.048134105801559	16.03671358184453
O	-4.395053148075115	2.279107049815554	15.20967607777942
O	-4.323954569203622	3.480690871297477	14.569707629900584
O	-5.263188032460704	4.371374996659335	15.00235383529023
O	-6.370427324319255	3.4938056588901425	15.907108737371116
O	-3.2835070448679686	3.8473602561157234	13.564184031012982
O	-2.978918535340731	5.108731523252508	13.36153116995769
O	-4.187809523512999	5.729934401186972	12.988489910239974
O	-5.422885187139755	5.873024516247945	14.227906986862733
O	-6.7027959852320755	6.045647595212363	13.545353360455916
O	-4.997944280917721	7.075163800105026	14.952424261613782
O	-1.8557112328562804	5.420006659122353	12.46126104542926
O	-0.30406761300701746	6.852592490301661	11.520848643276187
O	0.22324936742744939	8.23766228057257	11.31999141497851
O	0.5905937601383222	8.729365577058047	12.54486956312642
O	-0.5278596971394132	8.788671372486924	13.33342512355825
O	-1.1546517226104829	7.471663844834747	13.64598186597943
O	-1.2789301177221457	6.672135015164578	12.515180652409114
O	-4.191123049524098	8.01518487653264	12.727166180960607
O	-4.275163313289567	6.812991767775473	12.10724477999904
O	-3.5942038399457203	6.609566325823357	10.940376277769873
O	-3.3142276089642353	7.733262037946034	10.27284824397623
O	-2.986672233496294	8.82343806683855	10.99051390837678
O	-3.671898371178065	9.111180085265245	12.12706038334245
O	-3.5011307004079852	10.343160078946804	12.691883596150694
O	-2.491921555981743	11.172975271605651	12.079385053064282
