18

O	-6.12143939519418	3.63748131660064	15.823153574360543
O	-5.426192957567159	2.4914014854344724	16.152453428661477
O	-4.43179922401289	2.291238149649302	15.249557527633828
O	-3.721943373371327	3.3442459214504776	14.810558510100588
O	-4.2972997874286545	4.562736999833177	14.59359429318723
O	-5.521745098067497	4.723376556250473	15.17044930469344
O	-3.4233646052707183	5.5585801647403645	14.030443270642813
O	-2.1461117831290837	5.208573499305642	13.623336298215467
O	-1.199380477631732	6.087113214859899	13.193347031048074
O	-1.3101988017980597	7.392062844393743	13.576494216375297
O	-2.394126377116998	7.684418653989884	14.387823661507984
O	-3.5468223092090048	6.906379465053536	14.135117536448542
O	-2.678176596216172	9.109985381579342	14.413740046100106
O	-5.451205454224211	-0.4076641420459026	16.165000918638476
O	-5.676310473293698	0.922242243028653	18.358366319283917
O	-7.43536265816319	1.1016100634015356	16.971904248883426
O	-3.178838934521301	9.487411490246068	13.351808744716534
O	-5.976685616798322	1.043634412738069	16.921617818769462
