22

O	-3.980127432207468	2.3549952061921458	11.02145798876261
O	-2.9040331754199578	2.851534337340472	11.935377858973869
O	-2.001505134974124	0.6881287082844953	11.924611549485899
O	-3.3860925336090353	0.4550229170833915	11.63091002232098
O	-4.963250478987623	1.683920555952505	12.041842374723734
O	-4.271876851163357	-0.658306645032283	11.428245701381716
O	-5.242684772758224	2.753843430353891	13.006415236534346
O	-4.1107505322614655	2.8463680641348796	14.071577143238015
O	-4.484985193659501	1.6339416152339594	14.851364057539946
O	-5.188960854584149	5.973802905407846	12.973180080677487
O	-4.494163244119029	4.740851158679863	13.350966233966524
O	-3.0296664268969207	5.111143375915768	13.427608903718358
O	-5.587355649234586	-0.08741541353619403	16.712905580775917
O	-3.534731329653372	1.2176217188717928	10.444606558357812
O	-4.0382778484839115	0.9367202305059821	12.738249703429918
O	-3.052878264894854	2.7913340110880602	13.273139620393348
O	-7.232942691336393	1.9226223094218486	17.607479688197227
O	-5.7738181163323965	2.0342479781729765	15.316794570495855
O	-4.90918159365452	3.90684142437314	12.371900206134
O	-4.673496818894279	4.046175842827739	14.501633766216395
O	-4.761482922053069	2.1878053714927805	17.667543314550922
O	-5.700556471372421	0.977794674696593	16.869272531783906
