75

O	-6.326087940346153	3.187615822076923	-1.7465708080057691
O	-4.573740060346154	0.09291804207692289	-3.189389247005769
O	-6.914284500346153	0.930535401076923	-2.240496997005769
O	-5.873362020346153	0.5869320350769229	-3.2968061070057693
O	-1.4784613483461535	1.756944826076923	-3.199743847005769
O	-2.0427866193461535	0.019558372076923014	-1.862885161005769
O	-0.1008801103461534	1.543926404076923	-3.0021106770057693
O	-0.6902659003461535	-0.16017607792307698	-1.622359116005769
O	-2.3126668923461535	0.704485250076923	-3.051142587005769
O	0.30648565965384655	0.712253479076923	-1.9967863570057691
O	3.0543076896538466	1.282401115076923	-2.609211927005769
O	-5.567374480346153	1.6037900040769228	-4.155932297005769
O	-4.2515080103461536	1.913577919076923	-4.024123527005769
O	-3.6267509203461534	0.8856360260769229	-3.5179741870057692
O	-6.477515570346153	0.351958574076923	-1.1605944660057692
O	2.324609329653846	-0.576698077923077	-0.913962790815769
O	2.240088089653846	1.452779955076923	-0.1890031410057691
O	-7.375326420346154	2.215053572076923	-1.925571437005769
O	1.9164399296538466	0.735976933076923	-1.443879703005769
O	-1.9803269293461536	2.728136252076923	-3.9860981870057692
O	-3.166779220346154	-0.334536597923077	-1.233513025005769
O	0.8061869696538466	1.970609772076923	-3.9406872470057692
O	-0.29044956034615343	-1.4027095179230769	-1.469278865005769
O	1.5460980396538464	9.674572682076922	-12.119723257005768
O	5.389793139653847	13.041087472076923	-6.665926247005769
O	-1.9828644523461536	14.390523272076923	3.312431032994231
O	1.0973808296538465	14.189497272076922	1.068203912994231
O	6.236265179653847	6.972122452076923	3.423475272994231
O	8.785480879653846	6.019809892076923	2.1646516629942307
O	-3.4023653603461534	-0.49409640792307696	-13.374074457005769
O	-1.3253054193461535	2.079519045076923	-15.16805395700577
O	1.0583114996538463	2.746268352076923	-12.31978405700577
O	2.4261700396538464	-0.7358347079230769	-11.637864457005769
O	1.2847542896538464	-4.3441271979230764	-12.07163715700577
O	-0.5681189403461535	-6.080735757923077	-9.257613787005768
O	-0.6544424503461534	-9.853497227923077	-8.70767076700577
O	-3.9194996703461538	-10.336932427923077	-6.67736828700577
O	-4.3520133203461535	-9.105646327923077	-0.8193546097057691
O	-1.8196515203461536	-8.218601507923077	-3.605964107005769
O	1.8902681596538466	-7.649157487923076	-4.351210007005768
O	3.410914529653847	-5.130578587923077	-6.792558577005769
O	6.7741479096538475	-3.5010377479230765	-7.480618837005769
O	8.609516679653845	-5.3126287379230765	-3.842853977005769
O	5.5429522596538465	-4.620147717923077	-1.662873419005769
O	3.420373469653847	-7.480698097923077	-0.2560275280057691
O	0.18958503965384654	-5.796402357923077	0.8575379129942309
O	-1.8455241403461535	-7.145676037923077	3.861647542994231
O	-5.091659760346153	-5.780859817923077	5.567606032994231
O	-6.183180990346154	-6.2156579079230765	9.17962874299423
O	-9.593964120346154	-3.687010317923077	2.4670789129942308
O	-11.610679140346154	-0.492456427923077	1.886462072994231
O	-8.816904140346153	-1.191898327923077	6.622138182994231
O	-7.260966610346153	1.8073572910769231	4.78055122299423
O	-9.263715140346154	4.125941792076923	7.061975602994231
O	-7.524832740346153	2.878299712076923	10.248701242994231
O	-5.347867310346153	-1.1038784179230772	8.896613532994232
O	-2.4894620283461535	-2.326469687923077	6.720626702994231
O	0.8195539296538465	-4.184877277923077	7.059327142994231
O	3.2102037396538465	-3.899198787923077	4.028255092994231
O	6.351114379653846	-6.131824847923077	3.7906130329942314
O	8.919365079653845	-4.262033207923077	1.601903182994231
O	1.4911205496538467	5.394606702076923	4.70478200299423
O	0.5412233396538466	4.238300462076923	1.2589222729942309
O	3.2952830496538468	5.359288692076923	-1.172240700005769
O	0.8818847196538464	6.375391242076923	-3.847291027005769
O	-2.3403353823461535	8.508279362076923	-3.714175687005769
O	-4.404573680346154	8.550924702076923	-1.632295514005769
O	-1.3366474513461535	8.329287872076923	0.638139392994231
O	-3.3879919203461535	7.410829312076923	3.7177801229942307
O	-1.5144750753461536	6.8726782320769235	6.885995082994231
O	-2.6325278253461537	3.3999708720769233	7.607576162994231
O	0.45661309965384667	1.284792082076923	7.193622542994232
O	5.874199229653847	-0.9192281079230769	7.324260772994231
O	7.9743300496538465	-4.054331467923077	7.632763232994231
O	11.192665479653845	-3.5938258279230766	5.613910792994231
