13

O	-4.4231553422864405	5.841418679712861	14.292053897918152
O	-5.323882819864076	5.650477479239396	15.24136636805251
O	-5.576989344587588	4.42953980575577	15.795427258499966
O	-4.71290325076194	3.4463785230117363	15.495141737354428
O	-3.835189131936203	3.6265741989816265	14.502706173991996
O	-3.638290171801831	4.828670425550525	13.895064035112078
O	-5.418689821669313	2.1944089272415055	15.359925018326411
O	-4.422664889495932	1.1954107625581818	14.968613763210058
O	-3.785594897189237	1.431674289314858	13.89006739493671
O	-4.993034676987696	0.03945260537147077	15.411589507494472
O	-5.285411588357329	0.13657331860539812	16.738395021293137
O	-5.787931942192001	-0.7911557007849528	17.36130596259961
O	-5.796099828572662	1.8095404266512198	17.043256042928622
