18

O	-3.5622508205143433	2.8481852778027177	13.948208277324937
O	-4.288836704688826	4.061692562790002	13.613844909073453
O	-3.9013787158510906	5.058953421860695	12.872586072706618
O	-4.8611178024004325	6.013872764285992	13.081056543692121
O	-5.454446682423834	5.820170787435292	14.265802708828875
O	-5.335508806032097	4.50385987718486	14.411167333349713
O	-5.348336842971339	3.919382520791833	15.544031342217773
O	-5.365096055429699	2.501186381141004	15.665390633711668
O	-5.983057344877363	1.265042014257232	16.657096389591455
O	-5.433427122716143	-0.3375454409032477	16.27172269218638
O	-7.450677766994745	1.2407799975011882	16.608655038619226
O	-5.8239395909728815	1.4137955322369065	18.111496706910167
O	-4.404005011227458	2.0373519808039244	14.840777667683465
O	-5.316449989331689	7.131817022147015	14.82234602191798
O	-4.922080022692416	8.291376067264398	13.519513118518109
O	-5.642162564530684	6.993921364481358	12.583883787382801
O	-5.326640691998474	7.077005380636885	10.847653226818377
O	-7.0054544428756795	7.749577211607123	10.553045274582846
