73

O	0.6240312022249996	2.6800523740961535	-0.4601060409230763
O	-1.6565602977750002	1.5818967290961536	-3.1914509779230764
O	0.13117570622499958	-0.09693111690384648	-1.9000750179230765
O	-1.0801689157750003	1.0519440950961534	-1.8160889179230764
O	0.7543170922249998	4.036930163096153	-0.6717642449230763
O	-2.2158048477750003	0.008745773096153542	-1.1955931679230765
O	0.7283200922249997	4.970834343096154	0.4055256701769237
O	-0.5283962382750004	1.9695192920961535	-0.8630860479230763
O	1.5093894122249998	4.518280473096153	1.425588202076924
O	3.0003778322249994	2.9974414730961536	2.1073863520769236
O	1.8835659322249996	3.2577809830961533	1.5735558920769237
O	4.908612752225	3.630485873096154	2.939806092076924
O	1.3203445122249997	2.2965447870961535	0.6976759000769237
O	2.0641613122249995	5.3188309230961535	2.3235204020769236
O	3.3844679122249994	5.179624613096154	2.6334583920769234
O	3.8339090222249994	3.9363979730961534	2.305701672076924
O	1.1708937822249996	6.322273713096154	2.8483216220769236
O	4.021310412225	5.811714583096154	3.7880239020769237
O	3.5219959322249994	5.108808283096153	5.017766572076924
O	2.0063153222249994	5.053291643096154	4.886312662076923
O	1.6039094022249996	6.393637363096153	4.350712202076924
O	-5.298763307775	13.658541933096153	-5.218898947923076
O	-11.548759637775001	9.927451863096152	-3.4804769179230766
O	-10.715288237775	6.0320472130961535	8.337419492076924
O	-11.808875937775001	6.397282333096154	4.701230012076923
O	-9.931926447775002	-1.2616575669038466	0.0638965650769237
O	-10.384336137775001	-1.8313392769038463	-2.8478180179230765
O	5.720834272225	11.039196323096153	-6.010547047923076
O	2.9721502022249995	12.973433133096155	-7.679414667923076
O	0.34736042822499963	10.278766493096153	-7.409556347923076
O	2.0296577422249995	7.354311503096153	-9.208207967923077
O	5.595516312225	6.177146793096154	-9.896085267923077
O	7.317472732225	3.8720429130961533	-7.419623237923076
O	10.175648362225	1.4915193580961534	-8.222822667923076
O	11.920154262225	1.0731007860961537	-4.773160247923077
O	9.748409262225	-2.4402045369038463	-0.4425675909230763
O	8.303739002224999	-0.9442821169038464	-3.6957755979230766
O	5.911164692225	-1.6149144669038464	-6.655550227923077
O	3.6725545022249997	0.9462660070961535	-8.439220617923077
O	0.5938218522249996	1.0372205180961536	-10.670571167923077
O	0.044589933224999656	-3.3762867369038467	-10.311394767923076
O	0.7529582222249998	-3.359609766903846	-6.507928567923076
O	3.8473506422249995	-5.128693646903846	-5.112712227923076
O	4.174376442225	-3.8144022069038463	-1.569357157923076
O	5.634744752225	-5.951211716903846	1.2657829990769236
O	6.025200072225	-5.233694066903847	5.068609462076924
O	6.142291172225	-7.775661526903847	7.912358032076924
O	7.766220952225001	-0.001994936903846556	7.097663152076923
O	6.710156732225	2.7746066660961537	9.425487772076924
O	4.387382762225	-2.1648362669038463	9.944804732076923
O	1.6296724722249996	0.21163183309615352	8.721871482076924
O	0.43659342722499966	0.5411650630961535	12.326478732076923
O	-0.39941482747500034	-3.198555616903846	12.638686932076924
O	1.7428860622249995	-5.2035254269038465	8.912404042076924
O	1.5488328122249997	-5.390525866903847	5.133442152076924
O	1.0066288322249997	-7.866980376903846	2.3268180920769237
O	0.15016448522499964	-6.395075176903846	-1.1241116779230764
O	0.08339667122499966	-8.570768166903846	-4.273426617923076
O	-2.3279843777750004	-6.934917606903846	-6.800015487923076
O	-6.235275687775	-1.2298137569038463	3.6713372920769234
O	-3.8447901777750007	1.1002833630961535	1.7810662720769237
O	-5.862315537775	2.5479969430961535	-1.2192698279230765
O	-4.329005307775001	5.994023833096153	-0.8003810079230763
O	-4.282644957775	8.224982163096154	2.2423968320769236
O	-3.7199007677750004	7.507841933096153	5.0465485220769235
O	-5.738843767775	4.471295113096153	4.136677642076924
O	-4.566212327775	2.5223583620961536	7.165920892076923
O	-6.152606877775	-0.8687370569038464	7.664970552076924
O	-3.0231914077750006	-2.890260556903846	7.741048162076924
O	-3.0984559677750005	-4.945306596903847	4.569234862076923
O	-4.546323907775	-8.283560466903847	0.011543247076923724
O	-3.4176475977750007	-10.993976666903848	-2.3739140879230765
O	-5.159366867775	-10.483720266903845	-5.7448899579230766
