76

O	-2.350581023037736	0.2469190229245283	0.45698299409433996
O	-1.529367711037736	0.5533589439245283	-0.5821914229056601
O	-1.648383899037736	-0.13272006007547169	-1.74429451190566
O	-2.9063794540377357	-0.5818116000754717	-1.96947362190566
O	-3.651974884037736	-1.0241380590754718	-0.9116160519056601
O	-3.3576914040377357	-0.6501826400754717	0.35820840019433997
O	-4.253223674037736	-0.7903941250754717	1.4846854980943398
O	-4.387208454037736	0.18900000902452832	2.23908992809434
O	-5.405456474037736	-1.5775832290754717	1.27717476209434
O	-6.345939734037736	-1.6699965290754717	2.33970220809434
O	-0.7266820140377359	0.3005759509245283	-3.1466949519056597
O	0.04324797596226415	1.5057890309245283	-2.81431594190566
O	0.3342591959622643	-0.7104026400754717	-3.30901679190566
O	-5.907825974037736	-2.6036700390754715	3.33383281809434
O	-5.700549034037736	-2.1055236890754716	4.61707376809434
O	-5.446620084037736	-3.0913793890754717	5.52117415809434
O	-5.199948344037736	-4.4120032890754715	5.20174871809434
O	-4.675122034037736	-4.496278909075472	3.9164018980943403
O	-4.978532114037736	-3.5619751190754716	2.9652909680943402
O	-1.657198788037736	0.3716477469245283	-4.56642604190566
O	-4.3034663240377355	-3.4750263690754717	1.76058503809434
O	-5.382983054037736	-5.454932809075472	6.02739540809434
O	-5.374215084037736	-0.8075104310754717	4.74508928809434
O	-12.087923254037735	-4.799732129075472	-9.61168874190566
O	-0.297450944037736	-14.74778482907547	-3.62954154190566
O	-1.1258481320377358	-12.942726929075471	-6.891583381905661
O	4.185426265962264	-5.597812039075472	-7.766345531905661
O	4.1960066859622644	-3.5893162690754714	-9.982762561905659
O	-13.610958154037736	3.4541959509245284	-1.9626246919056598
O	-14.758916154037736	2.2121237609245283	-5.32357143190566
O	-11.309626114037735	1.4026868709245282	-6.62004128190566
O	-9.577720944037736	4.795312810924528	-6.32524061190566
O	-9.841887384037737	7.891349250924528	-4.10334780190566
O	-7.802819434037736	8.061036100924529	-0.9046341919056601
O	-6.717719154037736	11.250244470924528	0.87164628009434
O	-6.198207814037736	10.054366450924528	4.5337167380943395
O	-1.411485556037736	6.933172620924529	6.31296114809434
O	-2.941769174037736	7.830401480924529	2.87960490809434
O	-2.146798985037736	8.670519160924528	-0.79476166190566
O	-4.091764414037736	7.656971390924529	-3.9294540619056604
O	-3.593542934037736	7.3982059209245286	-7.689715201905661
O	0.7308943759622639	8.536456210924529	-7.33745818190566
O	1.2444536059622642	6.213484730924528	-4.24826574190566
O	2.089754125962264	7.727359080924528	-0.8261684219056601
O	1.459104415962264	4.886060640924528	1.64346123809434
O	3.539455265962264	4.620858480924529	4.86123697809434
O	3.6808493259622646	1.9675698609245282	7.69394305809434
O	6.587197205962264	0.9878756029245284	9.92558771809434
O	6.042768295962264	2.4129642009245282	13.42968343809434
O	-1.2194571610377358	-0.37625795107547166	9.86002203809434
O	-2.982478074037736	-3.7171934190754716	10.306638638094341
O	0.05880135596226399	-5.329463869075472	11.919262738094341
O	2.4431901059622643	-3.6402162690754714	9.48208776809434
O	0.877777055962264	-5.355943089075471	6.3942825180943395
O	1.7963759159622639	-8.738204779075472	7.92340577809434
O	5.544777285962264	-8.014352039075472	7.8910550980943395
O	5.850519095962264	-3.3428339590754717	7.140004788094339
O	5.1805212459622645	-0.7452823260754717	4.45811354809434
O	7.0570459559622645	1.8307556909245282	2.42757058809434
O	5.288683875962264	3.1842416609245285	-0.68865460690566
O	6.716581405962264	6.213972580924528	-2.5961351019056598
O	5.534294685962264	5.9795457809245285	-6.26316653190566
O	3.7262029659622646	-5.965503179075472	-2.63402176190566
O	0.44082752596226427	-4.112951959075471	-2.45140578190566
O	-0.9835319050377359	-3.6804602790754717	-5.95004199190566
O	-4.5462306540377355	-4.355807529075472	-4.78828115190566
O	-5.918534584037736	-7.456823609075472	-3.21286280190566
O	-4.846120794037736	-8.844905349075471	-0.8511866019056601
O	-1.5445731810377359	-8.252763989075472	-2.58359953190566
O	0.5035612659622639	-8.924768929075471	0.55257034509434
O	4.233326255962265	-8.861345409075472	0.09531177609433994
O	5.019723225962264	-6.261314389075472	2.64091338809434
O	6.258856465962264	-3.2997776890754715	0.65638959709434
O	8.843449145962264	0.29764718892452835	-3.12676579190566
O	10.492517445962264	3.6706550209245283	-3.59900307190566
O	9.932423045962265	4.813509230924528	-7.20714034190566
