24

O	-4.036137769204592	6.635220496219061	10.9461390526616
O	-3.5922705504442587	7.9422235017182405	11.190208144365277
O	-5.462436022858004	4.842301017557053	15.814512414805796
O	-5.017675172214309	6.569220856174514	10.00870697324947
O	-4.588119488151136	8.913303254000656	11.23417526632377
O	-2.6108850126866923	7.687991428293233	12.339606603978496
O	-5.899096431111069	8.421730683291965	11.139963219717075
O	-6.021460004475025	7.533776501966336	10.069211753344316
O	-1.9520900909404508	6.543044900632621	11.643820656563703
O	-5.903862032090543	3.5838322376152822	16.23470659040335
O	-4.6894993844688795	4.223310500880094	12.423579057844204
O	-5.004887911196967	3.804833870099787	13.804041129307695
O	-4.763723691381987	2.6312063222487097	14.444949865427162
O	-5.060567326443227	5.056937172607304	14.462171113168433
O	-5.354213583830012	2.4629932015411637	15.691596753092973
O	-1.493594136042323	7.014608148027155	10.299584104142863
O	-3.3897953958652978	4.637353875926481	12.232750017202312
O	-5.1303647433905075	-0.41868196573463035	15.927546843589031
O	-3.1046728811502304	5.682909907773099	11.392991074038688
O	-5.632304361522095	4.808203829816039	11.865257126349748
O	-7.2673808081697375	1.0115643651552575	16.698095340466352
O	-5.404102319059571	1.1454643578154604	17.966673643183096
O	-5.7702500459871136	1.0142370378095191	16.537933669560722
O	-7.149384386260243	3.5547284803928862	17.491805354247333
