73

O	-1.5976028551813557	2.8674323759745763	-1.8373146532728815
O	-2.0214382369813557	1.6292980059745763	-1.9544853122728814
O	-1.5972343557813558	0.7694496389745763	-0.8650143777728815
O	-3.0302865379813557	0.9107912749745763	0.05389107172711849
O	-1.3966786189813558	-0.6813662940254237	-0.9606246100728815
O	-2.648507827981356	-1.1962487240254236	-1.4301408302728813
O	-2.7770604679813555	-1.3246187040254236	-2.7559742922728816
O	-3.927819967981356	-1.7524297340254238	-3.3408527022728816
O	-4.892230627981355	-2.370236064025424	-2.6284978322728816
O	-4.536109087981356	-2.5611958240254236	-1.3408238282728815
O	-3.467779437981356	-1.9706853540254237	-0.7344190552728815
O	-3.2894530479813557	1.3611993359745764	-2.4554561422728813
O	-3.996289447981356	0.6285665969745763	-1.5007380372728814
O	-5.505038497981356	0.6838370209745763	-1.3611256332728816
O	-10.264507277981355	10.228197205974576	-0.023012322272881414
O	-7.804109017981356	12.842127645974577	1.0364995977271185
O	-7.329707287981356	10.206644175974576	6.824550857727118
O	-8.945366937981355	-1.0074459340254236	12.078198757727119
O	-7.643964387981356	2.5107188459745764	11.338843057727118
O	1.1254324320186442	2.149137855974576	8.708586877727118
O	2.893899442018644	4.411553205974576	7.850492387727119
O	-8.228701597981356	4.544289235974576	-9.693243792272881
O	-9.079232847981356	7.947160565974576	-8.33786712227288
O	-6.608562117981356	7.914904805974576	-5.5008461622728815
O	-3.296892117981356	7.294633635974576	-7.341666812272882
O	-2.1687980819813557	5.627726395974576	-10.596969822272882
O	-1.2661079469813559	1.9322350859745763	-10.638927872272882
O	1.0753477820186441	0.24924686847457628	-13.137920642272881
O	-0.11553939798135571	-3.4546235640254235	-13.07011634227288
O	1.2330904420186444	-7.2604652740254245	-8.626754572272882
O	1.4521029220186443	-3.4227815740254237	-9.093495132272881
O	3.4236591520186437	-0.2507213560254237	-8.18167981227288
O	2.1037602420186445	3.2825866259745764	-7.503124342272882
O	3.1058148520186437	6.5214183959745755	-5.725831362272881
O	2.0824756020186443	8.964057065974576	-2.9750058922728817
O	3.905330432018644	8.393531905974577	3.902207647727119
O	6.870417302018644	7.050992465974576	5.903715357727118
O	6.9454458620186434	7.620764435974576	-1.9258744322728814
O	6.935163882018643	4.684975505974576	-4.378122532272881
O	5.216178412018644	1.3827034759745764	-3.3008105322728816
O	5.945029122018644	-1.8990759340254235	-5.078808882272882
O	3.1698880820186437	-4.264699544025424	-3.9913430022728815
O	3.828364962018644	-8.032712044025423	-3.6765556822728818
O	1.642823962018644	-10.970070154025423	-2.4064484922728813
O	2.747951372018644	-14.247178654025424	-0.8094427232728815
O	-3.9534242479813555	-11.449002654025424	-3.8594539822728815
O	-4.567968277981356	-9.631630314025424	2.3192396077271185
O	-6.333463387981356	-11.703511954025425	4.944133347727118
O	-3.0269265779813557	-13.028660354025424	6.391128707727119
O	0.24390983201864413	-11.936080054025425	3.1213591377271186
O	1.9412795420186442	-8.921008984025423	1.5628299377271184
O	5.372971582018644	-7.438789624025424	1.1478046177271186
O	5.583108932018644	-3.7564235240254233	0.1324454377271186
O	8.921599792018645	-2.1795087740254235	-0.8819439001728815
O	8.778883992018645	1.5995624059745763	-0.16951812227288143
O	11.229231092018646	3.9330383459745764	-1.9249588622728813
O	-0.6744396589813558	-2.4223774940254237	7.1192335177271175
O	-2.076624818981356	-1.1314323840254237	3.858149217727118
O	-2.0115252379813557	2.7188028959745765	3.991473947727118
O	-5.372534357981356	3.1150285259745765	2.3429366177271183
O	-8.747422947981356	1.5745338359745764	3.3519544577271185
O	-9.308814777981356	-1.2334557240254236	4.0952064677271185
O	-6.085244637981356	-0.7205543140254236	6.127776967727119
O	-5.659015757981356	-4.459124484025424	6.754837377727118
O	-2.6869606579813556	-5.447636954025424	8.821239607727119
O	-1.089491379981356	-7.810188194025423	6.422647417727118
O	2.0941600120186443	-6.107760874025424	5.338914947727118
O	7.1391105820186445	-3.209929944025424	5.076775887727118
O	10.504492692018644	-2.9809564140254237	3.4158071377271186
O	11.607467692018645	0.6759250729745763	3.3738863977271185
O	-2.6718385579813555	11.394274745974576	-1.3491743292728815
O	-0.5243101799813558	10.421347645974576	1.6982228877271184
O	-1.5768975180813558	9.185688165974575	5.147819287727119
