13

O	-3.454988418122564	5.192367731457916	14.295219968677848
O	-4.411452113090275	5.258899994455386	15.204882156734156
O	-5.108754885064469	4.155582972288173	15.583676172355105
O	-4.692814203473395	3.0143067874936245	15.063642918211343
O	-3.402499471938392	2.9736208849662233	14.631495802499149
O	-3.0531201680618802	4.029130401326815	13.78812974613775
O	-5.446419922518863	1.7235175064442905	15.002400900053116
O	-4.541079404625382	0.7522942455162207	14.415225879384185
O	-3.9426627402388497	1.2528057666574017	13.361884519061867
O	-3.963601247512204	1.0403861632351883	15.664357530155787
O	-4.988892935460012	0.7059749566067733	16.55735652926807
O	-5.595042150375203	-0.16611041208995547	17.189929020801426
O	-5.714658260728937	1.8102321434171098	16.321855619029403
