77

O	-2.3859987500450974	1.445570107764706	1.7508591916862746
O	-1.7356019200450976	1.163867027764706	0.5449015626862745
O	-2.2011351600450975	0.16934986526470608	-0.3147492213137255
O	-3.0888929700450976	-0.6837185202352939	0.24048235568627463
O	-3.2661323100450974	-0.5672935342352939	1.5715739876862747
O	-3.2380142900450974	0.5429563087647061	2.4313866586862747
O	-1.5623680800450976	-0.29750158523529396	-1.8542401413137255
O	-0.9148084380450976	-1.6139398922352939	-2.0164636813137253
O	-0.4167936440450976	0.5282821617647061	-2.2978898313137255
O	-2.7093714700450975	-0.30457669123529396	-3.161343761313726
O	-4.458773120045098	1.123841737764706	2.9255931786862748
O	-5.275300050045098	0.908572710764706	3.9250514186862744
O	-6.529556540045098	0.7065671907647061	3.3524235886862748
O	-6.246292630045098	-1.2596722922352939	5.556710518686275
O	-6.419195600045098	1.3658188077647062	2.1653851786862743
O	-5.018705300045098	-1.5427311222352937	6.267692218686275
O	-5.175472970045098	1.894121457764706	2.1426972086862746
O	-5.301750880045098	-1.2752860722352939	7.683323508686275
O	-6.640401700045098	-0.644147423235294	7.7509932486862745
O	-7.185075910045098	-0.5703772392352939	6.393245018686274
O	-4.917870330045098	1.2044607477647062	5.246799388686275
O	-6.057342620045098	1.851922437764706	6.0463881086862745
O	-5.702871960045098	1.7371084577647062	7.460067668686275
O	-4.352847740045098	1.162950787764706	7.5760954286862745
O	-3.9630127800450974	0.867398120764706	6.191947858686275
O	-6.995901960045098	0.755043606764706	6.689265558686275
O	-14.863825110045099	-3.9385199122352934	-3.9479039113137255
O	-3.8968019700450975	-14.321058802235294	3.006029998686275
O	-5.308310570045098	-13.536158002235293	-0.45970548131372535
O	0.6778560299549024	-8.615405632235293	-5.260112291313725
O	0.3645983209549024	-7.505673562235295	-8.022607481313726
O	-12.495364610045097	6.446490037764706	0.30479227068627457
O	-14.807748610045097	4.580738657764706	-2.0237673613137255
O	-12.149927610045099	2.4665161277647063	-3.6658296413137257
O	-9.787782360045098	5.191847317764705	-4.925750161313726
O	-8.755391150045098	8.743160337764706	-3.9448667813137255
O	-5.821951970045098	9.310536547764707	-1.5981676513137253
O	-3.6659552800450976	12.460420197764707	-1.5364492413137256
O	-2.1492448400450974	12.458267997764706	2.027504551686275
O	2.4650878899549022	8.908732897764706	3.6511382586862746
O	-0.10166548774509761	8.947020167764707	0.7336799286862745
O	-0.3991814180450976	8.305310327764706	-3.0650940713137254
O	-3.4106787900450977	6.921994777764706	-4.978258351313725
O	-4.183076200045098	5.355495487764705	-8.368626451313727
O	0.1191215019549024	5.219966507764706	-9.474830851313726
O	1.1720363999549024	3.994515787764706	-5.958289231313726
O	3.3366400399549025	6.187857427764706	-3.7113303413137255
O	3.0571730899549023	4.611521837764705	-0.24853096131372543
O	6.067483719954902	4.801330607764705	2.1810487986862745
O	6.580406189954902	3.238558867764706	5.7187237486862745
O	9.805681579954902	2.1874842177647063	7.422606808686275
O	2.1807291299549023	3.2280252977647064	9.651658378686275
O	0.07683554095490239	0.8472559537647061	11.751368148686273
O	4.901938769954902	-0.8985872512352939	9.765759798686274
O	2.1192991999549022	-2.974239592235294	8.027733548686275
O	2.7873380699549024	-5.784942152235295	10.499719798686273
O	6.436033559954902	-6.264010782235294	9.354627128686275
O	7.395306729954902	-2.383718712235294	6.795252468686275
O	6.434194039954902	-0.684328946235294	3.5434073786862745
O	7.9580189199549025	0.46257129576470607	0.29837963168627457
O	5.493743689954902	1.2066379977647061	-2.5618965413137254
O	6.757620899954902	2.920590217764706	-5.772466081313725
O	4.434336409954902	1.8818363077647062	-8.657441011313725
O	1.7825320599549024	-7.219366832235294	-0.43490124131372543
O	-0.9160502480450976	-4.600418792235295	-0.17237516131372543
O	-3.1201396800450976	-4.879281982235295	-3.3319278313137253
O	-6.299883180045098	-4.289504002235295	-1.4294415413137256
O	-7.644207570045098	-6.0654564822352945	1.7034714226862746
O	-6.166292150045098	-6.745604162235295	4.195851298686275
O	-3.5376105700450977	-7.8263932222352945	1.6965282746862744
O	-0.7613093180450976	-7.9780010022352945	4.305356868686275
O	2.5864949699549022	-9.123190012235293	3.0168897686862746
O	4.583596739954902	-6.1747800522352945	4.103064778686274
O	5.588788809954902	-4.4528355122352945	0.9164414976862746
O	7.534537679954902	-3.1860046722352937	-4.452622671313726
O	9.500903809954902	-0.7526329632352939	-6.567835361313726
O	8.044064899954902	-0.6845701682352939	-10.100006851313726
