26

O	-0.0613121432556456	7.7279743846653215	13.382018563948941
O	-2.669988671372045	6.060518860329967	14.221304918472377
O	-3.097184815654729	10.675395216730292	13.851938590352217
O	-5.918116536141862	0.98117526245341	16.901103744918572
O	-1.0529712953907264	7.045820040321084	12.639495246113544
O	-5.3676577955322635	-0.5228699341164171	16.31466446211493
O	-1.3747337360973555	8.92702565520437	15.614626100319402
O	-1.1559929011956909	7.958588685289541	11.512849450711027
O	-4.017240472430181	8.384703524603037	11.36692677909321
O	-0.21679722549350888	9.465994129535524	13.064871392170147
O	-3.1009537320010034	6.061886248467131	12.15374941977884
O	-1.010048712715137	9.393429888068177	11.866095794498065
O	-7.401963382022355	0.9748322044582158	16.833538381850687
O	-3.24225119818138	9.225478529741395	13.851018641059916
O	-5.736468304895819	1.008334612095707	18.372314765886056
O	-2.2341850723710905	7.937988811517178	15.10318442858958
O	-3.6694365094230945	8.011574890551845	12.690740141038729
O	-2.0971221845400887	5.993036369705849	12.938477179301861
O	-4.088020615600397	6.020435008600002	14.518076052314086
O	-4.594852649129555	4.644068519919196	14.588628090398242
O	-3.6658352143027333	3.789775486396091	15.098609380660633
O	-4.0706498900514685	2.5302724263621355	15.548548205139923
O	-5.331978268679018	2.3516649499403393	16.036547374333722
O	-6.176825117173154	3.3729444234222266	15.723004970148988
O	-5.60957194111199	4.631938709578886	15.539168291026618
O	-1.4523794890841986	8.80608224949553	12.550475948162532
