13

O	-5.254648335749519	-0.3289815264902902	16.309434298450988
O	-5.648461885896139	3.5244039462579986	15.650082889088173
O	-7.239566754509551	1.182383549011817	16.88675563131264
O	-5.022871615990869	2.566927234448439	16.2095025572743
O	-5.672678403931878	1.0806014652231637	18.4322457409414
O	-3.74132995387039	2.8176841920911837	15.656849054291712
O	-2.9171217462498014	4.909198931953993	14.264754547555356
O	-2.9837123190154275	6.2680393184673875	14.22259795757871
O	-4.2659463043433	6.7613576875905	14.378764456819823
O	-5.190620966944013	5.856378109385545	14.80354645353639
O	-4.924256757257953	4.602182172131055	15.336654278096347
O	-3.7204743925078696	4.074682007171573	15.038948976815824
O	-5.730466906183427	1.1838659504841744	16.94774115572395
