13

O	-5.1362594099729195	2.0721023146786237	15.82518864549623
O	-5.249519660363508	-0.63850842949457	16.353937295351912
O	-7.379778864018387	1.0149832718494118	16.59311060475833
O	-5.922797012823809	0.8497003436427542	16.769655790788647
O	-4.539519093351204	4.216875408501069	14.555302642098287
O	-3.669850066255452	3.189715561109564	14.611703945097847
O	-5.79806954926816	1.276807188098481	18.175953231488545
O	-5.946522880411624	3.4810292388688273	15.214408793689046
O	-5.859712179261693	5.8788074716630545	13.212648770133656
O	-3.8610919726863155	2.4429162401827345	15.699055960469808
O	-6.818273460773899	5.772599972679282	14.00939996320463
O	-5.7523335114588505	7.136844096773611	12.450303342722787
O	-4.661210087736064	5.248615808308786	13.602686439237225
