12

O	-4.907718943530348	5.046760654922929	15.300326811287128
O	-5.953173005190183	4.644529728435833	16.079648522928863
O	-5.823555255312969	3.432995053474057	16.734141430543154
O	-5.350385854241242	2.317600675175716	16.043447947087014
O	-4.499679853009344	2.683007779737772	15.080973396967073
O	-4.364399360269228	3.992887973598162	14.623854811334542
O	-5.832948184242793	0.7965410549170296	16.67855714430504
O	-5.52056597874066	0.9075685974670299	18.121988160636388
O	-7.355915771150442	0.862146803629227	16.78797469756475
O	-5.387503548544659	-0.6118810464009163	16.01889096494071
O	-6.843923577766287	3.0505708725303986	17.46593615229694
O	-4.536901514186813	1.7831887074666841	14.085976034235557
