77

O	2.4951550607307698	0.13925502110769283	-0.08600367988076921
O	2.53431213073077	-0.04523472889230695	1.4178885571192308
O	2.3190071407307697	-1.232643758892307	-0.5033001238807693
O	1.3145543107307698	1.279974075107693	-0.5848915008807691
O	4.16893034073077	0.5548897211076929	-0.4062225318807692
O	1.35549550073077	2.441262314107693	0.19455494511923077
O	1.5411538407307699	3.452703411107693	-0.7435746018807692
O	0.45290327073076986	3.7989959711076926	-1.5534819928807693
O	-0.1991943832692301	2.604350281107693	-1.9522334328807691
O	0.27796105073076993	1.389334490107693	-1.4740824128807692
O	-1.78186963526923	2.892720471107693	-2.532734602880769
O	-2.83226663926923	1.8553914491076928	-2.4024618628807692
O	-2.1661038892692304	3.414404051107693	-3.847433722880769
O	-2.46281423926923	4.143488331107693	-1.6501112128807691
O	0.38604077073077003	5.063234651107693	-2.1699758728807694
O	0.40398763073076993	6.031877561107693	-1.3486685328807693
O	-0.59190487826923	5.187850891107693	-3.118517462880769
O	-1.97988486026923	3.3070948011076933	-0.4595137968807692
O	-1.53245435026923	4.386269101107693	0.36602246911923075
O	-2.5736645992692297	5.316838971107693	-0.018747205880769197
O	-3.9218748692692302	4.965568151107693	-0.2302427025807692
O	-5.0126023792692305	5.6524501411076935	0.2171983261192308
O	-4.7847411092692305	6.942746661107694	0.6819633581192308
O	-3.62127988926923	7.498035681107694	0.2215829221192308
O	-2.51882644926923	6.690162601107693	-0.1008790578807692
O	9.38399942073077	12.323618171107693	-0.2781618350807692
O	1.36615721073077	7.233872521107693	13.18312498711923
O	4.88791850073077	6.911583601107693	11.73474698711923
O	6.06392081073077	-1.424703268892307	8.14681460711923
O	8.47188689073077	-2.5138646788923067	6.726796727119231
O	2.73457388073077	9.825349711107693	-9.25096896288077
O	6.00525224073077	11.346076791107693	-8.19880521288077
O	6.93062296073077	8.712917381107692	-5.655148152880769
O	6.81108616073077	5.528787411107693	-7.740112052880769
O	4.9296175907307695	4.306777511107693	-10.82154911288077
O	1.62220401073077	2.513595682107693	-10.397854312880769
O	0.08157174073076989	0.067944521107693	-12.87851771288077
O	-3.70756378926923	0.24334289110769292	-12.06635051288077
O	-6.17585041926923	-2.4677430488923067	-7.326459832880769
O	-2.54763756926923	-1.5584850788923073	-8.36130108288077
O	1.12245383073077	-2.7858283688923065	-8.28513809288077
O	4.28866412073077	-0.6395897388923071	-7.956168122880769
O	7.95076233073077	-1.0032996888923071	-6.963531392880769
O	7.347711090730771	-5.290716188892307	-5.856140772880769
O	4.00747394073077	-4.572988918892307	-4.041929192880769
O	0.7005151907307698	-5.967653608892307	-5.353886882880769
O	-1.98052827126923	-3.968191658892307	-3.519522432880769
O	-5.37777440926923	-5.584106138892307	-2.6797511028807692
O	-8.45776913926923	-4.286646588892307	-0.6764234238807691
O	-11.01537614926923	-6.277772118892307	1.3006188371192309
O	-10.41764320926923	1.167679210107693	-1.3275373628807692
O	-11.09054507926923	4.339088631107693	0.6634765871192307
O	-10.70876819926923	-0.420960318892307	3.350174677119231
O	-7.69909797926923	1.6840358205076928	4.494500787119231
O	-9.61193691926923	2.621763241107693	7.642922297119231
O	-9.82116783926923	-1.0130924988923071	8.85304823711923
O	-8.63200603926923	-3.592090138892307	5.054923657119231
O	-5.64593556926923	-4.302918228892307	2.801957077119231
O	-3.52350827926923	-7.206944858892307	1.7439791271192309
O	-0.16734533926923	-6.511552068892307	0.12072406011923081
O	1.9181861907307698	-9.268843528892306	-1.5549571228807693
O	5.62357428073077	-8.184668908892307	-1.4596878428807691
O	0.98545173073077	-0.6900968988923071	7.570403417119231
O	1.26568114073077	1.3080123081076929	4.373667477119231
O	4.99688338073077	2.101087577107693	3.782295607119231
O	4.28347730073077	5.595347581107693	2.529478417119231
O	2.24268809073077	8.390500741107692	4.160698177119231
O	-0.35399755526923005	8.194005991107693	5.535006177119231
O	1.19306915073077	5.033589051107693	6.938536307119231
O	-2.18582676926923	3.6706569411076932	8.09483210711923
O	-2.06800150926923	0.4033100311076929	9.90976738711923
O	-4.38792775926923	-1.513321318892307	7.729028207119231
O	-2.22029954926923	-4.0392773388923064	5.980550487119231
O	1.66152437073077	-8.186012328892307	4.653756357119231
O	2.33975155073077	-11.292938228892307	2.6092630571192306
O	6.08096101073077	-11.432758128892306	1.8078008171192306
O	10.49886722073077	12.474120571107694	-8.842990122880769
