22

O	-7.486600101900888	0.8678561558009159	17.103211553449178
O	-6.042340952507339	0.7398904115232519	16.95266107578606
O	-5.611027326982558	0.8374550456480181	18.351651359887217
O	-6.265359528473674	3.579842249655581	15.929577447309983
O	-5.4378030623440665	2.076947146312281	16.061227464319177
O	-6.093852469963235	6.075204762571341	12.940225130448319
O	-4.402218424179345	2.1559936762131136	15.187345485622634
O	-5.186095897390355	6.884521671208204	14.960839644043112
O	-4.3443293641221175	3.278446401417124	14.441605507134241
O	-4.586949947357573	4.056982727933409	12.239887032774234
O	-5.189870259848673	4.2974890315265215	14.791315310522943
O	-5.023077224837262	5.82689378085525	13.929862634408288
O	-3.431413003227212	5.8252652604064625	13.422076116251892
O	-2.7046490189263945	4.612846416427342	13.408557791591722
O	-3.6524445932525156	3.4836941204897647	13.124178529020075
O	-2.952599381971835	6.738548425422798	12.46070694323485
O	-2.11275541779848	7.631302176417285	13.323453567524805
O	-0.7655592240770872	7.791176338024735	13.432302742865929
O	-0.43235953685053996	9.142759703871484	13.504384693359562
O	-1.1981653770130016	9.808873824272087	14.454192220782636
O	-2.692768796386321	9.020157283894207	14.101849513959271
O	-5.47008788226429	-0.6824319687123106	16.25077359943227
