9

O	-5.395253561717953	-0.7485684098722372	16.26414501121609
O	-7.335200249753064	0.7667196093221574	17.0415396747624
O	-5.634943236458499	3.643153323314196	16.27975014568766
O	-5.2454683145860646	2.024154462297971	16.214781168029337
O	-5.551463280808351	0.6906621644717927	18.431808297777827
O	-4.835837567524412	2.0463195694084098	14.914960155963975
O	-4.109029759693146	3.1350747312902096	14.540123755919057
O	-4.506410539758267	4.289807679486669	15.140765636485442
O	-5.861290293229237	0.6596355459825332	17.015690170418846
