28

O	-3.9673880857640214	2.8574666427083555	14.05760433927643
O	-3.6729051953946836	1.6973362639914242	14.672422477013894
O	-4.408867667060689	1.150482449409986	15.649337848550093
O	-5.322439065846252	1.8481807215161967	16.3185072599031
O	-5.325993265971013	3.119026926617887	15.940289788341097
O	-4.655290661202511	3.6954741214032047	14.955687702724088
O	-6.275793137199215	0.9053354527859501	17.327223202987184
O	-7.667618756975773	1.0929587231250872	17.05035236364588
O	-6.031062323507034	1.2349918111843494	18.719001530374452
O	-5.917474970765739	-0.8135316433075457	17.163474881596787
O	-4.669289889715482	2.9642249775286857	12.396014457668159
O	-3.747061067553659	5.354589689171257	13.59812815859169
O	-3.433099075904111	2.7725375849316025	11.437659549454981
O	-6.063139822063541	2.710587815110357	12.773215350594182
O	-5.387019570359421	4.3162434506266045	12.162355160083028
O	-3.3847663990923023	3.8736524809441932	10.368660558656554
O	-4.9013302467813595	4.943543200137626	14.251724733300287
O	-4.71711400478274	4.084707816991364	10.138483835912513
O	-3.297941776663758	6.468258249977968	14.267541265586747
O	-4.001714356339505	7.694304258779723	13.840061331496855
O	-4.879566801035588	7.28635877230682	12.723852369933445
O	-3.8996006152611646	6.788829129416154	11.717194731957889
O	-2.5215191706135474	6.669526711273587	12.08687789830838
O	-1.7745839333740925	5.503468402070032	12.512725156561318
O	-2.4809540532428906	4.583343703301056	13.5342374698149
O	-4.457984720673313	-0.2175112324525954	15.513194345264086
O	-3.1572588730543085	0.8603200233007195	13.674737801613677
O	-6.377629224575203	3.8603002627358105	16.085697696152994
