72

O	-3.7207289610016665	0.1682208974833336	-0.6239443582833337
O	-4.983999211001667	-0.32748723851666645	-0.3167753542833337
O	-5.087675151001666	-1.5892568475166664	0.15096623571666629
O	-4.0022067210016665	-2.3994920475166666	0.14437882371666627
O	-2.7391018110016665	-1.9321375175166664	-0.05903184203333371
O	-2.6292713020016665	-0.6792815575166664	-0.5993358172833337
O	-3.389959931001666	1.5380932424833336	-0.9335848812833337
O	-4.093114061001666	2.5593290824833335	-1.0395259212833337
O	-1.9893892390016663	1.7929174024833336	-1.0805648362833338
O	-1.2840188970016664	0.40244512168333363	-0.4786579082833337
O	-1.3218742790016664	0.7214205324833336	0.9574618737166662
O	0.045911668998333655	0.2106992874833336	-0.8841684812833337
O	-11.655821511001665	9.834684872483335	-4.389216456283334
O	-9.260445481001668	12.711589082483334	-4.326724476283334
O	2.094122568998334	1.8343897424833335	-11.748481426283334
O	2.9416047789983333	3.3500285324833334	-8.390566856283334
O	4.010267538998334	5.659005142483333	-6.810069836283334
O	-10.117441781001666	7.375907732483333	1.9258722037166662
O	-7.711688101001666	6.9439386224833335	4.864360753716666
O	-7.731646401001666	5.189020782483333	8.249543723716666
O	-6.551546141001666	1.5932242024833336	8.505708363716666
O	-5.1989764210016665	-0.06668890251666637	11.662250973716667
O	-5.913335051001666	-3.830661227516666	10.992771673716666
O	-4.124998421001667	-6.804533487516666	12.416907373716667
O	-4.911570931001666	-10.445355417516666	12.948612473716667
O	4.611551178998334	-11.870159717516666	4.000417833716666
O	2.0108952489983336	-11.347568517516665	6.739754813716666
O	1.1239804489983336	-7.841254637516667	7.9841849737166655
O	-2.5863184190016666	-7.183489437516666	7.315376803716666
O	-2.9774035610016663	-3.3863820775166666	7.910503193716666
O	-1.0968770140016664	-0.016508465516666404	7.999260413716666
O	-2.4355057410016663	3.4152411724833334	6.904063243716666
O	-1.1347953300016664	6.820981822483334	5.829766093716666
O	-1.3071997980016663	9.318264252483335	2.9779481237166663
O	3.066235388998334	9.428080772483334	-2.6528430562833334
O	6.682828618998333	8.456110722483334	-3.4078961262833336
O	3.7070828589983336	8.460470212483335	3.8295345937166663
O	3.116205838998334	5.420506512483334	6.044922933716666
O	2.3423109989983333	2.0888599724833337	4.340906393716666
O	2.5835644389983337	-1.2697233075166665	6.067589033716666
O	0.6954916289983335	-3.7728108175166666	3.9258546437166664
O	1.7989607489983337	-7.450095427516667	3.7561501537166664
O	0.49322933899833377	-10.420265517516665	1.6302490037166661
O	-3.6293645410016664	-9.177055117516666	-5.003333776283334
O	4.461532098998334	-11.113408717516666	-6.190218576283334
O	1.3342958989983336	-11.095735817516665	-4.034792626283334
O	2.0718899789983336	-8.089645247516666	-1.8449357862833338
O	4.9911743189983335	-6.422760267516667	-0.1031983256833337
O	4.393146098998334	-2.7828481975166666	1.0449611937166663
O	6.944030508998334	-1.0279913175166664	3.3129686637166667
O	6.7009569889983345	2.7712567024833334	2.7250482837166663
O	8.095714458998334	5.167073822483333	5.380663763716666
O	4.776711618998334	-1.5808423875166664	-8.672653376283334
O	1.1258681589983337	-1.4537881875166665	-7.822960836283334
O	-1.5054154210016664	-0.4470472825166664	-5.250352386283334
O	-1.7909977890016664	3.3792395624833333	-5.205611896283334
O	-5.540167501001666	3.3480064424833333	-4.888299016283334
O	-8.127776131001667	1.6570671824833336	-7.1382321162833335
O	-8.097856831001668	-1.1276627875166665	-8.090274056283334
O	-4.424146341001666	-0.2183952885166664	-8.828890606283334
O	-3.4593766010016664	-3.8643742675166664	-9.326237216283333
O	0.1566878789983337	-4.504431107516666	-10.192420726283334
O	0.9285332389983338	-6.861548687516667	-7.408537716283334
O	3.3267605089983334	-5.012353027516666	-5.170654656283334
O	6.977009788998333	-5.228812577516666	-4.424726766283334
O	7.611385898998333	-1.7659041975166665	-2.9061189562833336
O	10.099160238998333	-1.4045430575166664	-0.0908611788833337
O	10.769511738998332	2.3076955324833337	0.5223563477166663
O	-5.290695941001666	11.520313282483334	-0.2164942612833337
O	-2.0745552200016664	10.897294582483335	-2.2357898862833334
O	-1.6078651869016665	9.857666672483335	-5.859812046283334
O	4.2210865589983335	10.078726562483334	-9.177303016283334
