13

O	-5.052533996518051	2.1309784034983013	16.21493995412255
O	-5.228280431729949	-0.6119628893961493	16.597170798357286
O	-7.314490333748097	1.0571937071756499	16.863482023886217
O	-5.865423421729172	0.8644535351675913	17.06381936913455
O	-4.429302406348592	4.350218695858946	15.09388918877014
O	-3.5362919205593473	3.3675615899238243	15.17447839307279
O	-5.8579400357859	1.1978355003282855	18.49031958341461
O	-5.81623000186654	3.6283355504762116	15.792355214940471
O	-5.463228779790672	6.445127691682318	14.385925704769154
O	-3.76536182532124	2.459488675275172	16.084764952441336
O	-6.355776995228312	6.228351537772477	15.221354101479779
O	-5.738511544852634	7.374309099789404	13.283961983651459
O	-4.521459050815655	5.424460564952701	14.1909675915911
