74

O	1.7146099262608698	2.604889201373912	1.1419406027173922
O	0.3405994432608699	3.466935605373912	-0.345004853282608
O	-0.03002263873913008	1.971058447273912	-0.46238203728260796
O	0.09498036356086992	1.112202986373912	0.734295514717392
O	1.61334008626087	1.194535012373912	0.7814633277173919
O	4.51549079626087	7.407441565373912	-2.619638797282608
O	5.66099865626087	8.319690135373913	-2.3131406372826078
O	1.68445652626087	3.378083915373912	0.01683091971739198
O	-0.8684170267391301	-0.35766075462608793	4.003085322717392
O	2.68435393626087	1.018325045373912	-1.140173636282608
O	1.49233107626087	2.503371111373912	-2.5303049872826078
O	-0.27537663573913007	1.400603705373912	2.0002297827173923
O	-2.44953237373913	-0.21245554462608807	1.989707242717392
O	-0.2700333627391301	-1.2776902846260878	1.651172062717392
O	4.87085583626087	6.249278445373912	-2.9668648572826077
O	2.3177834662608703	2.400739008373912	-1.2952767472826079
O	-0.98195632373913	-0.2968506446260881	2.584865322717392
O	3.64090902626087	3.4731941553739123	-1.327028727282608
O	4.36759079626087	4.006928115373912	-0.144837249782608
O	4.42261138626087	2.820045775373912	0.697449669717392
O	3.61701953626087	4.7178307053739115	0.9346813927173919
O	3.25823202626087	4.371000095373912	2.140679812717392
O	3.09262848626087	5.904665265373912	0.24158783571739198
O	4.36804291626087	6.459353725373912	-0.029674971282608015
O	2.45766936626087	5.302532725373911	-0.954838352282608
O	3.06116731626087	4.556972495373913	-1.867816817282608
O	2.35189726626087	6.620878675373913	-1.804478167282608
O	3.47426199626087	7.4268487353739125	-1.686744387282608
O	-0.5396455867391301	11.672869645373911	10.347932092717391
O	0.3925124022608699	8.655831435373912	12.323479192717391
O	-11.05829735373913	8.625772225373913	4.429420782717392
O	-10.15017735373913	-0.4621343746260882	3.589309002717392
O	-9.65671112373913	-2.4683001446260877	5.757591162717391
O	9.61156847626087	5.132069055373912	6.697792462717391
O	8.32692753626087	6.055567755373913	10.102440392717392
O	5.06691100626087	4.200695955373912	9.807728592717393
O	6.26307136626087	0.624034325373912	9.137988802717391
O	9.28767365626087	-0.962813534626088	7.452483702717392
O	9.270584786260871	-1.7710747046260882	3.785831412717392
O	11.33429934626087	-4.384598344626088	1.9891513027173922
O	11.59290394626087	-3.0054622146260876	-1.636086377282608
O	7.10274470626087	-3.370937164626088	-5.581593577282608
O	7.40612900626087	-3.840993784626088	-1.7503803472826078
O	6.05318813626087	-5.7789386746260885	1.322324892717392
O	5.48332856626087	-4.501948924626088	4.919683992717392
O	3.56030610626087	-5.430780584626088	8.08211002271739
O	1.5496904062608698	-8.806294314626088	5.964928122717391
O	0.8982104952608699	-6.754674774626089	2.763194572717392
O	2.59113098626087	-7.615211804626089	-0.550599694282608
O	2.10053012626087	-4.5537952146260885	-2.758413847282608
O	1.7844911262608698	-4.848836174626088	-6.5450595872826085
O	1.02566239426087	-2.3161205546260883	-9.361301197282609
O	-0.6784958617391301	-2.936642474626088	-12.725945907282608
O	3.51532724626087	2.937455230373912	-9.355037797282609
O	2.66120081626087	6.637950245373911	-9.211776417282609
O	-1.1597148237391302	3.009840656373912	-10.983976407282608
O	-2.4843686737391297	4.556374985373912	-7.710387587282608
O	-4.61564905373913	6.913918425373913	-9.693411857282609
O	-4.084958423739129	0.1492920153739119	-10.299206907282608
O	-2.95226918373913	-1.964475084626088	-7.353089867282608
O	-3.28124136373913	-5.558836314626088	-6.165149747282609
O	-2.41125617373913	-6.173466644626089	-2.470912757282608
O	-2.85446181373913	-9.599492014626088	2.717838272717392
O	-8.18662989373913	1.242161788373912	-0.8651248362826081
O	-4.87219743373913	1.947199191173912	0.595376443717392
O	-4.90944638373913	1.7106170173739121	4.412242332717391
O	-2.68364506373913	4.667890315373912	5.004371942717392
O	-2.89388551373913	8.201861765373913	3.6030521027173923
O	-3.55556108373913	9.059365885373913	0.8796194027173919
O	-6.18687609373913	6.290968205373913	1.183180612717392
O	-6.84944354373913	6.177688525373911	-2.585805437282608
O	-7.18110958373913	1.833109281373912	-6.177798547282609
O	-6.79606604373913	-1.609018994626088	-4.653263707282608
O	-6.83628521373913	-11.587687114626089	1.565250792717392
