13

O	-5.0390233268378655	1.9410749255146094	16.194465243048707
O	-5.376463132727842	-0.7586653863858737	16.450612560324537
O	-7.38836368781411	1.0101739717157923	16.73500554021865
O	-5.970992212887268	0.7157216488792106	16.98327667053102
O	-4.1162911617625415	4.053579930404922	15.135772676814856
O	-3.3615362783080904	2.98177299962241	15.224737619057493
O	-5.915974148431523	1.0248025814504163	18.4126632185919
O	-5.622416118767042	3.49304521934534	15.738195941962568
O	-4.8655272161571235	5.972840055704685	13.964270746929593
O	-3.720983215798663	2.114659606509866	16.12874581496142
O	-5.684559102329418	6.195230361921156	14.878423095747227
O	-4.592348768408158	6.944323577031309	12.902911985308965
O	-3.787700517397467	5.14881706619231	14.337051810469996
