23

O	-5.545289393447604	0.9226686256741288	18.232727165838746
O	-5.930764277211632	0.8628040765953342	16.806533768159046
O	-7.3995242999871	0.8897626747182814	16.971131326844056
O	-6.22496074507853	3.5710366524375914	15.70302641199127
O	-5.290414916673953	2.1207087883902	15.81438371613513
O	-6.135897569458696	6.1869872008364	12.843975536466235
O	-4.34005623559825	2.306893635477755	14.869860858902234
O	-5.644910891077807	6.929704298286453	15.043656981615683
O	-4.159900741920984	3.539295965220116	14.3079149753186
O	-5.225270419433437	4.378343799247324	14.636917824080093
O	-5.27410040059204	5.9749975347792255	14.02417808034236
O	-3.5697942302814476	6.244718197110213	13.644664361227893
O	-3.5853386392875555	5.322001006061151	12.551653552562247
O	-3.4114731954917055	3.94392853609593	13.102598206451503
O	-3.502510761443133	7.643626667344878	13.45106980762881
O	-2.76298158119258	8.099211060573689	12.23158354977975
O	-1.639366568490149	8.85817934392411	12.508070964601448
O	-2.009852280270274	9.86220594109287	13.385386326967218
O	-1.5332950777771792	11.182679510839574	12.84572743000022
O	-2.005044928023726	3.7741644145842557	13.030855148844989
O	-1.2207737017761637	4.848908933117851	12.49772353586778
O	-0.7488769063637495	5.88113193016182	13.519130233579492
O	-5.448369201598444	-0.6390008118612123	16.19297973674642
