74

O	1.353770531870968	-1.2255215449193542	1.5573018723709677
O	1.4487373718709677	-0.9878387469193542	2.9168584723709676
O	0.3348990318709679	-0.6667182779193542	3.566074142370968
O	0.24771402187096792	-0.3501563423193542	0.8390445953709676
O	1.4571063118709677	-2.616460581919354	1.0425816093709677
O	1.9804641018709677	-3.5979838519193543	1.7840347423709677
O	2.798022931870968	-2.8964387919193544	2.6827703823709674
O	2.2585319818709677	-1.9718181119193543	3.432154032370968
O	1.8180939318709677	-3.002740891919354	-0.36487802662903235
O	1.644458091870968	-1.9075353619193542	-0.9542840976290323
O	1.292088291870968	-4.220335161919355	-0.5297808216290324
O	3.1536266418709675	-3.393854951919354	-0.5478533396290324
O	6.281415331870967	-2.8251095019193544	14.437784312370967
O	4.562000771870968	0.21059283108064575	15.795559012370967
O	9.038334961870968	7.883646558080645	0.8763298753709676
O	5.369555941870967	7.6093583180806466	1.7489818423709675
O	3.0111066018709676	8.704678338080646	3.2388387723709675
O	3.0351495818709675	12.493563988080645	2.8273452123709677
O	0.6963102518709678	-5.661346981919355	11.418917612370967
O	-2.781207738129032	-5.368946181919354	9.868096152370967
O	-5.317524528129033	-7.743830981919354	8.288010062370967
O	-5.143702828129031	-8.451091051919354	4.551920852370968
O	-8.136650768129032	-9.554687311919354	2.4553473623709676
O	-6.496746548129032	-11.381907211919355	-0.5369443246290323
O	-7.7948774181290315	-11.881551011919354	-4.019412037629032
O	-7.115464748129032	-14.259547111919355	-6.859272097629032
O	-4.579465238129032	-12.377598011919355	-9.093252847629033
O	-2.649847908129032	-3.273429591919354	-12.538400287629033
O	-4.148767158129032	-6.356839191919354	-10.876215887629034
O	-5.725114868129031	-6.150870321919355	-7.394462937629032
O	-3.819229798129032	-8.478429021919355	-5.0522019376290315
O	-5.1121774581290325	-7.466490731919354	-1.5452140476290324
O	-6.572674388129032	-4.625324851919354	0.5735251763709677
O	-5.817954608129032	-3.7236031319193543	4.211331262370968
O	-6.281590078129032	-0.7802672599193542	6.588452642370968
O	-4.322833838129032	1.4976942480806457	8.906561252370967
O	-1.1663353241290322	7.605860168080646	6.955280822370968
O	-1.7441959481290321	10.356209288080645	4.366534342370968
O	-6.9278122281290315	4.623508758080646	5.733695682370968
O	-7.866473748129032	1.8265863880806457	3.3158437423709675
O	-5.151588618129033	0.6196921930806457	0.8248133493709676
O	-6.136571138129032	-1.3764545719193542	-2.2649461876290324
O	-2.958755748129032	-2.8706344319193544	-3.5727641576290323
O	-2.328606028129032	-3.5105206119193544	-7.305811497629032
O	0.7687077218709679	-4.771810731919354	-9.277205537629033
O	8.044488391870967	-4.328185261919355	-6.142789347629032
O	6.226392771870968	1.6905605480806458	-11.666202287629034
O	5.594638701870968	-1.7465309519193541	-10.170871087629033
O	2.653311141870968	-0.9294753899193543	-7.9433696876290325
O	-0.44934050812903215	1.2040342780806457	-7.844961897629032
O	-2.098824018129032	1.7629166580806457	-4.418603157629032
O	-5.572585358129032	3.4142202980806458	-4.156803377629032
O	-5.835893638129033	5.083422288080646	-0.6891023286290323
O	-9.298345268129033	5.898619598080646	0.7245327493709677
O	6.060983781870968	7.125146078080645	-3.4540001876290325
O	6.712079061870968	3.9082733980806457	-1.5784378376290324
O	5.318055931870967	1.0817944180806458	0.5236369223709677
O	4.485193521870968	2.4605437180806455	4.003643872370968
O	5.803841261870968	-0.5232113589193543	5.827943452370968
O	9.212978661870967	-2.260895081919354	5.581528452370968
O	10.671431861870968	-2.9829307819193542	3.1245503623709676
O	9.600953961870967	0.5958338040806458	2.1657125523709677
O	10.529697661870967	0.07570351608064574	-1.4827638576290323
O	9.945809861870968	3.0098120780806457	-3.7632594276290323
O	7.743543161870967	1.3069708480806457	-6.232323957629032
O	4.3538272418709685	2.8959713180806457	-5.783262047629032
O	2.261900771870968	5.285725698080645	-7.738035197629032
O	-0.1635409871290321	6.549446308080645	-5.053886557629032
O	-3.754343458129032	7.309223668080646	-5.973035327629032
O	-5.438410308129033	9.084404628080645	-3.0289071876290325
O	-0.4033500391290321	0.8531189780806459	12.794337112370966
O	0.2137975018709679	4.042143088080646	10.717437112370968
O	3.4708192818709676	5.675375658080645	9.622651702370968
O	7.444476581870967	11.916866688080646	5.387574912370968
