81

O	-2.8468827581277782	2.0927934220555557	1.320310092981482
O	-2.870395789127778	2.613810572055556	0.07241275348148185
O	-1.956730717127778	2.2932048420555557	-0.8366516870185181
O	-1.3972289441277779	1.0481578320555558	-0.8362559600185182
O	-1.677757561127778	0.44051942005555583	0.33769203998148184
O	-2.633774589127778	0.6973626040555558	1.227714582981482
O	-0.21795319312777806	0.8949934080555558	-2.019903527018518
O	-0.15046982312777812	-0.2345630779444442	-2.924456787018518
O	1.1785820268722222	1.100012348055556	-1.6578527270185182
O	-0.3972398131277779	2.220049932055556	-3.2464361770185177
O	-3.415561333127778	2.584619342055556	2.852505952981482
O	-4.724271993127778	0.3957506330555558	2.0821948529814818
O	-5.585944963127778	-0.4800401079444442	2.882125802981482
O	-6.023917633127779	-0.15085506294444417	4.1358479229814815
O	-5.723819143127778	-1.0337841879444443	5.186398442981481
O	-6.185702003127778	-2.317340477944444	4.882858792981482
O	-5.847055933127778	-2.751918297944444	3.630790662981482
O	-5.330585583127778	-1.8368408079444443	2.714803082981482
O	-5.014683993127778	2.9814823520555556	2.875346572981482
O	-3.293350503127778	1.4794516400555557	3.969013582981482
O	-2.1817906935277778	3.135873592055556	3.370583492981482
O	-5.634828383127778	3.152762052055556	4.223806952981482
O	-4.7124426931277785	2.623630262055556	5.145972642981482
O	-3.3453183131277777	-0.09368778294444413	2.211557952981482
O	-2.3592847441277778	2.705197642055556	-2.076075987018518
O	-3.896015253127778	3.4735636020555556	-0.14912915901851814
O	-1.835953765127778	-0.8777217079444443	0.2916877089814819
O	-11.79714021312778	7.580952082055556	-6.488802047018519
O	-9.466902473127778	3.3031805820555555	-12.134146727018518
O	-9.573691233127779	-8.599645547944444	-8.476215377018518
O	-8.840515943127777	-5.4015354079444435	-10.433175227018518
O	0.06987158687222195	-3.295224107944444	-9.859354197018519
O	1.496529156872222	-0.9022065579444442	-10.980575427018518
O	-8.065938363127778	10.048850642055555	3.995877362981482
O	-9.593276063127778	11.541498062055556	0.8930908499814818
O	-7.392258953127778	9.678776302055555	-1.5587645670185182
O	-3.909506163127778	10.795914682055555	-0.3965877650185181
O	-2.244414357627778	11.782297962055555	2.871493062981482
O	-0.7004264331277781	9.159895212055556	5.0960897929814815
O	2.087858356872222	9.755646802055555	7.6176544629814815
O	1.6030583068722222	6.884727182055556	10.186861172981482
O	4.151190866872222	-0.37816727794444416	14.43841807298148
O	3.2737107068722224	1.2263755870555557	9.085705202981481
O	2.726158136872222	4.367288992055556	6.907088592981482
O	4.034276556872222	6.279487912055556	3.829224552981482
O	1.9937166068722219	8.251417432055556	1.2501263929814819
O	2.4156038068722223	9.691281402055555	-2.251985517018518
O	6.394662656872222	7.749095172055556	-2.746161547018518
O	5.236033186872222	4.430963432055556	-1.1218174970185182
O	6.662438766872222	3.2325946120555558	2.202327552981482
O	4.270416096872222	0.5086298580555558	3.377217622981482
O	5.625031676872222	-2.4516514279444444	5.475740812981481
O	3.828452366872222	-5.6323861779444435	6.808277772981482
O	5.294370726872222	-9.045083457944445	7.542214032981482
O	-1.585623642127778	-5.274591157944444	9.034582482981481
O	-5.108180623127778	-6.585885757944443	8.536877232981482
O	-0.8218942331277779	-9.398254637944445	6.442783552981481
O	-2.924853154127778	-8.098359707944445	3.479099922981482
O	-4.524570123127778	-11.557956437944444	3.240191592981482
O	-1.197279304127778	-13.295629837944444	2.453255772981482
O	2.109800846872222	-10.092244237944445	3.572687062981482
O	3.4796903168722224	-6.7424353379444435	2.4571162229814822
O	6.626791116872222	-5.091835177944444	1.2090236729814818
O	6.234374156872222	-1.636503287944444	-0.45165664701851815
O	9.333992096872223	0.48019170205555584	-1.2851676270185182
O	8.428728996872223	2.8106845620555556	-4.227515647018518
O	10.548446796872224	5.921285822055556	-4.863452437018519
O	-0.788745523127778	-5.780125667944444	-5.384341197018518
O	-2.190796109727778	-2.773096347944444	-3.563636107018518
O	-2.703349792127778	0.02152288205555586	-6.1129025570185185
O	-5.946764263127778	1.1540382110555558	-4.523957377018518
O	-9.044586963127777	-0.8314351379444441	-3.627873897018518
O	-9.173314263127779	-3.447862497944444	-2.311388217018518
O	-6.313155313127778	-4.224592527944444	-4.767348387018519
O	-5.273960853127778	-7.384299727944444	-2.904474967018518
O	-0.158272663127778	-9.335162437944446	-1.3201061470185183
O	2.7862687168722218	-7.142901857944444	-2.196491187018518
O	7.2567075868722215	-4.390262017944444	-4.756816097018518
O	10.671525596872222	-2.8446194379444445	-4.273602097018518
O	11.089335496872224	0.014042751055555858	-6.782078787018518
O	-10.38962427312778	14.963313362055555	-2.202629557018518
