28

O	-4.242471539552866	3.4290635260500073	13.603743148857301
O	-3.895891080168777	2.1897553519653226	14.009239892251317
O	-4.842207876783583	1.495077447305251	14.718292236426176
O	-5.32864863482013	2.0740628294375933	15.844596851171774
O	-5.498534557217875	3.372157046348386	15.54221805894828
O	-4.823604877197249	4.094311964603775	14.684755544623467
O	-6.068565264683312	1.0382174813251943	16.943007759347665
O	-5.810036613751359	1.089443541803293	18.362573489855055
O	-7.519012293779033	0.9763148183908963	16.92113707303751
O	-5.640619546264086	-0.6633379947140514	16.555283173971667
O	-4.098319695937455	4.298800984471496	12.168078229851897
O	-3.488428636284419	5.947802969453116	14.305188840154843
O	-2.550978612012921	4.66548639580585	11.90101096097655
O	-4.619179224075195	5.769165357034137	12.013426927375527
O	-5.490453467034506	4.263477144386844	11.742666571646321
O	-2.1187866860907603	5.742260718898233	10.903259468736612
O	-4.833745625422184	5.5238950901522585	14.293770483791748
O	-3.1466790496307757	6.683490771990786	10.711960670217184
O	-3.7473041373820855	6.275686680539236	15.787131585656011
O	-4.129603507137329	7.689307680431842	15.576338911311579
O	-5.080680013911543	7.80440241325206	14.447013056284668
O	-4.306018047241479	8.534230695492763	13.414334275277469
O	-2.9877819230213056	8.986018773217975	13.879392045221843
O	-2.0107021501590827	7.951110445108927	13.438865995422718
O	-2.4046973221247248	6.723293325104564	14.085414004186923
O	-4.481466470261717	0.24900537974956238	14.778959337092225
O	-2.8946441159544616	1.6751518646709112	13.282289789497833
O	-5.535655800386737	4.23208015669844	16.53201368593995
