74

O	-2.6034175226225806	3.7669184533709674	-1.9791602061290328
O	-1.3837317836225806	3.2487842133709677	-1.6535686661290327
O	-1.2902034176225805	1.8730313033709676	-1.5461704761290327
O	-2.2596586396225806	1.1642321653709675	-0.8370782791290329
O	-3.4436967466225807	1.7773633433709675	-0.9126046451290328
O	-3.6089455166225806	3.0901368433709675	-1.3511966161290327
O	-1.7507705295225806	-0.3476629406290325	-0.2006361820290328
O	-1.1066604006225806	-1.0124711566290325	-1.3567309161290326
O	-0.4847732766225805	-0.0497311446290325	0.6019809038709671
O	-2.7281625266225804	-1.3161312966290324	0.6502499058709672
O	-0.11548082662258063	1.3899548633709675	-1.2151307961290327
O	-4.1624371366225805	1.4987105033709676	0.1859600608709672
O	-15.032188246622582	-3.7784016866290324	-0.3651135571290328
O	-14.208087446622581	-7.102107116629033	1.1488454838709672
O	-11.436985996622582	-9.028490936629032	-4.253165226129033
O	-0.37286022662258045	-7.123923616629033	-9.376624146129032
O	0.1842394933774194	-7.272725986629032	-5.638673476129033
O	0.3157940933774195	-8.910820566629033	-3.127668646129033
O	-11.68395631662258	0.0914785543709675	4.339590533870967
O	-8.940462706622581	0.5622484233709675	6.969682383870967
O	-7.68864737662258	3.3663138733709674	9.264665243870969
O	-4.99908918662258	5.729461453370967	7.953421833870967
O	-2.5928206276225807	7.7223468733709675	10.123613453870968
O	-1.6235388462225806	10.701242793370968	7.817883293870967
O	1.5040402733774196	12.776738193370967	7.9288721938709665
O	2.5243772033774197	16.193747593370965	6.727409033870967
O	4.230753213377419	15.535246293370967	3.324850763870967
O	10.29206695337742	9.045787993370968	-1.1365644111290327
O	5.964845163377419	9.244608133370967	3.925904413870967
O	2.31158439337742	10.200956673370968	3.326398623870967
O	0.34151044337741965	7.692216573370968	5.515022193870967
O	0.44494082337741947	4.216127823370967	7.174347183870967
O	-2.4224266856225807	1.7140051633709676	7.636928873870967
O	-2.9561265166225805	-1.9931958866290325	8.283146403870967
O	-4.63067331662258	-5.079944426629033	6.839433283870967
O	-1.6284547006225805	-9.599482406629033	2.190828103870967
O	1.8906151833774194	-10.848274606629033	1.3810960838709674
O	0.29785007337741964	-6.388782736629032	7.629357883870967
O	1.4431430233774196	-2.7898124166290326	8.179406573870969
O	1.9644573233774194	-0.5673461036290326	5.086451833870967
O	3.9880021733774194	2.6490977733709675	5.222938713870967
O	3.17160783337742	4.568525533370967	2.076488163870967
O	5.77187583337742	6.844841013370967	0.37045744687096716
O	5.679507873377419	8.858499923370967	-2.9513619561290327
O	0.5037048433774194	6.977217783370968	-8.683199736129032
O	8.318410853377419	4.202277933370968	-9.926388756129032
O	5.874520703377419	6.571825533370967	-8.254350926129032
O	5.49045723337742	4.835234423370967	-4.913677006129033
O	7.459701463377419	2.9071508833709676	-2.370055506129033
O	5.566422263377419	0.8400296973709676	0.2227963678709672
O	7.330350453377418	-0.7351232566290324	3.219020093870967
O	5.311540243377419	-3.814285796629033	4.342727443870967
O	5.85563111337742	-5.188219666629032	7.891726993870967
O	3.9981107333774193	-4.4233532266290325	-7.961971096129033
O	0.8207736133774195	-2.4461065166290323	-7.365258176129033
O	-1.5851155526225806	-0.8955966666290325	-4.867697836129033
O	-3.5422106666225806	-3.6817255966290325	-3.117478596129033
O	-6.802671746622581	-1.8157576966290323	-3.193626236129033
O	-8.65570093662258	-0.25358246962903247	-6.154396406129033
O	-7.51531739662258	1.4716358833709675	-8.250872756129032
O	-4.778012166622581	-1.2349933066290324	-8.171859136129033
O	-2.3619092666225807	0.9254646813709675	-10.155816706129032
O	0.9810740633774193	-0.6333176776290326	-10.917950046129032
O	3.1237414533774195	2.0277251733709676	-9.433229216129032
O	4.715040983377419	0.42982326237096746	-6.4146146161290325
O	8.14223499337742	-0.7742999966290325	-5.546576246129033
O	7.374151943377418	-3.1256154666290326	-2.612485556129033
O	9.821663153377418	-3.3571850366290326	0.26620540287096717
O	8.81228265337742	-6.286855406629033	2.511368463870967
O	-9.59220415662258	-6.298327586629032	4.626408573870967
O	-6.7611478166225805	-8.161126486629032	2.798662423870967
O	-6.39711971662258	-9.099352246629033	-0.8637659161290329
O	-1.8400895326225806	-13.430205106629032	-3.256639416129033
O	-1.7732069804225805	-12.763538206629033	-7.034874456129033
