19

O	-4.746372824324065	3.711305364807244	14.543187743743914
O	-3.70388523557918	2.849546745114192	14.881044732886965
O	-4.25512102583727	1.7304456671899258	15.498496225680338
O	-5.425831443691271	1.8677194004959148	16.158576662384853
O	-5.886954452043244	3.1065109064232286	16.32018448178665
O	-5.4587385053597615	4.167759353507787	15.578446304315372
O	-5.558133220950219	-0.8387062641226257	16.370872768888
O	-7.528746492569898	0.8553030298511621	17.184255666356048
O	-5.677879894211714	0.8097131803234459	18.493400724182145
O	-4.550846925341313	4.250292120714626	13.31801651325548
O	-4.453608376584627	5.536188246371314	13.429039411356248
O	-3.5881045557887212	5.646818972297488	14.530847868194257
O	-2.226151904167954	5.348009198827622	14.117612957263653
O	-1.188290184137574	6.237679598183201	13.762761470275647
O	-1.1874144550718793	7.4017135269169945	14.475868444390198
O	-2.415602456167197	7.965668364257388	14.581088344118182
O	-3.4890138781902627	7.068838482586835	14.698765440848979
O	-6.079743144670476	0.5952074647160326	17.099998377876084
O	-0.09282245369746978	8.271764652892621	14.283508381188376
