30

O	1.3111015756566013	9.98080155007456	14.503040195797254
O	-6.248484852554091	4.017974264197647	13.991376369053834
O	-0.22701666560513267	6.723286982530164	12.458637379351455
O	-1.2189675676458118	7.801360934500946	14.787206226529065
O	-0.14281507279036276	10.010368222068958	14.119301405997788
O	-0.48371561736099355	4.584848335565357	13.366402155654669
O	-3.4657961036710447	2.576636449583671	13.415212865517956
O	-1.8534960274083843	4.532762921886805	12.850059606143448
O	-4.1043185150351045	3.600694201010083	12.458463230908883
O	-3.9760614068162488	6.4934388324701215	14.97356070611185
O	-4.845678032985366	5.3146398917164275	15.490489095618395
O	-0.6836984823408754	8.640912133167086	13.850493662908304
O	-0.3819972201429289	6.022565921891464	13.668453817034615
O	-0.33570760802661503	8.108606811968292	12.61048437581245
O	-1.4729790026118494	6.523371470174934	14.401673396173901
O	-4.069733499146967	2.974901257503973	14.71755711125515
O	-2.673866144267623	5.86868470400252	14.80517421826575
O	-2.7868366473016453	4.785914802321196	13.887417922990014
O	-1.3361635821358577	6.54775499283406	10.490888616036255
O	-4.690534803540511	0.4684444478799277	14.608762807362375
O	-2.3864867340747438	8.844107897719729	10.148338309760977
O	-3.0905695250058027	7.8028243263710575	12.24128141626987
O	-5.262067715566569	0.14832799351572978	16.912147430770528
O	-6.0845394929921035	2.309441158991407	16.110911638881092
O	-0.6832053076037292	8.835837722845053	11.552302042057654
O	-3.733839377845395	2.3725645969736084	15.868865629271404
O	-4.173005890879796	4.776552899419009	13.322552439629348
O	-4.894376964272116	4.1661924925292	14.556310371801212
O	-2.912636069189212	7.180269892937916	11.721453770700563
O	-5.572821895789117	1.6528821245261263	16.354114864094587
