18

O	0.03784065356161381	11.27837407564374	14.298461300836635
O	-5.655927016488753	1.522690562540355	16.419479301005588
O	-5.387570632552816	1.3543987900523207	17.871143689503246
O	-7.124453268943318	1.6606257281983523	16.569959471713116
O	-5.393516397255962	-0.10272669269830148	15.830361808996278
O	-4.937582938709943	2.6456335627588263	15.464808768538926
O	-5.230262791876459	3.948723216586478	15.814752193997016
O	-4.175846887833082	5.231695898661705	15.248844949368005
O	-4.78021914013044	4.924687626904987	13.868336979835892
O	-3.7887316067991743	3.4544546508667158	14.370659534011368
O	-4.046618738238989	6.340506716696371	13.063423530009388
O	-2.296198397371815	5.975362090079069	13.207123487238992
O	-1.699936386258405	7.283025360032785	13.511807882752144
O	-1.6486559477423226	8.199967292933431	12.50637424303563
O	-0.9930460277043203	9.377343901344375	12.72520068726892
O	-0.73461606072933	9.751270846356736	14.009844536691013
O	-1.4319782066556979	9.075705133849638	14.969767138955879
O	-2.0772749910507295	7.866480412681219	14.688800125120085
