72

O	-1.4897127899152545	4.5149233805627125	0.07754598028135647
O	-0.6825289359152544	3.5613647605627126	0.13189056488135645
O	-1.1491623599152543	2.3341444805627125	-0.36846902611864357
O	0.4943374150847457	3.4648358305627127	0.9258450708813565
O	1.1665105250847458	4.576016230562712	1.4391559658813564
O	2.4522326050847454	4.314800430562713	1.7790497858813565
O	3.2323898450847457	3.2390670605627125	1.5115866858813565
O	4.429341135084746	3.612369720562712	0.8930997878813565
O	2.5707606450847456	2.2273758205627123	0.8071198638813565
O	1.2947751850847455	2.492972050562712	0.31393698288135646
O	0.1332830350847456	1.3105301075627123	-0.15691664811864356
O	-0.13467765691525435	0.7432450045627123	1.1752347058813566
O	0.25046268508474556	0.2704179275627123	-1.0648485141186435
O	-4.343274244915254	15.200446000562712	0.44052044288135644
O	-7.856769024915254	14.253989800562712	-0.4437894831186435
O	-0.6700337729152543	3.209811380562712	-11.784596734118644
O	-2.8548996049152544	1.8387094005627123	-9.017645534118644
O	-5.598664534915254	1.2285108855627123	-7.991354804118644
O	-3.5450325249152543	10.635153470562711	5.6061939458813566
O	-4.429926024915255	7.363552470562712	7.361678645881357
O	-3.3401072849152547	5.464737190562712	10.496070865881356
O	-0.4471700149152543	3.011637850562712	10.252446965881356
O	0.1587999450847457	0.07409270256271228	12.601790765881356
O	3.9919280050847457	-0.49227920943728765	12.265564265881356
O	5.922835155084746	-3.6493026294372877	12.845064265881355
O	9.484293675084746	-4.561047319437288	13.639565565881355
O	8.798242305084745	-9.908465099437288	1.6569343458813566
O	8.820752585084746	-8.496810709437288	5.1998771658813565
O	5.703950825084746	-6.8700393194372875	6.702105585881356
O	6.4802582350847455	-3.2106099894372884	7.5429996358813565
O	3.014668465084746	-1.6868129894372876	8.273889055881355
O	-0.7721743979152544	-2.039104799437288	7.617487025881356
O	-3.301049864915254	0.8187527443627123	7.1333917058813565
O	-6.751692574915254	1.3933689645627123	5.638906415881356
O	-8.597965894915255	3.527878000562712	3.1079535158813565
O	-9.371344234915254	1.9298223405627122	-3.7963363941186437
O	-9.613069334915254	-1.2322438794372876	-5.917490404118643
O	-9.684073934915254	-1.3784548994372876	1.9096899158813565
O	-6.963064314915254	-2.819090799437288	4.156049375881357
O	-3.342844334915254	-2.7722214294372876	2.8811716858813563
O	-0.6099238299152543	-4.948516059437288	4.390555005881357
O	2.6787013050847452	-3.4608647294372883	3.1466722958813564
O	5.724881845084746	-5.756489699437288	2.5539153958813565
O	9.237597675084746	-4.993556289437288	1.1046365758813566
O	10.508523775084745	1.3933458685627123	-3.3786224241186433
O	9.655027275084747	-5.765242839437288	-7.648528614118644
O	10.407247775084747	-3.8941448094372877	-4.4342587941186435
O	7.047014805084746	-4.186938189437288	-2.7094037341186437
O	4.228766025084746	-6.650001939437288	-2.2472882741186435
O	0.9038891150847457	-5.187748089437288	-0.9528416731186435
O	-1.9406546769152544	-7.5295040294372875	0.12749812088135645
O	-5.285748754915254	-5.671405629437288	-0.30450826511864354
O	-8.368547304915255	-6.901438499437288	1.5914508658813564
O	2.127113975084746	1.3389557445627123	-7.789024364118643
O	1.7375777550847455	2.9967359505627122	-4.374472724118643
O	-1.7085916049152545	4.681541870562712	-4.228008724118643
O	-0.42201361491525435	7.716010030562712	-2.4317619341186436
O	2.3887502350847454	10.078009190562712	-3.4360938641186434
O	5.078168655084746	9.379408280562712	-4.385775334118644
O	3.0735711350847454	6.881892350562712	-6.502218824118644
O	6.177658865084746	4.872287440562712	-7.400788564118644
O	5.6371096150847455	1.8724569505627122	-9.609491974118644
O	7.139976145084745	-0.7008469094372878	-7.368464394118644
O	4.266278135084746	-2.8579804894372876	-6.2558098541186435
O	3.075625395084746	-6.309603539437288	-7.005145424118644
O	-0.5718856469152543	-6.102019809437288	-5.858498814118644
O	-2.1895462049152545	-9.106574409437288	-4.247433574118643
O	-5.944891164915254	-8.477147319437288	-3.9400839941186434
O	-8.786989294915255	8.926897140562712	1.7550764158813565
O	-9.054562374915253	6.702988290562712	-1.3867724041186436
O	-7.684995004915254	7.244575650562712	-4.901886304118643
O	-9.417703304915253	3.5809383905627126	-10.250759634118644
