10

O	-5.047373099119758	-0.8480502366026805	16.053496485671946
O	-5.739535250701543	0.09278277129244827	17.171023789242692
O	-5.342948711135465	0.5927630953322579	18.46761060176243
O	-7.200940252591714	0.024063018912391154	17.424382897108636
O	-5.578504436100439	1.6207571570603814	16.532187457956727
O	-5.015362758128556	1.9431495494124404	15.379553312773671
O	-3.775470658537947	2.1120415369449006	15.259075914066512
O	-3.446210996816403	3.591684935232222	15.243679189349386
O	-4.26455294004734	3.788760468041663	14.041956446339356
O	-5.765726896182974	3.550672529953175	15.066934327889593
