71

O	1.019987441025	-3.081778053175	0.6868725811749995
O	1.6993583710250002	-3.9242830131749997	1.7100497841749995
O	1.2426142010249999	-3.464564813175	3.0671883721749995
O	0.762865371025	-2.0823700931749998	2.9643308321749995
O	-0.21577686797499995	-1.6733116231749998	1.9947812691749995
O	-4.168565538975	-3.593494493175	6.805745382175
O	2.148571771025	-1.9122167431749997	-2.3800209478250007
O	-1.4148176989749999	-2.3565903431749997	1.8421859221749997
O	1.8069068610249999	-2.0215434431749997	0.3764101641749995
O	4.106078871025	-1.1664561351749998	-0.8026824478250003
O	2.103084351025	0.28351601582500024	-1.0570958178250003
O	-3.578647388975	-2.144584223175	3.5591320621749993
O	-1.088538107575	-2.335597933175	4.272757902175
O	2.338312741025	-1.4276909491749998	-1.3325562878250004
O	-2.206512808975	-2.496597873175	3.3286554021749994
O	-5.209306738975	-2.640680223175	6.270780142175
O	-5.8247302489749995	-4.713998633175	3.931436502175
O	-7.019424978975	-3.8665255631749997	3.6815799521749994
O	-4.607059388974999	-4.7821988231749994	6.913495592175
O	-6.132704578975	-5.817918473174999	4.5082360621749995
O	-2.611214118975	-4.222808573175	2.8895223621749997
O	-3.511669288975	-4.896663433174999	3.8611791521749996
O	-4.735888498975	-4.955017143175	3.1251849921749995
O	-2.8531485589749996	-6.199136273174999	4.104079602174999
O	-3.586089538975	-6.8587491331749995	5.049742552174999
O	-1.451761094975	-6.096233633174999	4.534499872174999
O	-0.357289489975	-6.587916153175	3.9152212921749996
O	-1.278799073975	-4.5422187931749995	4.496373442175
O	-1.360247288975	-4.6502529331749995	3.0922951521749997
O	-2.0854211989750002	-4.399175703175	5.651392872175
O	-2.978826828975	-3.551326883175	6.137790662175
O	-6.933397408975001	-9.835515613175	-6.567597447825
O	-3.777329728975	-10.264433473175	-8.439178577825
O	-9.802219628975	-3.959965113175	-8.788237157825002
O	-11.909554418974999	-1.5318196831749997	-3.942190757825
O	-11.320451618975	3.726579266825	-4.108304547825
O	-9.552581278975	2.429579606825	-7.240583507825
O	-1.204017658975	6.106372636825	-7.793516297825
O	0.8956852710250001	5.619237596825	-9.894383097825001
O	3.739936621025	-12.590862373175	-0.32626688782500035
O	2.304770741025	-13.857321773175	-3.527307707825
O	2.345130131025	-10.522179873175	-5.301396677825
O	6.078612801025001	-9.469026293175	-5.166323417825001
O	9.002988681025	-10.074669113175	-2.7776272378250004
O	9.587753581025	-7.802177733174999	0.22092844817499957
O	10.329308381025001	-2.684674503175	3.8475812121749993
O	9.989521281025	-4.321654063175	-3.036872757825
O	9.488345581025001	1.1929524068250004	-3.561353407825
O	8.105758891025001	2.106758286825	2.2417154121749996
O	5.195164651024999	4.9356180568250005	8.063097332175
O	2.104853301025	1.4012057068250003	13.960744202174999
O	1.7262152310249999	0.5585240068250004	10.168118782174998
O	-1.905915135975	-0.32073746617499976	10.670144132174999
O	-2.8540948289749997	3.061567646825	12.038607802175
O	-0.617783737975	4.853962926825001	9.564090732174998
O	-2.5247230689749998	3.555647616825	6.4884569621749995
O	-5.685678978975	5.123857906825	7.756340222175
O	0.43772888102499996	8.049424916825	7.157474382175
O	3.030088321025	6.9027334568250005	4.668001202175
O	6.014906361025	8.094406606825	2.7013975221749993
O	7.116133201025001	5.955866666825001	-0.31749227782500045
O	-2.035157772975	6.104479046825	-2.6728909178250007
O	-0.957273813975	2.7110548368250003	-2.4867905278250007
O	-0.4191925019749999	0.9208899868250002	-5.822757677825
O	-1.987998721975	-2.3110040931749998	-5.003738307825
O	-5.2011948889749995	-3.077543993175	-3.0055502078250003
O	-6.379665528975	-1.7055803831749998	-0.6850264778250004
O	-5.2866078689750005	1.3523410068250004	-2.6501481778250007
O	-5.716665248975	3.683679806825	0.3652312521749995
O	-2.3288442889749996	7.660886466825	2.5208737421749996
O	0.907446221025	8.221539076825	0.6827307191749995
