70

O	-1.4028384507735845	-3.885870276815095	-4.201803107867924
O	1.9003325272264153	-2.788962606815095	-7.199987667867925
O	2.3417645672264156	-3.255636766815095	-5.990740577867925
O	0.5374585972264154	-2.6425902968150945	-7.320810137867925
O	1.5255518272264157	-3.203969586815095	-4.858554777867925
O	-0.22348175577358453	-2.5757332968150948	-6.150910977867925
O	-2.411445692773585	-2.1920517168150946	-2.7196210778679246
O	-0.9392581400735844	-3.843318166815095	-1.8638199118679246
O	-1.1831276967735844	-1.5609611168150948	-3.3048651878679247
O	0.21176527722641558	-3.027545286815095	-2.443721627867925
O	-1.6225989867735846	-2.033511256815095	-0.4149007268679248
O	0.35528467722641555	-2.522279516815095	-4.889843917867925
O	-0.5000828997735844	-2.817738236815095	-3.727682497867925
O	-0.6043897957735844	-2.5886584568150948	0.7512828321320753
O	-3.1865146327735845	-1.6464781368150947	0.5323473121320752
O	-2.0820016927735843	-4.768809146815095	-4.447727137867925
O	-1.9659501327735844	-2.850814296815095	-1.5403674608679248
O	-13.586627542773584	-3.759527666815095	-5.813162417867924
O	-14.197933242773585	3.6141122731849054	-4.781948717867925
O	-4.764724942773585	9.317546773184905	-10.609845267867925
O	-7.705215022773584	8.640615993184905	-8.270428187867925
O	-4.913047282773585	8.791723083184905	0.46708577213207514
O	-6.523694432773584	8.254532453184906	2.9416716021320752
O	-5.971950272773585	-11.747650456815094	-3.005274397867925
O	-9.656058482773584	-11.049287356815094	-3.245931277867925
O	-9.504160612773585	-7.599819836815095	-1.7255263558679248
O	-7.8885681127735845	-8.318461716815095	1.6603625321320754
O	-5.511409312773584	-10.922726656815096	3.133812572132075
O	-1.7668158537735845	-10.294813056815094	3.0225870321320754
O	0.8069778972264154	-11.817291756815095	5.4137274521320755
O	4.061036077226416	-11.673125956815095	3.275221612132075
O	7.219376927226416	-6.655208216815095	2.428347652132075
O	3.654651197226416	-7.438401956815095	3.7140885721320753
O	0.9057362572264156	-6.367548936815095	6.208423152132076
O	-2.894359802773584	-6.444336576815095	5.6305871021320755
O	-6.064314242773584	-4.879729276815095	7.069038532132075
O	-3.7027500327735847	-2.2950445568150943	9.847467682132073
O	-1.1016577647735846	-1.3881020668150947	7.158921072132075
O	2.5276628472264155	-2.5154785568150944	7.378488382132075
O	3.947946277226416	-2.009863486815095	3.868968972132075
O	7.685907147226415	-1.101831129815095	3.454596962132075
O	9.796091457226415	-0.20827076261509475	0.3053789921320753
O	12.866739257226415	1.9942893431849054	0.005342642132075248
O	9.091642527226416	-3.225193936815095	-4.673857857867924
O	8.060452537226414	-2.796840106815095	-8.323817677867925
O	9.844404857226415	1.5762232731849053	-5.434566517867925
O	6.146308787226416	2.212536553184905	-6.325876877867925
O	7.267236537226416	4.376269353184905	-9.213415127867925
O	9.054624907226415	6.904125253184905	-6.912110477867925
O	9.352870357226415	4.688991803184905	-2.722249107867925
O	7.149730897226415	3.409059843184905	0.0970885221320752
O	6.594541527226416	3.873834643184905	3.802941082132075
O	3.269448497226416	2.543271243184905	5.215226132132075
O	2.7109020972264153	2.3801300931849054	9.017200582132077
O	-1.0851443547735844	2.592550893184905	9.679129782132076
O	-0.6703182077735845	7.213028623184905	-2.029049836867925
O	-1.6525913157735845	3.564993583184905	-2.1577521708679246
O	-5.320727952773584	3.2691404831849056	-1.0920647268679247
O	-6.175210022773585	0.6929569091849053	-3.681182257867925
O	-5.654058412773584	0.7817783971849053	-7.471479897867924
O	-3.2807491027735844	1.6817545031849053	-8.961450717867924
O	-3.337027302773585	4.430708033184905	-6.330251877867925
O	0.2135879672264156	5.523921073184905	-7.093636197867925
O	1.4635468472264155	8.508146003184905	-5.166128957867924
O	4.504796597226416	6.9475732231849054	-3.690266567867925
O	3.7971862272264154	6.706547943184905	0.010017442132075338
O	2.218120397226415	7.626423633184905	5.5501058321320755
O	3.063259927226415	7.024703083184905	9.187668082132074
O	-0.19020776277358453	6.884269223184905	11.201674582132075
O	-14.155465442773584	-11.517203556815096	-2.0138968518679246
