70

O	-0.41200357886440675	2.891457238457627	0.5558992478644071
O	0.9363359941355933	1.8201697174576272	-0.911496106135593
O	-1.4287171898644067	3.736052098457627	1.0261213988644071
O	2.2579966941355933	2.736491658457627	0.48600473586440707
O	-2.342938155864407	4.439020688457627	0.31451667990440707
O	1.5228228241355932	1.1125261976576273	0.6708536898644071
O	-3.054750165864407	3.530669158457627	-0.4791242941355929
O	-2.4240440558644067	2.330124768457627	-0.6555511821355929
O	-1.1375288518644069	2.157156598457627	-0.2723238781355929
O	-0.22342677686440682	1.1203261197576273	-0.717124616135593
O	0.9704450841355934	2.3697470884576273	0.4300433918644071
O	5.6688397141355935	14.206345348457626	1.672829263864407
O	9.100325254135592	12.767525148457626	2.101626603864407
O	9.350448954135592	11.231591548457626	-4.078124256135593
O	4.7594200241355935	1.9583995464576271	-10.739588396135591
O	5.645189104135593	0.5116514714576272	-7.346864706135593
O	7.786220694135594	-0.38205605154237277	-5.452942736135593
O	2.4660366241355933	10.144778998457626	6.283095963864407
O	2.2404772541355933	6.927094918457628	8.307111873864407
O	-0.10892718686440683	5.445681348457628	10.951041303864407
O	-3.0579215658644068	3.363551998457627	9.740238343864409
O	-4.807716455864407	0.6770994164576272	11.828347603864408
O	-8.341970195864407	0.5373293024576272	10.212442333864407
O	-10.757472435864408	-2.3333824715423725	10.168740863864407
O	-14.467489445864407	-2.770797901542373	9.702136713864407
O	-10.489270745864408	-8.928055151542374	-1.202518276135593
O	-8.893984865864407	-5.959595011542373	4.540924153864407
O	-9.436858195864406	-2.201560461542373	4.9937274138644066
O	-6.2514554858644065	-1.042356011542373	6.839815483864407
O	-2.5345221658644066	-1.801981321542373	7.459914113864407
O	0.3667120441355931	0.6316955294576272	7.839784273864407
O	4.161153814135593	0.6395478364576273	7.671408183864407
O	7.032267924135592	2.327016498457627	5.893374253864407
O	9.959148754135592	0.14165940445762715	-0.2117578541355929
O	10.441733954135593	-3.1618482715423726	-2.041513376135593
O	7.795116424135593	-2.7505893815423725	5.320342523864407
O	4.270654534135593	-3.6644510515423727	6.473470403864407
O	1.370136394135593	-3.107095991542373	3.907369913864407
O	-1.9650419698644068	-4.8939262215423724	4.497795113864407
O	-4.393763505864406	-3.1335289015423724	2.163062203864407
O	-7.356506135864407	-5.110812851542373	0.620926410864407
O	-10.022831425864407	-4.027784181542373	-1.9779972161355932
O	-8.764235495864407	2.1763021384576273	-6.729701176135593
O	-7.5169753958644066	-5.341755161542372	-10.320054396135593
O	-9.059117465864407	-3.1662973415423723	-7.608705776135593
O	-6.578677285864407	-3.7792065215423722	-4.815605956135593
O	-4.447333205864407	-6.522970031542372	-3.333814326135593
O	-1.5940912228644066	-5.403194171542372	-0.9951557361355928
O	0.3549823041355933	-7.972173071542373	1.0767653068644072
O	3.8589474441355933	-6.5395504715423725	1.7869276038644073
O	5.889012394135593	-8.066982131542373	4.684596463864407
O	0.5268183241355933	0.7368219764576271	-7.903753876135593
O	-0.005462485864406785	2.5401363984576273	-4.555849736135593
O	3.3681381741355936	3.7492330884576273	-3.289952216135593
O	1.9059335341355932	6.888064338457627	-2.045131296135593
O	0.0814495541355933	9.677230008457627	-4.125986166135593
O	-2.184391085864407	9.322363958457627	-5.9858296961355935
O	0.016608414135593108	6.3905649484576275	-7.128227016135593
O	-2.8586696558644067	4.776550458457627	-9.045009456135592
O	-2.020191537864407	1.5967792724576273	-10.868195296135593
O	-4.559255805864407	-0.6203764015423727	-9.280662406135592
O	-2.5716341158644065	-3.034665431542373	-7.163823686135593
O	-1.6927055158644069	-6.671768641542372	-7.401611956135593
O	1.336639384135593	-6.818945941542372	-5.036920986135593
O	1.8620725741355932	-9.896345951542374	-2.897233936135593
O	5.330847994135594	-9.724342751542373	-1.2953390061355927
O	8.423459734135593	7.530158008457628	4.5835413538644065
O	9.455343154135592	5.075010768457627	1.8070186038644072
O	9.488669154135593	5.533749808457627	-1.964190836135593
O	12.425668454135593	1.3244617694576273	-6.286312896135593
