78

O	4.0432646156250005	2.0820742191874997	-1.1951393548958333
O	4.728591035625	-0.4388047208125003	0.5358717861041667
O	-2.909595674375	0.6722389531874997	0.5653677741041668
O	-2.038309774375	1.0516856241874997	-0.6177064318958332
O	3.6446654756249997	2.8355480391874996	-0.11345717189583321
O	-2.132323214375	2.7080976691874996	-1.0255353718958333
O	-2.602863364375	0.15404164818749966	-1.650894626895833
O	4.6363555356249995	2.9016788191874996	0.8684182231041667
O	3.731148415625	0.09993407118749975	2.414682443104167
O	5.864283705625	2.2856285691875	0.7253230001041668
O	2.5039554056249997	3.5169614891874996	0.1907384651041668
O	6.1384943356249995	1.3768266511874998	-0.2952460209958332
O	4.205318845625	3.0851410791875	2.1438687131041667
O	5.022545925625	1.0919679201874997	-1.1073617058958332
O	4.640707015625	-0.4015834408125003	-0.9247718088958332
O	6.049124615625	-0.6541491408125002	1.1228539031041667
O	6.982186485625	0.21267720618749975	0.2448754751041668
O	-0.39167041537499997	0.5948971611874997	-0.3262862655958332
O	0.683012275625	0.5961678521874998	-1.147084482895833
O	1.8185387456250002	-0.11458493881250031	-0.7085389228958332
O	2.231053705625	-0.14849195281250027	0.5850167371041668
O	1.202581443625	0.18464112818749967	1.410979583104167
O	-0.03558174337499992	0.5064638411874998	0.9723743231041667
O	3.5388752756249997	-0.20470219081250018	1.1932986631041667
O	6.111966155625	-2.2914958208125005	-0.7871857668958332
O	5.7912050456249995	-1.0415179708125002	-1.3261927968958331
O	6.690506155625	-0.6653455208125003	-2.319225466895833
O	7.685882475625	-1.4630943308125004	-2.809014806895833
O	8.157229375625	-2.4551340508125	-1.9573928168958332
O	7.250242085625	-2.9904240208125	-1.083579988895833
O	6.580953855625	8.2479511691875	-10.269841656895833
O	4.222583015625	10.5773232491875	-8.563502946895833
O	-1.0946190243749998	7.5036282191875	-12.793473356895833
O	1.2905771026250001	-4.6712606708125	-13.981202356895833
O	-0.5558877843749999	-1.3239398108125005	-14.002205456895833
O	-7.200769584375	-1.2505412708125	-7.674847486895834
O	-9.017687694374999	1.0093250261874998	-6.913421696895834
O	7.709478675625	9.772232269187501	2.348915303104167
O	6.974633335625	12.1161368291875	-0.47811389689583317
O	3.815163605625	10.4120266091875	-1.6306174268958333
O	1.7770725656250002	10.375503069187499	1.6123625431041666
O	2.397681615625	10.2667198991875	5.396105403104166
O	2.622893455625	6.8576715891874995	7.122166823104166
O	1.982170135625	6.1668001191875	10.803347343104168
O	3.939470405625	2.8761105291874998	11.479132043104167
O	1.916269835625	-2.5392678108125004	9.839192443104167
O	1.0096103276250001	1.1116138591874998	8.902707663104167
O	-1.8853016543749999	3.4801735491874997	7.975978203104167
O	-1.815144934375	6.3952276591874995	5.484778003104166
O	-4.292607894375	8.5307388991875	3.511622773104167
O	-7.760891274375001	6.0681957391875	4.857733153104166
O	-5.816246524375	2.7605324091874994	4.264676413104167
O	-4.966511074375	0.4955013311874997	7.235357573104166
O	-2.3359593543750004	-1.8832744408125004	5.805033243104167
O	-2.0598520643750002	-5.4768993908125	7.160635613104167
O	0.09732214062500005	-8.520247490812501	6.1252176431041665
O	-0.674969744375	-12.2313594708125	6.413631843104167
O	5.747576095625	-7.865437190812501	4.851848293104166
O	8.239598435625	-8.387692030812499	2.007794023104167
O	3.5030637256249997	-11.165884570812501	1.929187213104167
O	3.3926513256249997	-8.7636225908125	-1.0957593658958333
O	4.437210185625	-11.6263291708125	-3.356874746895833
O	-0.5631497543749999	-11.5378865708125	1.2548371631041668
O	-2.217778354375	-8.294241610812499	2.298662353104167
O	-5.489448184375	-7.082783100812501	3.735772283104167
O	-6.214430884375	-3.3302823608125003	3.409662103104167
O	-10.315614434375	1.3891423371874998	3.369432313104167
O	-3.7932906543750002	-4.579066540812501	-5.679534086895834
O	-1.626286674375	-1.9277997808125003	-4.129330846895833
O	-2.711823114375	1.5002146831874996	-5.430491486895834
O	0.745565812625	2.8460010591874996	-5.8138468168958335
O	3.726114235625	1.3216188771874997	-7.685318426895834
O	4.691714715624999	-1.4757881608125003	-7.592185926895834
O	0.941970491625	-2.1509934208125	-7.891080186895834
O	1.317353568625	-5.827826800812501	-6.949082256895833
O	-1.712595304375	-9.0466613108125	-3.4351708468958333
O	-4.570819394375	-7.3368067408124995	-1.664149866895833
O	5.612986695625	16.2155033291875	-2.165738626895833
