74

O	3.5950419245661287	-0.18111588854838734	1.8181860019677423
O	2.977222894566129	0.6894442744516126	1.0014653919677423
O	1.926446844566129	1.4844390984516127	1.4437291919677422
O	3.7205379245661288	1.5070497384516126	0.2985902349677423
O	3.8042504445661285	-1.4497415515483874	1.6489990419677423
O	4.458417214566129	-1.9052531415483873	2.746993641967742
O	5.198661614566129	-0.8549528215483875	3.135776811967742
O	4.559966254566129	0.2397802554516126	2.675915541967742
O	0.6705918945661288	1.7504577784516127	0.39189290496774226
O	0.49859441456612863	3.3262526084516124	0.5408025419677422
O	0.8900403545661287	1.2725184854516125	-0.9587532710322577
O	-0.2800143214338713	0.7206349504516126	0.8337539649677422
O	9.632418904566128	11.532724258451612	4.115500481967742
O	7.177380954566129	14.156423358451613	3.076955071967742
O	8.02409521456613	12.686261658451613	-3.066545078032258
O	9.937070104566128	6.0399187984516125	-8.703864508032257
O	3.671230774566129	3.8000026384516126	-10.407141158032259
O	0.8971734645661288	4.661000188451613	-7.977175258032258
O	-1.2249577684338713	6.6070445184516124	-7.137088088032258
O	5.298649554566129	7.935165318451612	8.179047761967743
O	1.787730234566129	6.831367858451612	9.199005121967742
O	0.22988070756612877	4.546060498451612	11.841889041967741
O	-0.2834664684338713	0.8649567464516126	11.020134041967742
O	-2.871403745433871	-1.3926998015483874	12.685384941967742
O	-1.3337257684338713	-4.932741051548388	12.192977341967742
O	-3.1337480954338712	-8.224787791548387	12.078144441967742
O	-1.5662524214338713	-13.181827141548387	9.050421821967742
O	-4.889363345433871	-8.911975391548387	5.367816641967742
O	-1.5882772354338712	-7.903788661548388	6.991845581967742
O	-2.160065935433871	-4.230967951548387	8.066037371967742
O	-4.225018655433871	-1.0490340815483874	7.367243281967742
O	-3.075935655433871	2.6096718684516125	7.558281891967742
O	-4.118764695433871	6.040775798451612	6.276460061967742
O	-2.8528711854338713	9.021884628451613	4.276175821967742
O	-3.345452515433871	9.698200258451612	-2.831480088032258
O	-5.739797215433871	8.571335248451613	-5.584983528032258
O	-7.303721715433872	7.620648908451613	2.063253391967742
O	-7.477253915433871	4.279400498451613	3.9037272419677422
O	-5.2639201854338715	1.3616589154516126	2.612242961967742
O	-6.047546675433871	-2.2479289215483873	3.610533371967742
O	-2.9359560554338713	-4.217206271548387	2.673720781967742
O	-3.1563765254338714	-7.8753363715483875	1.5607438319677422
O	-0.5171804855338713	-10.397296341548387	0.24777249596774223
O	-0.9537423664338713	-13.342243241548388	-2.107902838032258
O	4.772288064566129	-10.765047441548388	2.722714891967742
O	6.371159734566129	-7.760489501548387	-2.734144708032258
O	8.80133185456613	-9.169690401548387	-5.250506048032258
O	5.984389724566129	-10.388716541548387	-7.578047378032258
O	0.6787136545661286	-10.017234941548388	-8.460171448032257
O	2.044776904566129	-10.155769541548388	-4.931471628032258
O	-0.21701475743387127	-7.607399101548387	-3.2489760180322578
O	-3.808901405433871	-6.450338681548387	-3.303811438032258
O	-4.538540935433871	-3.0465431915483876	-1.6903867880322578
O	-8.153296015433872	-1.8906863315483875	-1.0993050180322577
O	-8.215271995433872	1.9621790784516127	-1.0752155880322578
O	-11.189600895433871	3.7574945284516126	0.5473739009677423
O	2.807169884566129	-0.01461461154838739	-6.905814458032258
O	3.478265784566129	0.7156747704516127	-3.301234008032258
O	3.029227714566129	4.535967298451613	-2.728606228032258
O	5.913360014566129	4.756903998451612	-0.3535655180322577
O	9.54403770456613	3.647542668451613	-0.8692259070322578
O	10.50872350456613	1.0820113774516127	-1.9535464380322578
O	7.7483145945661285	1.7934389984516126	-4.529194778032258
O	7.797196924566128	-1.7849717815483874	-5.834523238032258
O	5.391783784566129	-2.5330331715483876	-8.641895598032258
O	3.6076482345661285	-5.384763761548387	-7.029431938032258
O	0.1246473795661287	-4.113869061548387	-6.354582948032258
O	-3.252785075433871	-4.730773431548387	-7.862246638032258
O	-5.1631556254338715	-1.6290613415483874	-6.6511604380322575
O	-8.813399395433871	-1.9404364915483874	-5.717960678032258
O	-10.255160945433872	1.5652487884516126	-5.226625898032258
O	1.839756174566129	12.028738258451613	4.094093931967742
O	0.3896468815661287	11.542214758451612	0.5486804159677423
O	2.183857244566129	11.039355858451612	-2.780346628032258
