73

O	-0.48953773871186446	2.020216701254238	-0.9981392151864404
O	1.7367047382881353	3.304326871254238	0.08463307281355958
O	1.8231603182881353	1.0022289652542378	-1.2980578571864405
O	1.0719761082881354	1.7993722812542379	-0.3046049601864404
O	-2.8980320817118645	1.7314088312542377	-1.8586163131864404
O	-2.2945280617118646	3.0697494312542375	-1.8566112231864405
O	0.9403924482881354	0.8194249032542378	0.8058907168135595
O	-1.7513702317118645	0.7828762692542378	-0.9299462051864404
O	-5.230108121711864	1.0888910452542377	-1.5519969151864403
O	-0.9446683477118645	2.8570385012542374	-1.8322235431864402
O	-5.000413301711864	-0.1529999557457622	-1.4985179881864403
O	-6.523330381711864	1.4388880102542378	-0.9376249301864404
O	-4.111099591711865	1.8799927312542377	-1.1351461381864403
O	-3.1350324017118645	4.102349131254238	-2.4323169531864406
O	-1.0127987447118645	15.018928921254236	-4.288142363186441
O	2.243381108288135	16.03578242125424	-2.7514970931864404
O	5.494417008288136	12.918301521254238	-7.269036343186441
O	5.292408198288136	5.878758571254238	-12.73395940318644
O	8.573309118288135	1.7033696412542378	-5.2651950431864405
O	9.946042568288135	2.928679171254238	-2.9001817931864404
O	-8.784395491711864	10.081393901254238	2.3901541968135596
O	-6.968326161711865	13.342411521254236	1.8147109168135596
O	-3.5631270917118645	11.784398921254237	1.3186435468135596
O	-3.1033277517118645	9.881080721254238	4.5945930968135595
O	-5.342775001711864	8.270926681254238	7.239434806813559
O	-6.320648781711864	4.618975591254238	6.8750255768135595
O	-7.325231011711864	2.307013611254238	9.73368319681356
O	-9.478063011711864	-0.37882345674576223	7.926344416813559
O	-10.126361751711864	-3.914896718745762	8.99009140681356
O	-11.196866531711864	-8.679343828745763	5.479035266813559
O	-4.8255002617118645	-7.462907118745762	6.24035573681356
O	-7.108923831711865	-4.816156088745762	4.67137060681356
O	-5.772387611711864	-1.477636958745762	6.08337251681356
O	-2.6915910017118643	0.2731295142542378	7.58726576681356
O	-1.5968619857118644	3.912958761254238	7.09295000681356
O	1.5317340082881354	6.054800291254238	7.424429606813559
O	3.771200138288136	8.372333171254237	5.433045036813559
O	6.899553928288135	4.832975911254238	7.559843456813559
O	4.0290261482881355	2.512290271254238	8.54952540681356
O	2.4347755882881357	0.3057056822542378	5.795102506813559
O	0.30737796828813546	-2.7427264487457625	6.67447282681356
O	-1.5330766197118644	-3.619184308745762	3.4455673468135597
O	-2.4222951117118647	-7.303502178745762	2.6783923868135595
O	-4.0604398217118645	-8.934530698745762	-0.45073606918644044
O	-3.6251510817118646	-12.478142378745764	-1.7748371731864405
O	-8.609885701711864	-6.446167938745762	-3.1635948431864405
O	-5.463793421711864	-8.597211688745762	-6.28768687318644
O	-4.009959051711864	-5.205252138745762	-7.450830823186441
O	-4.120252161711864	-6.478844378745762	-11.03147990318644
O	-1.6699105467118645	-9.356523298745763	-10.315735683186439
O	-1.5043442647118646	-9.623792078745764	-5.576893143186441
O	-0.3159326027118645	-7.663830888745761	-2.5527370131864404
O	2.081912828288136	-7.992670338745762	0.3602917228135596
O	2.954092368288136	-4.711074848745762	2.1900910568135594
O	4.899680478288135	-4.819370448745762	5.51170584681356
O	6.808773778288136	-1.4890742587457624	5.88924696681356
O	8.014762798288135	-0.43496887174576215	9.37655037681356
O	4.567931168288136	-1.296855318745762	-6.5259168031864405
O	1.9928606582881356	0.8451104342542378	-4.73999770318644
O	3.6079720682881353	4.157073701254237	-3.7223001431864406
O	0.6081176082881354	6.221801381254238	-4.61760625318644
O	-1.2820774667118644	6.406682731254238	-7.943102653186441
O	-2.2545169617118646	4.143358491254237	-9.56652272318644
O	1.2959165482881356	2.8660395912542374	-8.81744961318644
O	0.46833429828813555	-0.6629522787457622	-9.973208903186439
O	3.291652698288136	-3.1564022587457625	-9.83124095318644
O	1.6167145582881355	-5.706865718745762	-7.68434537318644
O	3.5019911782881357	-5.638021878745762	-4.414620433186441
O	5.931778758288136	-7.897610488745761	-2.6875715031864407
O	7.509605988288136	-5.436965648745762	-0.1902908651864404
O	8.510581568288135	-6.701244358745762	3.2367486168135593
O	10.607066468288135	-4.016452108745762	4.974595626813559
O	7.295849238288136	9.465720291254238	-2.6099223631864406
