11

O	-5.610457762735455	5.261325444240194	15.830804163898083
O	-5.013456419090108	4.043976126887854	15.411489094499702
O	-5.547149209735432	2.8659538747081017	15.645258301702263
O	-5.055686149850441	1.7002444538674226	15.845724938610347
O	-5.906970084445742	0.6336920436523983	16.83383121620148
O	-5.512723230750643	-0.9157848860253468	16.46828407867341
O	-7.3665307717660085	0.8456680822132463	16.626739316235575
O	-5.891577962190938	1.0907179813193684	18.222681111596046
O	-3.959842486941745	1.7189571594936086	15.03559798001666
O	-3.2442999007728672	2.8004813209367088	15.481687181719021
O	-3.686511852655169	4.075538111990507	15.136098117353095
