69

O	-5.522050939253571	-0.8506322593750001	-1.3639143380714285
O	-6.153353939253572	1.238679151625	-2.5211124810714285
O	-3.8266688192535714	0.4928460846249998	-2.4833017310714283
O	-1.2433364222535714	0.5509636376249998	-2.9699445410714285
O	0.02486511074642861	-0.07280488837500021	-2.9259985810714286
O	-5.141485219253571	0.3943397666249998	-1.9643585410714284
O	-3.3374449492535714	0.17885567562499982	-3.7107230310714288
O	-2.1307354742535716	0.5972405296249998	-3.9609488610714285
O	2.4641574107464286	1.215761958625	-3.0655035710714285
O	2.1260973007464283	-0.8197666193750003	-1.5613327550714284
O	1.0049757007464284	0.9651309526249998	-0.7533966500714285
O	-2.3308647462535714	0.4493074229249998	-1.6264971440714286
O	1.3839916607464287	0.3814368472749998	-2.0416410710714286
O	0.06150761074642852	2.530624470625	-15.612255041071428
O	5.722227410746429	-2.2762856993750002	-14.859754641071428
O	3.868419810746429	-9.974078359375001	-10.741410841071428
O	7.971237310746428	-5.678576309375001	-3.7535692910714284
O	9.854331150746429	-3.344607629375	-3.8500524510714285
O	-6.857074539253571	8.092165690625	-8.511503911071427
O	-4.859171839253571	8.464275960624999	-11.669815241071428
O	-1.7834690942535714	6.703287170625	-10.381680941071428
O	-0.9268337962535714	8.799506950625	-7.302480191071429
O	-2.8154457592535715	10.954858840624999	-4.777915311071428
O	-4.210698189253572	9.345878480625	-1.6311344140714286
O	-4.940795289253572	11.173729040625	1.6362373089285716
O	-7.639010399253571	8.920541350625	3.293715698928571
O	-8.452507829253571	8.566622370625	6.943093548928571
O	-10.621297179253572	3.701016320625	9.758346558928572
O	-4.1072250692535714	3.583642350625	9.120538608928573
O	-6.350945969253571	3.742703450625	6.025475278928571
O	-4.446871169253571	6.101051130625	3.6222575189285715
O	-0.9789993622535714	7.507304370625	2.6952539489285714
O	0.39027980074642876	8.347406240625	-0.7899815190714286
O	3.726973470746428	8.865019190624999	-2.5486528310714287
O	5.806489650746428	7.570437220624999	-5.449031471071429
O	5.990751640746428	7.8863864406249995	1.1848155989285716
O	3.711385920746429	4.849595570625	1.9824577789285716
O	1.4862226207464286	4.845935330624999	5.091047438928571
O	-0.9732113192535714	1.9970069206249996	4.519325208928572
O	-2.3821071472535715	-0.011926277375000183	7.480052658928572
O	-4.699074279253571	-3.123314249375	7.615566548928572
O	-4.869885979253572	-5.823472619375001	10.303281358928572
O	-9.359453809253571	-3.606919779375	4.134855658928571
O	-7.054337719253571	-7.912381129375001	4.869262008928572
O	-5.4808815792535714	-7.875794249375	1.3361923489285714
O	-6.342609729253571	-11.556382259375	0.9913871389285714
O	-4.119166269253571	-12.577426059375	3.9586012589285717
O	-3.1523434492535714	-8.497320479375	6.187298028928572
O	-1.2636759492535714	-5.239422289375001	5.675481708928571
O	1.5564283907464285	-3.263303649375	7.243593758928571
O	3.081833850746429	-0.4852568543750002	5.050145088928572
O	5.552649660746429	2.0359343706249997	6.577245218928572
O	7.834871780746429	3.336231470625	3.756003348928571
O	9.729457550746428	6.628797770625	4.281636238928572
O	3.504986560746428	-7.2023192993750005	-1.6403001710714284
O	1.5615817807464287	-4.249674019375001	-2.9064265810714285
O	3.6662323707464286	-2.3184759493750002	-5.476644071071429
O	0.7637454107464285	-1.6552526893750001	-7.776322101071429
O	-1.7062702510535714	-4.123430289375	-9.331308141071428
O	-3.1488980692535717	-6.322907899375	-8.000862681071428
O	0.3296481307464285	-6.893955959375001	-6.457118841071429
O	-1.0687886962535713	-9.166622309375	-3.7440243910714286
O	1.4621547507464285	-10.629064759375	-1.3652158900714286
O	-0.06044788925357136	-9.417455179375	1.8126229389285715
O	2.365965350746429	-6.864787459375001	3.1632774389285716
O	7.050460950746428	-3.8220058893749997	4.827098218928572
O	8.493997950746428	-1.4806878993750003	7.430514628928571
O	11.128157950746427	0.7331100086249998	5.759270368928571
O	7.999498780746428	0.11003901062499982	-9.748489501071427
