71

O	-4.736847830886793	1.8714412152452833	2.590707774366038
O	-5.200143970886793	6.113832682245284	4.457208334366038
O	-5.472407040886793	6.217665172245283	5.8678224643660375
O	-4.476129220886793	4.831804342245283	4.207724354366038
O	-4.609783630886793	4.231478912245283	2.869240204366038
O	-5.466277860886793	3.0245287022452834	2.942480964366038
O	-2.821323590886793	0.9026573012452831	1.4913151943660377
O	1.2327239091132074	-2.3496979177547166	1.3751324943660377
O	-2.8105162008867928	-0.15419190775471692	2.3477923143660377
O	0.21586066911320734	-2.6553229577547173	-0.5987801026339622
O	-1.996788570886793	-1.2200590077547167	2.118259154366038
O	-0.7808067638867927	-3.9646802777547165	1.5362435343660379
O	-1.1356812838867927	-1.177740107754717	1.0655184603660377
O	-1.5433482408867927	-0.401075147754717	0.0297742223660378
O	-2.4317263708867927	0.6126265412452832	0.2302246981660378
O	-3.6892625308867926	2.069195043245283	1.632026944366038
O	-4.023378570886793	2.812739982245283	0.6605130103660377
O	-0.12394370088679274	-2.562894457754717	0.8266905423660378
O	-7.494997470886793	-6.986047117754717	11.880743504366038
O	-0.29797160888679275	-7.680622347754717	13.661528704366038
O	5.096273969113207	3.554434682245283	13.525448004366037
O	4.589160859113207	-0.23276982775471677	13.517839204366037
O	7.3243246591132065	-3.7628094677547166	5.526663454366038
O	7.201614039113207	-6.619044347754716	4.617630664366038
O	-13.282308930886792	-3.4928307477547165	2.743745114366038
O	-13.229883430886792	-6.103988737754717	5.449666054366038
O	-9.522698660886793	-6.774563097754717	5.258340024366038
O	-9.105153370886793	-7.807951297754716	1.6039350443660378
O	-10.865581180886792	-7.088518637754717	-1.705474415633962
O	-9.766191780886793	-4.147068617754717	-3.8322864756339623
O	-10.222398780886792	-3.828497827754717	-7.600622355633962
O	-10.155360930886792	0.018121342245283056	-8.149669015633963
O	-5.106930560886793	3.247151862245283	-8.094386625633962
O	-6.062063760886793	-0.3206723577547168	-6.948961795633962
O	-4.803400720886793	-3.9462170477547165	-6.646735735633962
O	-5.567242470886793	-6.435474657754717	-3.829383715633962
O	-4.1753152608867925	-9.715774687754717	-2.449958915633962
O	-0.6488283588867927	-9.573078987754716	-5.198383415633962
O	-0.10724060188679274	-5.783661727754716	-4.624032885633962
O	-0.5781711308867927	-3.270402277754717	-7.468438655633962
O	-0.7859965098867927	0.11866033124528308	-5.697706045633962
O	0.4857221691132073	3.2899759522452827	-7.433122655633962
O	0.8570041791132071	6.9827721822452835	-6.298990555633962
O	3.3359654291132075	9.631923852245283	-7.405359355633962
O	-3.401092410886793	9.504143422245283	-3.140587395633962
O	-4.039931160886793	11.166372712245284	0.2182660249660378
O	1.1265637791132073	10.868376612245283	-1.7148344556339623
O	0.9688618591132073	8.678322622245283	1.4670408843660376
O	2.505145529113207	11.545508212245283	3.431145854366038
O	5.747258509113207	11.517720312245283	1.3661371843660377
O	4.703046429113207	8.883017002245284	-2.4443037456339622
O	3.8385464391132076	5.3032447122452835	-3.401304715633962
O	5.1815925691132065	2.519976552245283	-5.581630925633962
O	3.813163449113207	-0.9949249077547171	-4.905626375633962
O	4.553518429113207	-3.8963280277547163	-7.324403365633962
O	4.362420009113207	-7.191816827754717	-5.320238695633962
O	5.840524379113207	0.9977915582452831	4.166451304366038
O	2.1594299291132075	0.17383429424528318	3.857965354366038
O	1.5877707391132074	-3.3658063377547167	5.250738024366038
O	-1.6588185678867928	-2.4483211777547167	6.903607754366038
O	-2.4548691008867927	0.40710818424528317	9.304668154366038
O	-1.5972858708867927	3.212657012245283	9.163176274366037
O	1.7155829291132072	1.6022052682452832	8.158365754366038
O	3.0919725791132073	4.869253272245283	6.758554394366038
O	6.6114227091132065	4.727097732245283	5.425643314366038
O	5.921334319113207	5.980024072245284	1.9848763543660377
O	6.510085979113207	3.023807322245283	-0.28194233763396226
O	9.161061569113208	2.069610748245283	-2.746311455633962
O	8.571037939113207	-1.721549747754717	-2.973041225633962
O	9.077170069113208	-3.460610727754717	-6.295578905633962
O	8.992157189113207	-7.243760257754717	-5.7288601856339625
