18

O	-6.057857386388769	0.8831482457074502	16.895890549678587
O	-5.505232770987739	-0.6911054517795123	16.498850945503843
O	-5.731252888692212	1.1858543360072131	18.285691256976623
O	-7.502905776697455	1.1594232763663859	16.799948539488497
O	-5.313502689400652	2.010636610304151	15.84466417552574
O	-4.29464635322098	1.5221513290067308	15.029418696444631
O	-3.6044684602722667	2.36376999587716	14.197326926099278
O	-4.030465463005431	3.657717711582534	14.271355885382356
O	-4.039360150658995	4.034014070200511	15.629835870573121
O	-4.882548195186274	3.2064779970394466	16.400654384010338
O	-4.33173701239633	4.689352032317467	12.883501132201573
O	-5.630272342093521	5.685290375115271	13.698697039336942
O	-5.089469636377673	7.05449239177441	13.848048652257885
O	-3.7778278705291326	7.0670986866608665	13.15961035957346
O	-4.032821614989181	5.3628409191463895	15.695071143500602
O	-5.978718377959639	3.9139425854546848	16.719716395526188
O	-4.569528426533595	0.33700919952106334	14.516122475055612
O	-3.3041590000444776	2.067129590833423	12.947062303011368
