75

O	-1.928020876418033	0.6437325891475405	-0.42562831255573735
O	-2.2105929844180334	-2.3075795318524595	-2.8267896366557372
O	1.2002617555819668	-2.2782242218524593	1.2054395833442628
O	-1.0862036148880332	-1.1313103368524593	2.0306159133442625
O	-0.09040142841803311	-1.2248147118524593	0.9398370733442626
O	-1.0328662361180332	-2.9133488218524595	-2.5137668166557376
O	-0.11003830641803314	-3.1141362118524594	-3.5668827966557375
O	0.2397490755819669	0.18138389014754058	0.6122928643442627
O	-0.5647031774180331	-2.8626887918524595	-1.2004504386557373
O	-0.5437115604180331	-2.9903406418524594	-4.829188996655738
O	-1.005121910118033	-1.8088683618524593	-0.4480721938557373
O	1.006332015581967	-2.658654041852459	-3.3545140666557374
O	-1.990393508418033	-0.9947013218524594	-0.9201965986557373
O	-2.5251759844180333	-1.1784335908524595	-2.1370706466557374
O	3.462769535581967	-14.50168691185246	-0.5194395646557374
O	6.012422625581967	-14.02810921185246	2.1787693233442624
O	1.4617476255819668	-13.445392011852459	6.596926413344263
O	-6.895424364418034	-10.665397411852458	8.005665813344262
O	-2.6066906044180334	-2.6321743118524594	9.084832943344262
O	0.2722533055819669	-2.1419235918524593	9.758870383344263
O	4.232989225581966	-7.97007733185246	-9.780012226655737
O	5.9721968555819664	-10.705232111852458	-7.882161786655738
O	5.460787235581966	-9.159344431852459	-4.476477516655738
O	7.191361355581967	-5.7663712018524595	-4.903655676655737
O	7.892290765581966	-3.3175808818524595	-7.770996696655738
O	5.301378925581966	-0.6476838788524594	-8.591643436655737
O	5.988759085581966	2.6665150481475406	-10.326820746655738
O	2.540603715581967	3.5373971081475406	-11.904870016655737
O	1.1997353355819669	6.91924555814754	-12.808725316655737
O	-1.443596328418033	8.26146783814754	-15.127907016655737
O	-4.554652194418033	8.68372045814754	-12.874350016655738
O	-7.047709714418033	11.589854688147541	-3.7391812866557372
O	-1.801977026418033	9.107726768147542	-6.943040416655737
O	-2.041425472418033	5.74226968814754	-8.735690716655737
O	1.2809380655819667	3.9770766781475406	-7.838267416655738
O	4.148357865581967	3.821318988147541	-5.273506206655737
O	6.123832325581967	0.7795185911475406	-4.087137106655737
O	8.263760405581968	-0.3683260698524594	-1.1866764246557373
O	8.557373345581967	-3.0194376018524594	1.5022830433442627
O	5.672840655581966	-2.561912571852459	8.006846133344263
O	4.796207855581967	0.21409955914754059	10.486074583344262
O	8.874050765581968	1.5207180881475406	3.936336193344262
O	7.717673695581966	3.5445905381475407	0.9151777333442627
O	3.9374451055819666	3.6224963181475407	0.1481490323442627
O	2.392132565581967	6.24449636814754	-2.1361063066557375
O	-1.058434827318033	4.89109973814754	-3.0330846366557376
O	-3.9701986844180333	7.3339369381475406	-3.6781422266557375
O	-7.736237574418033	6.72730888814754	-4.384387686655738
O	-11.178657294418032	-0.10221994785245939	-2.378196526655737
O	-11.596863494418033	4.934161338147541	-0.49909202965573735
O	-7.825917764418033	5.1482970581475405	-0.19698115965573734
O	-5.149939244418033	7.35305336814754	1.2817692033442625
O	-1.6396351604180333	5.85918506814754	1.6438857633442625
O	1.3586685355819668	8.06187376814754	2.5941883033442625
O	3.990817565581967	5.83739328814754	4.331623473344263
O	7.624200195581966	7.04965698814754	4.520269093344263
O	-6.2323270344180335	-1.4791276218524594	5.603931473344263
O	-4.176626784418033	-2.660071771852459	2.6198914533442625
O	-1.1430848400180331	-4.60674052185246	3.941509093344263
O	-1.3592343514180332	-7.22195860185246	1.2515556833442627
O	-4.312461174418033	-9.469321951852459	0.3072925273442627
O	-7.117566874418033	-8.677501121852458	-0.11950830165573734
O	-6.439749054418034	-6.67321800185246	3.0961981933442626
O	-9.537634214418032	-4.52049037185246	2.6028936433442627
O	-10.190469284418032	-1.9551017018524592	5.278830303344263
O	-10.327968524418033	1.0554694181475406	3.0878888233442625
O	-7.288829844418033	3.0864872481475407	4.010725233344263
O	-6.632481794418033	6.25952057814754	5.834448093344262
O	-2.9139844344180332	5.87878790814754	6.700498873344262
O	-0.6870255894180332	8.93264623814754	6.689860073344263
O	2.6931400355819672	8.003651508147541	8.233062703344263
O	7.943796295581966	-8.54370606185246	1.7480495833442626
O	6.574406405581967	-6.85575075185246	4.923141913344263
O	3.6014615555819667	-7.78208050185246	7.098361083344263
O	2.366404715581967	-5.167103161852459	13.176252283344262
