30

O	-3.5964271115583375	6.513906300548637	10.414724607627472
O	-3.4088180147268563	5.599990544775853	13.55947469660829
O	-5.758118574489415	1.140596265501617	18.28046353318664
O	-6.106418456264367	0.9445071236538367	16.868758470199587
O	-2.765577611105843	6.9155777341943026	9.408655484918114
O	-5.572074529170925	-0.516417615694861	16.172620465199895
O	-7.587823823408393	1.1524718257967326	16.84023625285918
O	-1.422998552615633	7.110730034084392	9.732685615090865
O	-4.024539879319615	4.197952133071075	11.755216110357154
O	-0.9061122491092632	6.035111420949097	10.457298571212739
O	-3.2657657206635	7.86525862229805	8.507555673081187
O	-1.7168112040808232	5.5674112655488255	11.439772254103284
O	-0.7106945545000984	8.188306089369132	9.274797447888655
O	-2.9699741367360417	6.1343482888458585	11.512141792127284
O	-3.5447979985222338	6.758611949549641	12.782618243596865
O	-2.006468441981458	5.334727916610843	13.71133223718722
O	-1.337064099009515	4.673636676233077	12.53834007383394
O	-5.422737182265944	2.236346417060545	15.95606277821658
O	-6.16451679227361	3.302896173020324	15.585437571440018
O	-5.713471365987571	4.324182758504592	14.754872116146238
O	-4.78843292954585	3.7734460934888476	13.866387390804764
O	-3.7910260291458693	3.079423390802542	14.549723641093252
O	-4.223393938441054	2.062925130942908	15.355700863647538
O	-4.296674016645147	4.677602671092863	12.86758624543452
O	-2.6910755338326764	8.864862245913308	12.33601941305299
O	-2.49177820714498	7.690143559317841	13.085810602816242
O	-1.118842208118851	7.440420519249716	13.097398115799479
O	-0.13910696172095616	8.399608168970609	12.979411243102984
O	-0.5025326842619684	9.653885761931264	12.581172227576733
O	-1.7551930013327217	9.824762410464466	12.058199459814432
