74

O	1.2709245710491808	3.1276782141639345	-0.23027807397213151
O	0.5643200810491806	0.9663261611639347	0.9957330770278684
O	-2.2293073089508195	0.49782475376393465	-0.4343499419721315
O	-1.0625297129508193	1.5827728241639347	-1.0934853169721315
O	1.5058944710491806	0.6448994301639346	-0.9124898549721315
O	-1.8575163109508195	2.331913044163935	-1.8510512329721314
O	-4.074325218950819	2.2624476441639345	-3.1198246929721316
O	-5.39331665895082	2.0531581041639346	-3.113240702972132
O	-5.83424591895082	1.0255051921639347	-2.3236120229721315
O	-4.80755496895082	0.38980878416393466	-1.7001647929721315
O	-3.6099205189508194	0.9928841151639347	-1.3278805429721317
O	-3.0769250989508192	1.8920749641639345	-2.2009130929721317
O	0.5179609710491806	1.6188159241639348	-0.36877813397213155
O	-0.9040201769508194	13.818805584163934	-7.009010922972132
O	2.4958804010491806	14.919481084163934	-5.8883502029721315
O	5.30504014104918	10.606599484163935	-9.663408812972131
O	2.2782908310491807	-0.3277294148360653	-14.879751382972131
O	4.28773262104918	2.5210124541639347	-13.318648782972131
O	7.37123141104918	-1.5047004158360653	-8.679813492972132
O	7.69745247104918	-0.07728466283606539	-5.1880866829721315
O	9.281197541049181	1.5447201541639348	-3.2309060429721317
O	-3.3642374589508193	12.161035084163935	-0.7271111839721315
O	-2.8229425289508194	11.106233284163935	2.9108920070278685
O	-5.004276208950819	10.332945424163935	5.958124607027869
O	-6.251238328950819	6.7788216341639345	6.500032807027869
O	-7.25240446895082	5.282628434163935	9.866697217027868
O	-9.693407688950819	2.4348699441639345	8.82164514702787
O	-10.53034206895082	-0.6987053458360654	10.70447941702787
O	-12.14577745895082	-6.025746775836065	8.408988717027869
O	-7.813290248950819	-2.8479553658360657	6.664491247027868
O	-6.188570878950819	0.6271034011639347	7.182167667027868
O	-2.9018878189508195	2.433893814163935	8.054348827027868
O	-1.5866153319508194	5.758237224163935	6.670265987027868
O	1.6920992410491804	7.648825904163934	6.338101037027869
O	3.9726382210491806	9.264469094163935	3.7913200170278687
O	6.952067251049181	6.057359274163934	6.532010067027868
O	3.9950938210491804	4.273366074163935	8.13994539702787
O	2.0927511410491806	1.6380833941639348	6.066625377027869
O	-0.17704321895081954	-0.9337629958360653	7.725455307027868
O	-2.2568873989508194	-2.3775542658360656	4.880558817027868
O	-3.4610400089508193	-6.039741165836065	5.024119467027869
O	-5.37564022895082	-8.240981165836066	2.459821107027868
O	-5.267250608950819	-12.010621315836065	1.9843048270278683
O	-9.876448078950819	-6.035904795836066	-0.5925548984721315
O	-7.08476073895082	-9.140390545836066	-3.2332211129721316
O	-5.465941778950819	-6.244354385836066	-5.218929012972132
O	-5.86564028895082	-8.292340455836065	-8.391101282972132
O	-3.5846431589508194	-11.115151815836066	-7.116310282972131
O	-0.08483040895081939	-12.383986815836066	-3.2151591129721315
O	-3.1674231289508192	-10.302017915836066	-2.4597172529721316
O	-1.6629639969508194	-7.813548075836065	-0.024217988972131566
O	0.8529585710491805	-7.619291095836065	2.7793683570278684
O	2.0615803210491808	-4.091122065836066	3.7461953870278686
O	4.17882845104918	-3.5983041458360656	6.931187347027868
O	6.33155893104918	-0.4353952528360654	6.4245296170278685
O	7.80349820104918	1.2974221021639347	9.519554417027868
O	3.405265061049181	-2.9216426758360656	-5.551945022972132
O	1.1103403510491807	-0.23466513483606533	-4.280696262972131
O	3.0836750410491804	3.0722781041639347	-4.133924922972131
O	0.17252831104918065	5.121704694163935	-5.344155382972132
O	-1.9769758579508194	4.6786669241639345	-8.49745746297213
O	-3.1975472789508195	2.1895050641639346	-9.51329477297213
O	0.31570178104918045	0.8385632771639346	-8.664699112972132
O	-0.8398646749508194	-2.7785596458360655	-8.898612382972132
O	1.8121921010491806	-5.387825175836065	-8.286167452972132
O	0.09279834104918061	-7.228195065836066	-5.5377953629721315
O	2.1671800610491805	-6.558955355836066	-2.4569307529721316
O	4.52092967104918	-8.559025795836066	-0.3489122509721315
O	6.4009255410491805	-5.7145855858360655	1.4354130670278686
O	7.51078177104918	-6.248216625836066	5.024299127027868
O	9.88425224104918	-3.4135518858360654	6.0031393670278685
O	3.375926611049181	12.613635184163934	-0.5991077291721315
O	6.15271437104918	10.000383934163935	-1.2066913149721317
O	7.148800701049181	8.181163174163935	-4.391393112972131
