74

O	-0.5763280904821425	-1.047594452089286	-0.8856831137857146
O	-1.6953378644821426	0.26478553691071427	-0.9542759737857146
O	-2.2476078924821428	0.11586291091071424	-2.1780053577857146
O	-1.8373774144821424	-0.9206840720892857	-2.9643474577857147
O	-2.0488991904821425	-1.1607320720892857	-4.404213237785714
O	-0.7741711584821425	-1.5268053320892858	-5.1715199977857145
O	-0.6186886844821424	-3.0342490520892857	-4.943638157785715
O	-0.07162837248214249	-3.033266122089286	-3.269262837785715
O	-0.8250425044821424	-1.6747041820892856	-2.4365181077857145
O	-1.8519232684821425	1.2956524529107143	0.41923480221428544
O	-0.8511056044821425	2.3783662479107144	0.5137682322142852
O	-1.5648851084821425	0.5756362569107143	1.6864500522142851
O	-3.4125204924821424	1.9433065279107142	0.4810634822142853
O	-3.0404911124821425	-2.0924098020892856	-4.816716527785715
O	0.3710640775178575	-3.6429178220892857	-5.897786127785714
O	-0.30795716648214244	-4.2321015620892855	-2.4794991777857147
O	1.3587658875178574	-2.691931572089286	-3.232114587785715
O	-2.7341999624821423	-2.410210192089286	-6.219896307785715
O	-11.885256852482142	5.218814377910714	-8.455816707785715
O	-8.668305412482143	11.490583857910714	-5.989452667785715
O	3.3519559675178576	11.494751157910713	-9.343277307785716
O	0.07541132751785762	12.341467157910714	-7.569151747785715
O	0.5334233575178575	9.901430537910715	1.2597209922142856
O	-1.6067621214821424	10.065084187910713	3.3550077322142853
O	-10.581587972482142	-5.905045232089285	-6.4800940077857145
O	-13.169098852482142	-3.2217940620892858	-6.985932597785715
O	-11.497809452482143	-0.6545216620892857	-4.780605207785714
O	-11.292877152482141	-2.5266009120892856	-1.4513531307857146
O	-11.032317982482143	-6.163344142089286	-0.30230650878571463
O	-7.5974149624821425	-7.735343962089286	0.12059936821428541
O	-6.801162072482143	-10.693975842089285	2.3851200722142853
O	-3.6124930924821426	-12.191053142089286	0.7414683922142854
O	4.907927747517858	-14.529072042089286	0.9247844322142854
O	1.8328934075178576	-9.785988442089286	1.4166761722142853
O	-1.7850610114821426	-8.535647402089285	2.007530902214285
O	-3.9957623724821425	-6.386511982089285	4.329633732214285
O	-7.046201272482142	-4.254102012089286	3.3851036122142855
O	-9.077786872482143	-1.3287991020892858	4.706371642214285
O	-10.251187312482141	2.1569035579107143	3.780039742214285
O	-6.358522602482143	-0.8755554120892859	8.229305812214285
O	-3.1726308624821424	-1.2791154620892857	6.0430805822142855
O	-0.8634762824821425	-4.302170672089285	6.511709732214285
O	1.3295574975178575	-4.298999002089285	3.382719482214285
O	4.949970057517858	-5.5996529520892855	3.569085602214285
O	7.798612527517857	-5.701337102089285	0.9341893522142853
O	11.566293147517857	-5.604419042089285	1.5096702022142852
O	6.804121707517858	-7.273959462089286	-4.594342067785715
O	6.967837377517858	-5.920196522089285	-8.159889967785714
O	10.147130847517857	-3.642474372089286	-4.210704327785715
O	7.637608177517858	-0.9387415420892857	-5.403901957785715
O	10.325558247517858	0.5388860219107142	-7.590251637785714
O	12.589591547517857	1.3556101049107143	-4.584217297785715
O	10.723458247517858	-1.1105485720892858	-0.9785997327857147
O	7.614792697517858	-1.237932512089286	1.1970576122142855
O	6.637938327517858	-0.9453028020892857	4.840145502214285
O	2.9005889375178575	-0.31901780508928573	5.538347482214285
O	1.5598459075178575	-0.5618723870892857	9.148334512214285
O	-1.5771094554821425	1.6780778479107141	9.379896672214285
O	-4.062301162482143	1.0853981819107141	12.243358172214286
O	3.7276994275178574	6.524031577910715	-0.9890987487857146
O	0.9937277875178574	4.089071407910715	-2.0023221777857145
O	-2.407916222482142	5.762382497910715	-1.4268584727857148
O	-3.8973352124821425	4.413104837910715	-4.6010528677857145
O	-2.5955635224821423	4.654685617910714	-8.208879837785714
O	0.15513109751785747	4.1531164579107145	-9.175929567785715
O	0.9892911875178574	6.231003837910714	-6.058320827785715
O	4.645549677517858	5.185844517910715	-6.150551697785715
O	6.846660177517858	6.727620557910715	-3.494058917785715
O	8.133331097517859	3.540212607910714	-2.0421204177857146
O	6.645871017517857	3.356523057910714	1.4156934622142852
O	4.666888527517857	4.404736317910714	6.801909152214285
O	4.286364667517857	3.038846967910714	10.311752772214286
O	1.1270651075178577	4.528809867910715	11.871250172214285
O	-7.636156742482143	9.586098437910714	-0.31047266278571467
