71

O	-0.43562675084727237	1.2093860727054544	-1.4810116413636365
O	-0.11918261484727233	3.8682575457054544	-0.4017112333636365
O	-0.6433498518472723	1.8220585557054547	1.1152474066363636
O	0.048525771152727604	2.1919091157054544	-0.13699812436363656
O	-0.6058326448472724	0.18303723270545452	-3.5336555533636367
O	-0.29129957384727234	1.2834019007054545	-2.799080633363636
O	1.4241890681527276	1.9666293357054543	0.3961275466363634
O	-1.5283022938472723	-0.07289321629454548	-1.3361131903636365
O	-1.6528838718472723	-0.49557961129454553	-2.9970611433636365
O	-2.2445756518472724	-2.9681845942945455	-5.488385803363636
O	-2.4703677418472725	-1.1429785742945455	-3.8714288133636368
O	-2.1155340418472726	-1.6554885242945452	-5.090429523363636
O	-1.1646902308472724	-0.8329387642945455	-5.700364233363636
O	-0.2789563998472724	-0.27785840029454545	-4.840905013363637
O	-2.1970096618472725	-3.2651747942945453	-6.861377753363636
O	-1.4177663948472725	-4.526863384294545	-7.1122184933636365
O	-0.19242072884727235	10.623953025705454	-11.127028533363635
O	6.698519038152727	11.103935225705454	-8.264984583363637
O	12.000301738152727	-0.1866845362945455	-8.712756073363636
O	11.260040338152727	3.4470183357054545	-7.800680713363636
O	8.747685368152728	4.054005705705454	1.0241206966363634
O	7.902989858152727	6.4922572657054545	2.5646632066363635
O	-9.768695141847273	5.185029755705455	-8.373401623363637
O	-8.435564241847272	8.475277305705454	-9.610598553363637
O	-5.541396591847272	8.647432805705455	-7.192483493363636
O	-7.334320331847272	8.454403875705454	-3.8236384233636365
O	-10.581331501847272	6.962061185705455	-2.467868263363637
O	-10.579370721847273	3.3975529957054547	-1.1535943673636364
O	-13.051596261847273	1.9734601457054546	1.3782882066363635
O	-12.945036961847272	-1.8373311442945455	0.5975169466363635
O	-8.483100081847272	-5.416654184294545	2.3858060366363634
O	-8.954435751847273	-1.5901948642945456	2.1007740866363633
O	-8.073113621847273	1.8002819757054547	3.7136211566363633
O	-7.334048021847273	5.115644495705455	1.9167775566363634
O	-5.6896148518472724	8.483063195705455	2.6311600066363634
O	-2.9698300318472723	10.762973125705454	1.2810986466363636
O	-4.312576651847273	7.110873785705454	6.658580766636364
O	-3.1825190218472725	3.6494417657054545	5.2770948666363635
O	-4.965934591847272	0.4600106911054545	6.439808496636363
O	-3.868520161847272	-2.2012839542945453	3.932392796636363
O	-3.510724241847272	-5.868983874294545	5.033313656636364
O	-2.2362016618472724	-9.010253134294546	3.1459821566363635
O	-0.5883201808472723	-12.137224374294545	4.570247086636363
O	-3.7604477018472724	-10.051866474294545	-2.3931856933636366
O	-2.2706821018472723	-10.452543374294546	-5.881437923363636
O	0.9014226581527276	-11.357310374294546	-1.4158151223636364
O	2.3412630381527277	-8.281755094294546	-3.2800071933636366
O	4.963169418152727	-10.547368474294545	-4.837539453363636
O	6.484504718152728	-11.486838974294546	-1.4350732953636367
O	3.258688268152728	-10.061459774294546	1.7444532066363636
O	1.7044957481527274	-6.893358464294545	3.1452543166363633
O	1.3385932181527278	-5.068076294294546	6.438240166636364
O	0.27399421815272773	-1.3746348042945455	6.213248926636363
O	-0.7234519402472723	0.5493239187054545	9.394153966636363
O	-0.04925150584727234	4.295028375705455	8.792747846636363
O	7.160533548152728	-0.6967380242945455	-0.27400441736363657
O	3.875789688152728	0.3858891457054545	-1.8184084623636365
O	3.988931938152728	4.282767515705454	-2.0510626533636365
O	2.2359374781527275	4.228603445705454	-5.427682813363637
O	3.2050730381527277	2.3623083657054544	-8.650216543363637
O	3.9680755081527277	-0.4811928982945455	-8.928620953363637
O	6.053448088152727	0.3930523625054545	-5.8262124233636365
O	6.695567918152728	-3.2670752842945454	-4.997093313363637
O	8.851889218152728	-3.9158905942945452	-1.9709290333636365
O	6.458088778152727	-6.0724670342945455	-0.0943895503636365
O	5.427790348152728	-4.038774424294545	2.9093359966363637
O	6.165350998152728	-4.180026684294545	6.580091536636363
O	5.207738398152728	-0.6031060042945454	7.617416266636364
O	3.6157244981527272	-0.041675707294545505	11.010322766636364
O	3.523843978152728	3.7148675057054548	11.723831966636364
O	5.093053558152728	10.710251525705454	-2.4116298633636366
