26

O	-1.4686423809264557	6.283746529721536	11.594127258491106
O	-1.7878862733615986	5.330617781749288	12.451814153227001
O	-7.291331258662268	1.3345632557618505	16.787513359875174
O	-5.83900614711665	1.4297661096762937	16.62997925123541
O	-2.772979377996401	6.695966151146844	11.294124882307237
O	-3.05106777070239	5.299423451577152	12.892456162240432
O	-5.4336790713902	1.3111806141714464	18.05442127238559
O	-3.6095746806967117	6.408505082414456	12.422876047407984
O	-5.34362354156755	-0.11376922976648673	15.964887208181551
O	-0.3359625769594228	7.237284477936738	11.303832774719215
O	-3.8574265283782516	7.489614194213692	13.52239585265787
O	-2.8637629458422733	7.823271879001731	14.455935560309797
O	-1.9181871535325712	8.882746651001016	14.223038560660815
O	-2.072472248969998	9.723299955519227	13.124340574535008
O	-3.3693164061651286	9.749138695876436	12.659132538698184
O	-4.173585292247966	8.592089530552542	12.879116501651815
O	-1.0470652070377406	10.707377042760747	12.741113134817699
O	-3.706795343664836	4.681786648069865	13.955311312830187
O	-5.00565834183708	4.884365643539576	14.438959154873743
O	-5.707807085259178	3.955387885408796	15.242680640566661
O	-5.238966262304382	2.7832036666117523	15.732312604646216
O	-4.093226721081141	2.502789873152634	15.09873079626908
O	-3.4137487000155846	3.340261594629071	14.218126378229293
O	0.2954265345239806	7.833855595259202	12.334261582972886
O	-0.6827950398278366	8.198854866694187	10.387816464121688
O	0.5825910426455589	6.430841095242235	10.723656901858371
