74

O	-2.4408953140961542	-0.8874576764423079	-0.936725739619231
O	-2.6054874140961544	-0.3802006924423079	0.442022777380769
O	-2.687727194096154	1.0648123775576919	0.13881363238076905
O	0.1864726749038459	-1.223389372442308	0.8442042461807691
O	-1.349251216096154	-0.8369845304423079	1.534922919380769
O	2.9480934759038457	-3.410390482442308	2.3692932603807693
O	-1.205744528096154	-1.223600352442308	2.822898360380769
O	3.524023625903846	-1.159919522442308	1.892645270380769
O	0.0348505709038458	-1.5224072724423081	3.309877060380769
O	0.973251845903846	-1.566399172442308	2.2797912803807687
O	2.592988425903846	-1.999109542442308	2.622528620380769
O	2.759255575903846	-1.586336272442308	4.330497920380769
O	1.857639845903846	-2.593787872442308	4.777135110380769
O	0.4380863459038459	-2.225090502442308	4.540476910380769
O	4.148785425903846	-1.639888072442308	4.551894660380769
O	4.707736575903846	-2.081685062442308	5.851353140380769
O	5.1718445959038455	-1.069906382442308	6.673489880380769
O	5.8421753059038455	-0.15424368744230796	5.8470361403807685
O	-0.006637243096154155	-1.762014522442308	5.806838600380769
O	0.9748406659038458	-1.7460745724423081	6.860481750380769
O	1.9444510059038458	-0.5675429994423079	6.793283790380769
O	-4.102424414096154	-0.8736745934423079	1.061658609380769
O	-8.426327324096155	-1.573813432442308	12.99562144038077
O	-10.927860884096155	4.8241067875576915	10.07301906038077
O	-1.2687525060961542	12.463362817557693	8.05693298038077
O	-4.746768474096154	10.892425817557692	7.915326620380768
O	-6.434840544096154	7.6592108375576915	-0.4924485396192311
O	-8.848753354096155	6.162918877557692	-1.460751969619231
O	-1.4494424170961542	-9.881988092442308	9.49122525038077
O	-4.652283704096154	-9.218052862442308	11.34663954038077
O	-5.969960744096154	-6.638553712442309	8.92757072038077
O	-6.021422414096154	-8.600857752442307	5.650970610380769
O	-4.1283636240961545	-11.534214882442308	4.121531270380769
O	-1.0058522570961541	-10.907848882442307	2.0803318303807687
O	0.4241398689038458	-13.179301382442308	-0.6223622896192309
O	4.193265425903846	-12.200579782442308	-0.640354539619231
O	6.269215065903845	-7.205385502442308	-3.2270758196192313
O	2.770561615903846	-8.477835632442307	-2.1766208496192307
O	-0.9768702040961541	-8.447784392442307	-3.0617336896192313
O	-3.974581104096154	-8.341389802442308	-0.6678182496192311
O	-7.690516874096154	-7.498691182442308	-0.716813579619231
O	-7.469382784096155	-6.162279922442308	-4.978753139619231
O	-4.1543319040961535	-4.249120892442308	-4.419031899619231
O	-0.9142481770961541	-5.342963542442308	-6.105176179619232
O	1.8398312559038459	-3.505626842442308	-4.199153079619231
O	5.067941605903846	-2.457832962442308	-6.0285063496192315
O	8.151770095903846	-0.40389339444230793	-4.854181009619231
O	10.497772315903845	1.7607247175576919	-6.929798099619231
O	10.404313315903845	-1.2425799324423081	0.5342336633807689
O	11.253140815903846	0.604426993557692	3.7079301203807686
O	10.537464715903845	3.5034602875576923	-0.9630886296192309
O	7.625728855903846	4.4079171775576915	1.420911862380769
O	9.489850165903846	7.561114657557692	2.3986856303807693
O	9.407925745903846	8.985828647557693	-1.1780766896192312
O	8.171506495903845	5.282862887557692	-3.887538709619231
O	5.229509685903846	2.975595357557692	-4.558356549619231
O	2.9366320159038457	1.9760863675576918	-7.391581589619231
O	-0.30670261909615415	0.16727535055769205	-6.407625299619231
O	-2.518613894096154	-1.456609582442308	-9.11141465961923
O	-6.138005524096155	-1.563321602442308	-7.774121219619231
O	-1.2942194620961542	7.239979177557692	-0.1570851896192309
O	-1.296943249096154	3.9447456175576923	1.667492476380769
O	-4.883570324096155	3.119997867557692	2.7262257703807693
O	-3.933848134096154	1.813998237557692	6.078063960380769
O	-1.719211484096154	3.3718899375576923	8.810802540380768
O	0.883850065903846	4.725525427557692	8.47949110038077
O	-0.9908546350961541	6.315616537557692	5.549245440380769
O	2.189213395903846	7.664496577557692	3.9778806803807694
O	1.732850555903846	9.679422347557693	0.815908209580769
O	3.9843994559038456	7.685038817557691	-1.384989509619231
O	1.7065191959038457	6.000555957557692	-3.870460069619231
O	-2.420498334096154	4.703714707557692	-7.781199159619232
O	-3.248860184096154	2.7726540975576923	-10.929828659619231
O	-6.9555145940961545	1.825573077557692	-10.85009555961923
