73

O	-0.23703189886666676	2.597356332966667	1.9893744113666667
O	1.4309584681333334	4.573838242966667	1.0141098213666666
O	1.072483178133333	2.1883689329666667	-0.2148224756333334
O	1.2000582981333334	2.905176362966667	1.0701656413666667
O	-2.355990601866667	1.568821392966667	2.9997659113666666
O	-1.9174872458666667	2.774831302966667	3.4094213513666665
O	2.264989498133333	2.0978423329666667	1.6944916713666667
O	-1.3437270768666667	1.3072668939666667	1.6350454413666666
O	-4.193399511866667	0.11244425996666685	2.0994651113666665
O	-0.6024931548666668	2.904986662966667	3.2348727313666665
O	-3.3649446118666666	-0.5160909470333331	1.4040960013666666
O	-5.434811871866668	-0.5920372570333331	2.4708921213666666
O	-3.652756461866667	1.0174894259666667	3.0344926613666665
O	-3.035837231866667	14.364532942966667	7.612768711366667
O	-0.4390773348666668	16.375133542966665	5.812855241366667
O	9.284908418133332	3.845651952966667	4.765520381366667
O	9.862397518133333	5.684785082966666	2.4707158113666665
O	-10.644381451866668	8.652945892966667	1.3948945713666667
O	-9.491991641866667	12.120798042966667	2.2943250813666665
O	-5.798869121866666	11.366735942966667	1.9949359413666667
O	-5.557728011866667	10.173136692966667	-1.6291538486333335
O	-7.8444534318666665	8.436396892966666	-4.1506303186333335
O	-7.905531731866667	4.638735092966667	-4.287761368633333
O	-8.913016911866666	2.566529072966667	-7.329641658633333
O	-10.051898181866667	-0.7886580770333332	-5.730074328633333
O	-10.089911201866666	-4.197582357033333	-7.291308508633334
O	-11.891392581866667	-7.441365367033334	-6.674639898633333
O	-9.430025141866667	-9.497426757033333	-4.518801858633333
O	0.2617791981333333	-11.462087357033333	-3.691342898633333
O	-3.1858505818666667	-10.246733757033333	-4.773457438633334
O	-3.720192141866667	-6.671401197033333	-6.019376028633333
O	-6.201036311866666	-4.912865507033334	-3.7040840386333334
O	-5.915491621866666	-1.187009857033333	-4.695928818633333
O	-3.6190550118666667	1.462367461966667	-6.283424488633333
O	-3.280839271866667	5.167771642966667	-5.388912368633333
O	-0.8093311708666668	8.034622072966666	-5.774129058633333
O	1.1931985281333333	10.531763442966668	-3.7454367786333336
O	4.568715318133334	8.170464532966667	-6.852279308633333
O	2.148367208133333	5.3958366729666665	-7.866133398633333
O	1.615975128133333	2.4966135429666667	-5.404214318633334
O	0.0761228381333332	-0.8282833870333332	-6.3906575386333335
O	-0.8944708848666668	-2.529914897033333	-3.101821908633333
O	-0.7975931578666668	-6.391561917033333	-2.8758981786333333
O	-1.4290943268666667	-8.786655817033333	0.12305355536666661
O	0.005691128133333168	-12.265111557033332	0.7151811413666667
O	-5.815948151866667	-7.886462217033334	3.8822557313666666
O	-1.7454019458666667	-9.619231657033332	6.067204221366667
O	-0.8682433548666668	-6.168666867033333	7.581879361366667
O	-0.02273736186666686	-7.905607067033334	10.854451251366665
O	2.813157788133333	-9.969915157033332	9.277495321366665
O	2.1363643181333334	-9.536374557033332	4.5966169213666666
O	2.2772459581333333	-6.9440994470333335	1.8267048013666667
O	4.089698328133332	-6.263726037033334	-1.4227944086333333
O	3.854770008133333	-2.635737747033333	-2.7321816586333334
O	5.140998668133333	-1.8491498070333332	-6.297215818633333
O	6.1812646181333335	1.865957772966667	-6.381043948633334
O	6.463545178133334	3.6515087929666667	-9.771061318633334
O	6.325302678133333	-0.18112089103333318	6.066762581366667
O	3.067433878133333	1.5031458399666668	5.0753543213666665
O	3.749891398133333	5.247243152966666	4.492387521366667
O	0.5762019681333332	6.350795572966667	6.139160211366667
O	-0.7344297928666668	5.559800552966666	9.640182491366666
O	-0.8223070858666668	2.955027782966667	11.023599751366666
O	2.7132216981333332	2.700706722966667	9.524460821366667
O	2.892740648133333	-1.0482751670333332	10.146003251366666
O	6.119836088133333	-2.730998377033333	9.154528391366666
O	4.677382428133333	-5.3023159770333335	6.871150521366666
O	5.849894518133333	-4.3327892270333335	3.4186709913666666
O	8.335175458133333	-5.668586337033333	0.9679274853666666
O	8.853913178133332	-2.588536917033333	-1.2688837586333332
O	9.432542618133333	-3.085613057033333	-4.972869748633333
O	10.535706618133332	0.24148196296666685	-6.502270098633334
O	5.852692828133334	11.363375642966668	3.7363827313666667
