71

O	0.6293082782260001	0.8470500425672726	-1.6483874404272725
O	0.37698564322600014	3.6859627545672726	-1.2017211714272726
O	0.9963103622260002	2.125635424567273	0.7534801985727275
O	0.24730024822600016	2.1209789445672724	-0.5370677084272726
O	1.687325462226	-0.5843148734327275	-3.1043732714272725
O	1.5510302122260002	0.6660713195672725	-2.5877627314272726
O	-1.0866417917739999	1.9578774145672726	0.07831595557272741
O	-0.39678315117399987	-0.46687280543272747	-1.9278123714272726
O	0.4922645622260001	-1.2259497954327274	-3.1874265014272725
O	1.4002422422260001	-4.195056155432727	-4.945966881427273
O	0.3409426032260001	-2.1052053154327277	-4.215225861427273
O	1.3481450522260001	-2.8373699654327273	-4.776298561427272
O	2.514210032226	-2.0779304754327272	-4.8738410914272725
O	2.717808162226	-1.2654456654327275	-3.8122206214272722
O	2.299994022226	-4.752142095432728	-5.869891421427273
O	2.951787932226	-6.017375945432728	-5.383732941427273
O	7.258652972226001	8.071816334567274	-10.902790661427272
O	10.984450662226001	9.716924744567272	-4.631263751427273
O	14.786593362226	-0.9329667954327274	0.6546755185727275
O	13.857066862226	2.7333813045672724	0.1272230675727274
O	6.5231424722260005	4.912287404567272	5.227681378572727
O	5.057807062226001	7.532249994567272	5.372852908572727
O	-2.303027717774	2.5063081945672723	-13.447432261427272
O	-0.30317121020399984	5.576755604567272	-14.288286261427272
O	0.5171498312260001	6.487897224567273	-10.717413091427272
O	-2.966047977774	6.830982264567273	-9.186243031427272
O	-6.446039407773999	5.375911004567272	-9.801090371427271
O	-7.4551442077739996	2.1689199345672723	-8.032282411427273
O	-11.036290537773999	1.0849913955672725	-7.290965841427273
O	-10.697159537773999	-2.7814067154327278	-7.009066911427273
O	-8.472065857774	-5.5226422854327275	-2.1665939814272726
O	-8.447776077774	-1.8903139854327276	-3.4888511114272722
O	-8.539127837774	1.8209624245672726	-2.4442073814272725
O	-6.663933197774	4.749474324567272	-4.079696821427272
O	-5.606656337774	8.321434784567272	-3.2543057014272723
O	-2.502410127774	10.504640914567272	-3.123366931427273
O	-7.057922687773999	7.924634734567272	0.9574806085727274
O	-5.524818987773999	4.363909464567272	1.3266463585727275
O	-7.8276038177739995	1.3376275645672726	1.8154426185727275
O	-5.583537887774	-1.6744179554327274	1.1311894985727273
O	-6.1877241477739995	-4.995568435432728	2.9753040685727274
O	-4.2123773977739996	-8.334779425432728	2.9772843985727278
O	-3.962769627774	-10.951256285432727	5.737426678572727
O	-2.0998684177739997	-10.619651485432728	-1.9591511914272726
O	1.184485272226	-11.589387185432727	-3.643083351427273
O	0.9139767122260002	-11.288113785432728	1.8948639185727274
O	3.368342572226	-8.545890605432728	0.6820621985727275
O	6.2588462022260005	-10.849348785432728	1.5701089485727275
O	5.328338952226001	-10.937162285432727	5.2967900785727275
O	0.9225845722260001	-9.174760335432728	5.465734388572727
O	-0.9753365897739998	-5.932809715432728	4.915434508572727
O	-3.167759127774	-3.511585805432728	6.823603208572727
O	-3.657129997774	-0.04752011143272744	5.216164398572727
O	-6.274190277773999	2.392863144567273	6.633521118572728
O	-5.155616497773999	5.980189404567272	5.780740118572727
O	5.7834978622260005	-0.12131954043272741	4.284286518572727
O	4.193492312226001	0.3353969163672726	0.8750508285727274
O	4.654030112226001	4.101837824567273	-0.061308983427272534
O	5.328058362226001	3.211636494567273	-3.6985063514272722
O	7.948989912226001	0.8129535195672726	-5.179753911427273
O	8.554338352226	-1.9520953054327272	-4.322641071427273
O	8.360658132226	-0.2873047034327274	-0.8690181669272725
O	8.147999772226001	-3.6325942754327274	0.9367735885727275
O	7.967482632226	-3.461554825432727	4.700743408572727
O	4.805423972226	-5.386311485432728	5.1457716985727275
O	2.276363902226	-2.8777486354327273	6.381372388572728
O	0.6117906272260002	-2.201988045432728	9.669993038572729
O	-0.5696062897739999	1.4151678745672727	9.118151568572728
O	-3.864940087774	2.519280894567273	10.629633938572729
O	-4.153457637773999	6.320158494567273	10.315975138572728
O	6.119946052226	10.389904614567273	-1.0426625544272725
