9

O	-5.373371332906291	-0.59364926488997	16.203753392029135
O	-5.76541069328626	1.0601587047576793	18.27985994691433
O	-6.465682299045595	3.6709014272614295	16.09149137396392
O	-5.588578014261734	2.1718184169719708	16.061838681095438
O	-7.553506801732244	0.8126915397660304	16.963062361925047
O	-4.458195813205167	2.6122763924762045	15.474046814128597
O	-4.655037786853419	3.5777494557024863	14.529935982937195
O	-5.370674971342322	4.582775110364603	15.117340578567578
O	-6.078502643253586	0.7472507629650247	16.88445257261206
