25

O	-5.58779553976646	0.8410646393121648	18.341782769288876
O	-6.003910344495588	0.6917216646839188	16.942949020934407
O	-7.45380076926451	0.7927114649528697	17.098128910183185
O	-6.2485391591334825	3.4625933319562607	15.962479412897315
O	-5.3441406534946605	1.992558755083862	16.020094534007455
O	-6.820241533990496	5.7365004948267035	13.252133668202589
O	-4.484880673477199	2.118585091146792	14.983668964438307
O	-5.651604780023301	6.939434270375934	14.906273243406662
O	-4.186308828441249	3.4111190378693013	14.57757179683344
O	-5.238234332599035	4.2679966077821945	14.89482528926766
O	-5.598223475798552	5.735360472150958	14.09899736869479
O	-4.26590559161116	5.7960516983217385	13.073646573629084
O	-3.9728514349105266	4.586713926162442	12.410505799939122
O	-3.3051204372995464	3.801089516539658	13.489849330038693
O	-2.1234017731920787	4.5506263058024174	13.612339307231078
O	-1.4595852217246854	4.711454456648592	12.361592613060031
O	-3.269740723051898	6.71346474643237	13.290275979963805
O	-3.169768742903347	7.6132856313845485	12.235142029283441
O	-1.8682063489841436	7.991886265300936	12.099443026572068
O	-1.0917360979423707	8.202046019256596	13.19539588529509
O	-1.800460336230561	8.141279233951284	14.395588152803176
O	-5.450626768222786	-0.7390189287546285	16.26138657918102
O	-2.6923657739568148	7.096538573517068	14.44566134999026
O	-1.3002161668480587	8.892815419568414	15.41543790961683
O	-0.650556808959438	10.090006956215891	15.102911024346454
