22

O	-5.240176203079764	2.7239270260188606	15.735071910945695
O	-5.453642048819823	-0.9898373215321139	16.483017893321254
O	-4.601910600434964	1.7335982044116942	13.745443900899026
O	-3.8683585484653484	5.332419936788062	14.410716266106608
O	-4.757855419510262	2.8935402786058773	14.419907996983913
O	-2.857518774584668	2.025218401701067	14.935654759052653
O	-5.605607147405871	0.6285281713899122	16.6539474095208
O	-3.328890272992912	3.2450296160228653	14.616663088396399
O	-5.265204113494819	3.7291924118838056	13.602115045567448
O	-2.795680702226403	3.64350829483102	13.320047129760017
O	-1.6533636670124938	4.086781724731344	13.602111776145641
O	-3.4978758589941976	4.333695804127261	12.233783760872761
O	-4.030617278855737	5.396320091534228	12.917925219532922
O	-4.737905418935679	3.5055358457944275	12.379736056927008
O	-1.9315507664451523	6.502503042202095	13.211361077566204
O	-3.3292482355093824	1.32952875307986	13.86809998146562
O	-3.7590736434950367	5.289002892419397	15.29008584583307
O	-2.5665007776939768	1.6610757142202317	12.655922784437275
O	-4.617873819564215	1.5908256322011711	16.118343585743006
O	-3.562857892792644	-0.09005934287732575	13.952861037349404
O	-5.974631034149974	0.9188703951085282	18.21767204481021
O	-7.015574326289984	1.0279081315431582	16.123494060687587
