71

O	1.8961341193529415	2.902331434588235	-2.4660462069215683
O	2.3748320293529415	0.24319557458823493	2.0816210530784316
O	-0.5537557436470586	2.497464544588235	-1.731809826921569
O	1.9647250793529414	-0.637275985411765	1.1334602160784313
O	0.38041128135294144	0.708095489788235	-2.7991106169215687
O	1.4298214293529414	-0.179448734411765	-0.06864248992156874
O	1.2930767893529413	1.151269460588235	-0.3469752369215686
O	2.1080079993529415	1.9400189045882348	0.41410858807843126
O	2.6332491693529416	1.491077440588235	1.5954915840784314
O	2.9915150093529417	-0.3239071854117651	3.283902313078431
O	3.146931529352942	-1.547754695411765	3.4704618530784312
O	3.8019653493529417	0.568587002588235	4.010466313078432
O	4.690382919352941	0.04787904158823497	5.0426428930784315
O	3.8225865993529413	-0.804032735411765	5.927262883078431
O	2.8515315393529415	0.045381988588234945	6.481072403078431
O	3.5684838693529417	0.970303970588235	7.256683693078431
O	3.3156943593529418	0.618137647588235	8.696837033078431
O	3.160595589352942	-0.762973375411765	8.767137193078431
O	4.423589229352941	-1.324508365411765	8.704299083078432
O	0.7471075853529414	1.794600314588235	-1.861467686921569
O	8.583348619352941	11.994915714588235	5.737337423078431
O	9.726805189352941	11.743997614588235	2.1954291830784314
O	-5.720881340647058	11.105798814588235	7.972515033078431
O	-3.8827299106470585	12.721629214588235	5.039286053078431
O	-5.551038200647059	8.078735734588234	-2.6745269669215688
O	-4.450690740647059	8.578439964588235	-5.420771886921569
O	13.44250275935294	0.989766125588235	2.0458000030784316
O	14.445376159352941	4.534048594588235	1.2803650710784313
O	11.204574059352941	5.480372114588235	-0.4091405169215687
O	11.032326659352941	2.902001994588235	-3.2264214069215686
O	12.25473035935294	-0.6670575554117649	-3.8176332369215693
O	10.062815559352941	-3.596633325411765	-2.815082946921569
O	10.188564159352941	-7.094038785411765	-4.316481656921569
O	8.715252999352941	-9.293087885411765	-1.4670498369215685
O	2.8604446093529416	-9.581423985411766	-0.2541661469215688
O	5.0818161493529415	-7.221883085411765	-2.3514681669215687
O	5.2306593393529415	-5.023053235411765	-5.512562866921569
O	6.994134699352942	-1.6406009754117648	-5.932944796921569
O	6.926774779352941	1.386769636588235	-8.249479976921569
O	3.4496014893529416	-0.257517615411765	-10.52609033692157
O	1.6123851493529415	-1.366453635411765	-7.2929086269215695
O	1.0118568493529414	-5.090892205411765	-6.586155386921569
O	0.06048249935294145	-5.176170285411765	-2.8840455969215686
O	-2.3507806306470584	-7.836974045411765	-1.5470608069215686
O	-3.9626375006470584	-8.451467395411765	1.9295800730784314
O	-7.285930070647058	-10.081893785411765	2.7957577930784314
O	-0.7812475546470585	-7.865727605411765	6.814468853078431
O	-0.5927102266470585	-5.840647275411765	10.03377543307843
O	-5.414034040647059	-6.242379265411765	7.327323123078431
O	-4.317526450647059	-2.533791535411765	7.200521763078431
O	-6.6848201706470585	-1.815423065411765	10.08438757307843
O	-9.796586590647058	-2.857805415411765	8.07922504307843
O	-8.059079030647059	-5.165445395411765	4.3110843630784315
O	-6.026106680647059	-4.547205015411765	1.1609422070784312
O	-6.356610130647058	-4.843807055411765	-2.5896077069215684
O	-3.7688822206470585	-2.9427607154117648	-4.692815586921569
O	-2.0720423306470583	-0.34341093541176504	-10.105096236921568
O	-5.955485470647059	4.393472014588235	0.9280973960784313
O	-2.2606216606470584	3.7091880845882352	1.1348156240784313
O	-0.3605204286470586	6.394182694588235	-0.8392548269215687
O	2.4114380193529414	6.672298884588235	1.6967168010784313
O	2.2267052793529416	7.266076474588235	5.464363993078431
O	0.4402072103529414	5.970571574588235	7.418953573078431
O	-2.1318507606470583	6.630895794588235	4.641171733078432
O	-4.6694221306470585	4.240665974588235	6.183358973078431
O	-7.962827910647059	3.940996134588235	4.372929333078432
O	-7.932770760647059	0.24892129658823503	3.8470457230784314
O	-7.531160160647059	-0.215485361411765	0.12326624207843129
O	-7.848744400647059	0.10410814758823494	-5.686972986921569
O	-7.850179730647059	-1.8480252554117649	-8.92876013692157
O	-6.384885360647059	0.35320909858823496	-11.69201973692157
