73

O	0.206977604215	3.2811748567833336	0.14363774420000053
O	-2.272410174785	1.2126908787833335	-1.8528387397999997
O	-0.522344285785	0.7252788447833335	0.5640241402000005
O	-1.046457480785	1.6788907067833336	-1.9327581297999994
O	-1.314065862285	2.4058758367833333	-3.0358515397999994
O	1.317049734215	1.0884769887833334	-0.6492777797999995
O	-3.615823555785	-0.09983360421666654	-3.7197516097999994
O	-4.384396275785	0.13499221278333345	-4.799692959799999
O	-3.8329689757849996	1.1087258767833335	-5.5832989797999995
O	-3.168153795785	2.0798316467833335	-4.870851059799999
O	-2.312293355785	1.8270113667833336	-3.7867147897999995
O	-2.757589775785	0.7758657627833334	-3.0755174297999996
O	-0.030802305784999984	1.7072490967833334	-0.4793397412999995
O	-2.383484855785	14.127034546783333	-6.317399329799999
O	-0.2848974557849999	15.898192446783334	-3.7724497597999997
O	5.039707024215001	13.272302446783334	-6.128691379799999
O	8.309751074214999	6.016173506783333	-10.2019683398
O	10.401764174215	2.2454473267833333	-4.864696939799999
O	8.797298974215	3.0681945467833334	-1.5385460707999994
O	8.862768074215	4.691813816783333	0.9785623902000006
O	-6.474020945785	10.732510246783333	-1.8178612797999993
O	-7.1204743357849996	9.195383906783333	1.6186534002000004
O	-9.947893085785001	7.308732246783333	3.3698981502000005
O	-10.060158735785	3.5098330567833336	3.1952845902000004
O	-11.756591825785002	1.2287606597833336	5.7486878602
O	-12.499468325785001	-1.9813518532166663	3.6810195502000007
O	-12.914070225785	-5.515149703216667	4.880590680200001
O	-11.631383125785002	-10.553622153216667	1.8248656102000003
O	-8.277002475785	-6.020134733216667	2.2643609102
O	-8.247312335785	-2.4069069332166664	3.6482763202000004
O	-6.367856695785	0.09364388278333347	5.8894632302000005
O	-5.798984045785	3.8442317967833337	5.3294111302000005
O	-3.483456355785	6.602566356783333	6.529381420200001
O	-1.050646893785	9.228634236783334	5.3165483602000005
O	1.4686481342150002	6.545117966783333	8.9418792102
O	-1.114993378785	3.7452693267833337	9.0378823502
O	-1.0247169817850001	1.1189205647833336	6.163086840200001
O	-2.776385295785	-2.2378523432166664	6.599214220200001
O	-2.961970505785	-3.6874781832166668	3.0862104202000005
O	-2.835604505785	-7.525217123216667	2.5710649402000003
O	-2.737088455785	-9.655836553216666	-0.6843003927999995
O	-1.205395904685	-13.102156753216667	-1.2089840807999996
O	-6.102467015785	-8.360885313216667	-5.2803128498
O	-1.627105737785	-9.979504453216666	-6.578083619799999
O	-0.40678210278500004	-6.440818893216667	-7.5442859998
O	1.1931572542150002	-7.916322943216667	-10.6537488298
O	3.5653755342150006	-10.168268153216667	-8.6292304998
O	5.417284294215	-11.075962353216667	-3.6464565897999996
O	1.7957344842149998	-10.108846753216667	-4.2242346498
O	1.2793657642149998	-7.756041263216668	-1.2903089067999995
O	2.263711404215	-7.379067283216667	2.3363814702000005
O	1.759388294215	-3.8887983632166665	3.8834407302000007
O	2.137164164215	-3.402293403216666	7.693579520200001
O	3.1393993542150005	0.2625811237833334	8.3402130602
O	2.5774846842150003	1.7650164867833333	11.8111078702
O	6.238709464215	-0.7680873032166665	-3.8498307897999995
O	2.8771084442150006	0.8953231057833335	-3.6105449397999996
O	3.320518084215	4.511764776783333	-2.4461348597999995
O	0.7800279942149999	5.933402596783333	-4.732948209799999
O	0.358261454215	5.467631366783333	-8.5412029998
O	0.509479574215	2.9419628667833337	-10.0792818498
O	3.6159155442150004	2.4823391867833333	-7.836444189799999
O	3.8833812042150004	-1.2173951332166664	-8.7025015198
O	6.767727104215001	-3.0484620332166665	-7.102627349799999
O	4.811886154215	-5.760280283216667	-5.4557104997999994
O	5.135555034215	-5.093438893216667	-1.7485151597999993
O	6.968778644215001	-6.6980116932166665	1.0958226702000005
O	6.940635214215001	-3.8129501032166666	3.6444157802000006
O	6.621204664215	-4.634260103216667	7.329347190200001
O	7.329047174215	-1.4727557032166665	9.3638462802
O	-0.913512673785	12.994572946783332	1.2443140202000005
O	2.5573058342149997	11.402680246783333	1.7854401002000002
O	5.2801800042150004	10.538119166783334	-0.7149483897999995
