18

O	-1.2890910507925284	8.555849745488219	13.961219725124042
O	-2.181947135567424	7.548828247562601	14.48151889433582
O	-4.335970386157735	4.608766111392331	14.724130260824008
O	-5.66368880440686	0.81944820915274	18.301184053317723
O	-6.217431187542507	3.4202886917253674	15.684324938816529
O	-7.462343241039962	1.027430834871292	16.985667869360555
O	-5.640424741905038	4.56061148267723	15.135871357219848
O	-5.426289318861086	-0.483404087535904	16.096988864485546
O	-5.424281252380371	2.3980820918917076	16.11624379466392
O	-3.7439265252165685	3.3835957030791755	14.749612488887912
O	-4.228774351709712	2.32431951266532	15.463863982161952
O	-3.81999890384024	5.6994433653617875	13.949677931704551
O	-2.5058244570367663	6.281913268178261	13.888318978019289
O	-4.676737600057468	6.543078364213523	13.507672608256154
O	-0.25728219039236944	9.01421449115256	14.793151248574448
O	-1.866795884049358	9.800208294350018	13.62180173300877
O	-0.5825326751826116	8.287828221369988	12.786619518598314
O	-5.997979660671676	0.9364633529900823	16.85939123648501
