70

O	0.994807309859649	2.5883798275964907	-0.5230584241175443
O	-0.6956978631403509	0.946938696596491	0.6259945820824557
O	-1.2811644131403508	-0.991152872403509	-1.9721167479175443
O	0.02757696985964908	0.13713039759649093	-1.8596787579175442
O	1.3497096598596492	0.3044716198964909	0.5793034820824556
O	0.4425918798596491	0.13127658359649091	-3.1090569079175445
O	0.16463100985964907	-0.983529992403509	-5.421976097917544
O	-0.7363139851403508	-1.535727212403509	-6.264841177917544
O	-1.687399298140351	-2.3747017924035094	-5.711030007917544
O	-1.571167291140351	-2.554212442403509	-4.358628067917544
O	-1.1219733874403508	-1.452856712403509	-3.6294093679175443
O	-0.08105525314035089	-0.6971819624035089	-4.054298297917544
O	0.3909555098596491	0.9939218755964909	-0.36583229451754434
O	6.824776079859649	7.826885817596491	-10.583800587917544
O	8.25566269985965	10.38413110759649	-8.243570207917545
O	12.22867754985965	6.071545927596492	-5.715986997917544
O	12.64286514985965	-6.351455792403509	-4.536603667917544
O	13.14256174985965	-2.621704462403509	-3.8753223079175445
O	8.59637402985965	-0.0902986994035091	3.7027890420824554
O	8.298682079859649	2.6543067375964906	4.872622742082456
O	-4.476538230140351	6.621495657596491	-10.977324287917543
O	-1.6749266101403508	9.00301867759649	-11.732721687917545
O	0.22493291985964903	8.40135967759649	-8.527911167917544
O	-2.395031910140351	9.32512075759649	-5.888581227917544
O	-6.2061963701403515	9.25444741759649	-5.618111387917544
O	-7.953286360140351	6.118139817596491	-4.374742357917544
O	-11.38910825014035	6.010838167596491	-2.7262675779175445
O	-12.55401175014035	2.367355967596491	-3.4363310079175444
O	-10.56095395014035	-2.3597442424035093	-0.3263307919175443
O	-9.38728755014035	1.301974541596491	-0.7744416749175443
O	-7.744644500140351	4.290869057596491	1.0201441020824558
O	-5.3248818401403515	6.882236377596491	-0.4425392161175443
O	-2.789428560140351	9.466958957596491	0.7592834620824558
O	0.8524304898596491	10.45655280759649	0.34006168108245566
O	0.0869637798596492	9.93548962759649	5.4199553520824555
O	-3.2608175201403506	8.15304956759649	4.999589962082456
O	-3.162446310140351	4.378653017596491	4.0022661720824555
O	-6.302659600140351	2.243229727596491	4.554075862082456
O	-5.666170620140351	-0.910726172403509	2.5335363820824557
O	-7.103434310140351	-4.2979216824035085	3.695159742082456
O	-6.666698630140351	-7.8999629324035086	2.3052229620824556
O	-6.824938750140351	-11.22382769240351	4.159233612082456
O	-6.820753760140351	-8.94459402240351	-3.4465693679175446
O	-3.500398370140351	-11.73147979240351	-1.0879298569175444
O	-0.5213753851403509	-9.63728662240351	-2.403006987917544
O	1.351005699859649	-12.859922792403509	-3.0991428279175444
O	1.3528171498596493	-13.910363692403509	0.6048406520824556
O	-1.8384774861403508	-11.05588189240351	2.6607181620824556
O	-2.388864320140351	-7.407710192403509	3.5439742120824556
O	-2.952673950140351	-5.182983092403509	6.548251842082456
O	-2.3919151801403506	-1.410288522403509	5.9860115820824555
O	-3.4218998901403506	1.120728037596491	8.676562002082456
O	-1.204393717140351	4.244176927596491	8.308788842082455
O	5.776549829859649	-4.063566392403509	1.9862520320824555
O	3.767093639859649	-1.9876222824035088	-0.43872775641754436
O	5.361295209859649	1.496559847596491	-0.6881142959175444
O	4.914359099859649	1.702502327596491	-4.430967987917544
O	5.859897069859649	-0.7795766724035089	-7.200514437917544
O	5.532788289859649	-3.7084955224035094	-7.233073137917544
O	6.826434479859649	-3.2936021424035093	-3.6294551579175445
O	5.728411279859649	-6.811043042403509	-2.6670163479175444
O	6.499433499859649	-7.851515632403509	0.8744740720824558
O	3.032823699859649	-8.75613262240351	1.9069544220824557
O	2.0456885798596494	-6.145253942403508	4.449843602082456
O	1.5890795198596492	-6.114495142403509	8.172598282082456
O	1.826660349859649	-2.326949242403509	8.828152372082457
O	-0.3188646541403509	-0.821724852403509	11.565674812082456
O	0.8477177698596492	2.761203127596491	12.207530312082456
O	4.385244689859649	11.09656300759649	-3.9192352679175446
O	8.95185194985965	6.9867370975964915	-0.6602286909175443
