17

O	-2.3922940987893355	6.441567472171053	14.352099412694585
O	-3.9997876678603146	3.1121907186698605	15.067266853081396
O	-5.72658629724464	1.3317001512318538	17.98139970661635
O	-5.8196511361358425	1.3943997432675284	16.466479604937916
O	-3.5486593717559134	7.197178884109043	14.549556397848992
O	-5.30170000293025	-0.18164549749511627	15.998990768487564
O	-7.291068793970458	1.4140042382286728	16.47909149542931
O	-5.919944101366704	4.131723163335835	15.209263883257792
O	-4.672840810955031	6.498086963974048	14.123005963652888
O	-4.810839600305406	5.1277736462139245	14.361234780909417
O	-3.6969641255274945	4.321233372369461	14.590538647679754
O	-2.5584313630227555	5.1004531397114174	14.189367182152814
O	-5.078548941700667	2.7450365336841616	15.675932506077551
O	-1.4348761426484131	7.137471620963096	13.641020262917463
O	-3.557172579317568	8.51470352579747	14.306003846184058
O	-5.244388119621412	6.932664592022925	12.997222436915235
O	-1.8114579096809242	4.496410091136367	13.269128069658912
