19

O	-2.7111519572406095	6.839362369218252	13.227068987636583
O	-4.723130359533304	4.500568116274108	12.961008091106935
O	-5.813598241964131	6.8154720345980095	12.057882678660635
O	-5.377057926736347	6.062198823961842	13.233472591093971
O	-2.0588495747856896	8.082427669602238	13.381712910850272
O	-3.890243918961617	2.6342196098416273	14.204926280984733
O	-6.492722368652756	6.012707758432065	14.205257388708468
O	-5.830115478531157	3.514235130206959	15.221467584727545
O	-2.2666386520038477	8.771188809338899	14.575057136982632
O	-3.981884150626281	2.0473246954691673	15.36853296823522
O	-5.6945363486033616	0.94018882265354	18.292961017773653
O	-5.996407397210453	0.8299827211344293	16.85906233384695
O	-3.0860730810645496	8.135286097555902	15.466789917753681
O	-5.5605400178919515	-0.7193587860884283	16.309280248749616
O	-7.432320550804892	1.130009011461222	16.898041455766375
O	-3.8108950159608184	6.962307083901358	15.203248003598581
O	-3.9312797410843285	6.796617674389242	13.82764019914076
O	-4.457542630205875	3.8363079889956264	14.202181850744665
O	-5.237471083898714	2.032410369862762	15.880009891097046
