76

O	-0.2539009436782458	2.4008557732950817	-1.834191452695082
O	0.9780856703217543	1.7935883932950816	0.35525185730491793
O	-0.48816524767824576	0.19478670989508165	-0.303194559695082
O	0.41882517032175415	1.1867884832950817	-0.857052548695082
O	1.7724676103217543	0.32377993729508164	-1.603973652695082
O	1.6027001303217543	0.6164345232950816	-3.024726162695082
O	0.2891573133217542	0.8007579812950817	-3.404365832695082
O	2.2219184403217542	-0.3582502487049184	-3.948386292695082
O	1.4178123703217542	-0.6005486937049184	-5.044386692695082
O	2.396378800321754	-1.5770687967049182	-3.167244412695082
O	3.326511140321754	-2.401471466704918	-3.659370532695082
O	1.679829000321754	-1.8962480967049182	-1.947276452695082
O	1.857616120321754	-0.9089800167049183	-1.039800633695082
O	2.209021060321754	-3.2645047767049182	-1.500043282695082
O	2.341530840321754	-4.111412536704918	-2.586403452695082
O	4.946115300321754	6.455597773295081	-12.555964632695083
O	2.535771530321754	9.309841013295081	-12.269196632695081
O	5.839777960321754	11.787135613295082	-7.411730902695082
O	11.036307170321754	9.759046433295081	-0.45715547529508205
O	2.890101040321754	8.70190655329508	3.6178725073049183
O	0.23933269232175425	9.849289253295082	2.800462457304918
O	0.7035664303217543	-4.108522866704918	-12.692914432695083
O	0.8236486303217542	-0.8846333667049183	-14.626598132695083
O	0.32019885732175424	1.3636127332950818	-11.632686132695081
O	-3.010919699678246	0.06971210829508165	-10.259818582695083
O	-4.893109539678246	-3.2586277867049183	-10.19946430269508
O	-4.280355349678246	-5.692945606704918	-7.343664232695082
O	-6.7468560796782455	-8.35608077670492	-6.171840692695082
O	-4.440439589678245	-10.984655186704918	-4.478513182695082
O	-5.296657699678246	-13.45010418670492	-1.787591182695082
O	-1.6429872466782458	-15.678766886704919	2.451064327304918
O	-4.245610569678246	-9.901906186704919	4.099342097304918
O	-2.068216639678246	-10.22920938670492	0.976343447304918
O	-3.7796904596782457	-7.893929996704919	-1.594740602695082
O	-6.087598279678246	-4.833438546704918	-2.010150092695082
O	-5.902742829678246	-2.075630406704918	-4.674065642695082
O	-7.1411245596782456	1.4899445132950815	-5.247081712695082
O	-5.867884419678246	4.984758003295082	-6.022976662695082
O	-3.9057053396782457	9.82570081329508	-1.1377738266950819
O	-4.830380929678246	10.681546313295081	2.466676917304918
O	-8.803274589678246	5.431464243295082	-1.789036872695082
O	-8.913360189678246	1.6656721932950815	-1.156999117695082
O	-5.835408419678246	-0.006408105704918343	0.483078192304918
O	-6.110444299678246	-3.4524704467049183	2.109202117304918
O	-2.5213107896782456	-4.619333866704919	2.564181067304918
O	-1.5137890146782458	-6.8724497967049185	5.493477317304918
O	1.922403770321754	-8.22008186670492	6.687026527304918
O	3.008942430321754	-9.160030506704919	10.213251967304917
O	5.876253930321754	-10.247247686704918	2.9157738773049178
O	8.639945170321754	-4.654494036704918	4.478155297304918
O	12.070345070321753	-4.410151586704918	6.054862757304918
O	10.629072570321753	-3.867011486704918	9.581820167304919
O	6.047509320321754	-5.063130826704918	9.191906387304918
O	2.836870850321754	-3.9133623067049186	7.521914477304918
O	-0.6533948763052457	-2.7870649567049184	8.447840237304916
O	-2.627308879678246	-0.9825898667049183	5.677379807304918
O	-6.376843949678246	-0.24399484870491833	6.151564347304918
O	-7.268848729678246	2.828246183295082	4.000953787304918
O	-10.944939529678246	3.4465395732950816	3.089480627304918
O	5.268696100321754	4.243459713295081	4.701879067304918
O	4.332709990321754	2.606940493295082	1.3915734573049179
O	2.903398290321754	5.261691883295081	-0.979931426695082
O	4.656539000321754	3.9009278932950817	-4.010449862695082
O	8.380164140321755	3.183550223295082	-4.538360172695082
O	10.217165670321753	1.7590449532950818	-2.722159842695082
O	8.431850720321755	3.9625720232950816	-0.135394387695082
O	9.745460670321753	1.8956047632950814	2.775941277304918
O	8.777104290321754	3.096012613295082	6.218556697304918
O	7.190890430321754	-0.050755517704918346	7.437150097304918
O	3.5086062703217538	0.7341887192950817	7.7124075573049184
O	-1.712496739678246	3.137628873295082	8.710167837304919
O	-5.291650929678246	2.5094291032950817	9.747933767304918
O	-7.5437844196782455	5.092768483295082	8.052760417304917
O	-2.213958109678246	7.267214383295082	-9.551693782695082
O	-2.1182303996782457	9.04284344329508	-6.131463922695082
O	0.8105748003217542	10.55513801329508	-4.232584442695082
