14

O	-7.291738094436525	3.134221451554674	17.24043195721342
O	-4.72968172516001	4.083010141796594	14.577476246343748
O	-5.301652029894956	-0.8805841054537265	16.288980378209164
O	-5.567655489331083	0.7698523557774073	18.393630698942623
O	-5.927494108113433	0.5259071652073707	16.97900337948888
O	-4.484474351919595	2.831226660202586	14.103249010173084
O	-4.715805330705786	2.6055795074551185	12.726096305546779
O	-7.396410633513896	0.7088595089912342	16.92908591043179
O	-4.510080272787016	1.7485986012491765	14.982910206132802
O	-4.8587503518837085	3.666689214580315	11.919605333923329
O	-5.270357677646131	1.9094903809775268	16.108375125587568
O	-5.464175828457475	1.6667965427791873	12.486356188250436
O	-5.791872755355158	3.130668650021108	16.41378502062147
O	-5.607944722221762	4.189575809326877	15.610405659047407
