77

O	-8.977500665170211	1.7886023004468086	3.997149828344681
O	-8.310030305170212	0.5758301044468086	3.4584603683446815
O	-7.504807305170212	-0.2381130665531913	4.414986848344681
O	-7.231148525170212	-1.4841840895531915	3.518853698344681
O	-7.036863955170212	-0.04954731355319131	1.694922588344681
O	-6.345116275170212	1.2394401224468088	1.287669083344681
O	-5.3028065451702115	1.1119686194468086	0.34736232632468117
O	-3.967239365170212	1.3505962994468086	0.7205934543446811
O	-1.898947725170212	0.9778600934468087	-1.460989711655319
O	-6.137769185170212	2.2759436304468084	2.192420918344681
O	-4.892264895170213	2.8271424304468087	2.2188455883446814
O	-3.780602915170212	2.0918147104468083	1.8145108983446812
O	0.46380561482978777	1.4075646944468088	-2.4274478716553185
O	-7.4860438351702125	2.0202363404468087	5.777115278344681
O	-2.892173249570212	0.08358570244680863	-1.0610614716553188
O	-1.7039153551702122	1.9871540504468086	-2.2719893716553186
O	-0.6592562551702121	1.8122599104468087	-3.0243385816553188
O	-6.855819585170212	1.1897161724468086	6.652988558344681
O	-7.102567905170212	-0.8530085095531914	0.7051667433446811
O	-3.691945652170212	-1.2424340895531913	1.0854420763446813
O	-8.780985175170212	1.6531760294468087	5.410623128344681
O	-6.333738745170212	-0.8914642995531914	2.6339172183446813
O	3.030315184829788	1.9217359404468086	-2.345719671655319
O	-1.708614665170212	-0.05386937155319138	1.238563572344681
O	-2.938062619660212	-0.07854386555319137	0.5995185803446812
O	-0.25515411517021214	0.4824918434468086	-1.155744571655319
O	1.9376732448297878	1.5980843804468088	-4.773240261655319
O	2.430746894829788	-0.20835398055319132	-2.8224724016553187
O	2.033565974829788	1.1775430984468087	-3.1387241616553188
O	-7.4031864551702125	3.253708080446809	6.009213068344681
O	-8.034960115170211	11.07469050044681	-8.47454862165532
O	-6.580604145170212	8.93282092044681	-11.14544139165532
O	1.6895096948297876	15.02536330044681	-1.634319931655319
O	8.733632874829787	7.196778310446808	-5.626850991655319
O	-9.801697355170212	-4.427267239553192	-10.16629629165532
O	-10.049129485170212	-1.3898158295531915	-7.79317520165532
O	-10.067238845170213	0.9917938924468086	-10.725469291655319
O	-6.4532119951702125	2.0352247104468084	-10.41723069165532
O	-4.626982695170212	-1.3167376295531912	-10.738229391655318
O	-5.410793435170213	-4.980466419553192	-9.998816191655319
O	-4.625438925170212	-6.488237129553191	-6.618211501655319
O	-3.943207545170212	-10.12996689955319	-5.805028961655319
O	-4.941979585170213	-10.370504299553192	-2.0305896416553186
O	-1.442092355170212	-8.38078114955319	2.4288756883446814
O	-1.497872535170212	-7.94365232955319	-1.420075521655319
O	0.6316379948297879	-7.364680689553191	-4.581977181655319
O	-0.11572770517021214	-5.183411599553191	-7.667706261655319
O	4.707237404829788	-3.885762219553192	-5.315149521655319
O	4.438278034829787	-6.6127637295531905	-2.639383681655319
O	2.695770794829788	-4.894196179553191	0.25962422044468114
O	3.4143091248297877	-5.893839759553192	3.8887592683446814
O	2.2167271948297875	-4.430341209553191	7.271506888344681
O	4.0537357748297875	-4.490788149553191	10.619985808344682
O	2.482873874829788	-7.088964739553191	12.92863460834468
O	-4.030584435170212	-4.519068059553192	11.502032508344682
O	-3.2705602181702123	-2.829284209553191	8.192919468344682
O	-5.418237225170213	0.1922237824468086	9.12489966834468
O	-3.3102695321702122	0.9393238544468087	12.206025108344681
O	-0.05224542517021202	0.16544347344680865	10.41645910834468
O	-0.5507103751702123	2.9762791104468085	7.813344768344681
O	-0.5724473751702122	5.512656510446808	10.643790408344682
O	3.935093194829788	0.5924605084468086	9.501334138344681
O	4.5303028048297875	-0.8087176195531913	6.043133978344681
O	7.281883574829788	-2.5494857895531915	4.111211438344681
O	6.910335794829788	-2.5743795395531914	0.28578537504468116
O	9.413769774829788	-3.1115490095531912	-5.391162481655319
O	5.313082264829788	6.749062800446808	1.3077815813446811
O	2.3626573348297875	5.166239810446809	-0.4510147886553188
O	2.493186854829788	6.123401180446809	-4.150502151655319
O	-1.226787055170212	6.595289810446809	-4.4267840716553195
O	-3.4904767401702124	8.83638778044681	-2.3392618516553187
O	-3.6611290871702122	8.979465310446809	0.6434168313446811
O	0.17427367482978795	9.12967388044681	0.17614710834468117
O	0.8671597448297881	8.481208090446808	3.875280428344681
O	4.443563304829788	4.970650020446808	6.355772698344681
O	6.659275124829788	2.9085520104468086	4.085658328344681
O	13.726087974829788	-1.9103281395531915	-4.125153811655319
