68

O	-1.3848413050103445	1.4654088615517238	0.42880909076551815
O	-0.6129293395103446	2.0781038265517235	1.4021196089655181
O	0.41295850748965557	2.8356753065517237	1.102445629965518
O	-0.6717513185103445	1.0846639011517238	-0.9759874300344817
O	-2.3963182525103446	0.6113329685517237	1.089237550965518
O	-3.0030874925103443	0.9346091925517237	2.268916549965518
O	-2.1135527145103445	1.6928988635517237	3.1005381599655184
O	-1.4293710529103445	2.612460406551724	2.4048760199655184
O	-3.9658502525103447	-0.11776849344827633	2.717042139965518
O	-1.9643123395103446	3.9618552565517238	2.5893974799655184
O	1.2702569474896555	14.691698416551723	1.2896659449655181
O	4.627533547489655	14.546299416551724	-0.37310077903448186
O	1.8985841074896554	13.555509316551724	-6.054021920034482
O	0.08730055748965548	2.4205929065517235	-9.607089320034483
O	3.056781617489656	2.249130126551724	-9.244411130034482
O	-0.5724540415103445	8.048702996551723	10.342922069965518
O	1.4044380374896557	10.993683736551723	9.126142909965518
O	2.3672782774896555	9.525752176551725	5.801382739965518
O	4.097808697489655	6.281466946551724	6.821106669965518
O	4.0390338074896555	3.8859417965517236	9.795490189965518
O	1.6516951374896554	0.9360962585517237	9.745974129965518
O	2.0816532174896554	-2.320729633448276	11.676774479965518
O	-1.5753425795103446	-3.6007943034482763	11.997483879965518
O	-2.778504132510345	-7.122739263448276	12.445338979965518
O	-5.8971412725103445	-8.781109023448275	13.744132379965517
O	-6.872740272510344	-12.493312483448276	1.1739855319655181
O	-3.3417942225103445	-9.495168583448276	5.949380769965518
O	-4.539495472510344	-6.195771443448276	7.482012919965518
O	-1.3106641439103446	-4.096899413448277	7.758302329965518
O	2.2227463174896553	-3.578762473448276	6.316845999965518
O	4.130014867489655	-0.3005519034482762	5.833311549965518
O	7.043183697489655	1.1053962005517237	3.8283889099655184
O	7.860353107489655	3.832365876551724	1.327045227965518
O	7.446819777489655	3.199453196551724	-5.755810130034482
O	7.785919287489656	0.40817988355172374	-8.347288190034483
O	9.527847297489654	-0.5936173634482762	-0.7728980500344818
O	7.615028177489655	-2.786322143448276	1.6972880899655183
O	3.812692767489655	-3.254042853448276	1.1280127419655182
O	1.9155629674896555	-6.106490093448276	2.8013874199655184
O	-1.7495239325103444	-5.198900413448277	2.435478509965518
O	-4.4403948425103446	-7.9135524434482765	2.101243059965518
O	-8.265780572510344	-7.737775523448276	1.4704492599655181
O	-11.506055602510344	-1.222034533448276	-1.643442970034482
O	-10.753179842510345	-6.2619854434482765	-3.521621930034482
O	-7.093000372510344	-6.070120553448277	-2.5191564000344817
O	-3.8564761125103444	-7.961961473448277	-2.975112880034482
O	-0.6169450275103445	-6.077367603448277	-2.145181060034482
O	2.746046277489656	-7.929612933448276	-1.9710467800344817
O	5.552043147489655	-5.3967515934482755	-2.739681060034482
O	9.135297197489656	-6.202155213448277	-1.6612614500344818
O	-4.339562112510345	0.8201794145517237	-7.478921370034482
O	-3.5664715025103444	2.1545826665517236	-4.047859160034482
O	-0.49181238151034457	4.423321806551724	-4.270002680034482
O	-1.8874904055103445	6.958046586551724	-1.873836890034482
O	-5.210121422510344	8.859535646551723	-2.0191442100344816
O	-7.895143852510344	7.762987316551724	-2.553356270034482
O	-5.951142132510345	5.9071597665517235	-5.308163850034482
O	-8.787627182510345	3.4332880765517237	-5.881684410034482
O	-8.209184372510345	0.8650006155517238	-8.578538950034483
O	-8.759813972510344	-2.1804561334482764	-6.500599080034482
O	-5.3765123425103445	-3.846865573448276	-6.286782040034482
O	-0.09451575251034461	-6.109938313448277	-7.310047910034482
O	2.3136363374896556	-8.919293183448275	-6.509859000034482
O	5.890771257489655	-7.595193463448275	-6.8163704700344825
O	6.837588477489656	9.267057516551723	0.7939465739655182
O	6.802014577489655	7.5045614065517245	-2.6286551300344816
O	4.668309727489656	8.160941336551724	-5.702262880034482
O	5.8506506574896555	5.553343966551724	-11.786284920034483
