75

O	-4.606405769	-0.38210890311538437	-0.19013152939615405
O	-4.086434809	-0.8698998171153843	-1.3823268370961541
O	-2.754108919	-0.31838779811538437	-1.5223415370961542
O	-1.9501448620000004	0.1815245774846156	-0.468170013096154
O	-2.5623254500000003	0.6437121008846156	0.656207946903846
O	-3.9034485790000004	0.4523089738846156	0.698751222903846
O	-1.6373099330000005	1.3390185168846156	1.9238741429038462
O	-0.8163618690000003	0.5409011828846156	2.838398172903846
O	-0.5951629390000004	2.2026009968846156	1.334269442903846
O	-4.990924129000001	-1.3838064031153845	-2.807801387096154
O	-4.1158330890000006	-2.7743364431153843	-2.024791487096154
O	-5.086495929000001	-3.7189537831153845	-1.9821115070961541
O	-4.9503397090000005	-5.1192293931153845	-2.555074727096154
O	-4.718520179	-4.427698063115384	-3.763433187096154
O	-3.4947145390000003	-4.2971368731153845	-4.151759657096155
O	-3.2541164090000003	-3.2239245131153846	-3.179872927096154
O	-3.4713699590000004	-4.176544333115385	-5.644901107096154
O	-3.5677272190000004	-5.384355583115385	-1.9164920870961542
O	-2.7229144440000006	2.2092593068846154	2.970659532903846
O	-5.629821529	-1.1125836531153845	0.22373040490384594
O	-4.496823179000001	0.4869069838846156	1.892633292903846
O	-2.0628062474	-1.2480819431153845	-2.247809827096154
O	-1.0723118720000002	-0.8110967441153843	0.004385803903845964
O	-14.613264159	-0.7711459881153844	6.4562404129038455
O	-2.588056593	-11.969364633115385	8.857875502903847
O	-4.073060889000001	-8.961388963115384	10.700786762903846
O	1.4297944509999996	-1.7450197331153845	9.820896162903846
O	0.9732070409999996	1.0301375948846156	10.845679362903846
O	-13.118603459	3.0333307368846154	-4.2131906370961545
O	-15.319735459	3.3799230768846154	-1.174076749096154
O	-12.521303059	3.4805394168846155	1.356715422903846
O	-10.466688849	6.440471406884615	0.07465776490384596
O	-9.778258839	8.192037216884616	-3.243472877096154
O	-6.882178379000001	7.040505046884616	-5.421718767096154
O	-5.066052599000001	9.235827216884616	-7.982786097096154
O	-3.670352609	6.509748376884615	-10.416476737096154
O	1.2682662909999995	3.3193077868846155	-9.230047797096153
O	-1.0727390910000003	5.595136286884616	-7.158982897096155
O	-1.3663325930000003	7.907663096884615	-4.111706987096154
O	-4.258969619	8.128809386884615	-1.589752927096154
O	-4.879125909000001	9.582702826884615	1.886178252903846
O	-0.5605820190000004	10.603865166884615	2.4386740129038462
O	0.6315260609999995	7.259557926884615	0.8930568929038459
O	2.5625925709999997	7.178562676884615	-2.387518237096154
O	2.468907731	3.5750597068846157	-3.499742557096154
O	5.333224060999999	2.0037359368846155	-5.503372397096155
O	6.048109951	-1.6089596331153846	-6.786073177096155
O	9.273749541	-3.4245771531153846	-7.427726767096154
O	1.4732903509999995	-4.777862203115385	-8.919542157096153
O	-0.3640289590000003	-8.058376383115384	-8.474772017096154
O	4.634827861	-7.464379013115384	-6.2857025770961545
O	2.163293640999999	-7.734018513115385	-3.3530034270961537
O	3.0580769109999997	-11.408598533115384	-3.021741587096154
O	6.752765891	-10.671958933115384	-2.2197091570961542
O	7.375734141	-6.1300321131153845	-3.428301767096154
O	6.269649401	-2.6290755031153843	-2.416807997096154
O	7.704907700999999	0.6510668758846156	-1.206230267096154
O	5.275545091	3.1686308668846155	0.36829793190384597
O	6.321945000999999	6.771395886884616	1.1574135629038458
O	4.085398840999999	8.044429416884617	4.0423939129038455
O	2.328246180999999	-4.322219713115384	5.4272427629038456
O	-0.6569559590000005	-3.0087341731153847	3.4066302329038463
O	-2.7764322820000005	-1.0234612131153844	6.005046902903846
O	-6.011832009000001	-2.2451903431153846	4.465409962903846
O	-7.173725989	-5.847449823115385	3.8903122829038463
O	-5.620644379000001	-8.040503533115384	2.6599644029038463
O	-2.8872648580000004	-6.635885783115384	4.903565842903846
O	-0.10753982900000048	-8.502270963115384	3.076950472903846
O	3.3526719909999994	-8.105773303115384	4.504334322903846
O	5.047625740999999	-6.832096543115385	1.437546692903846
O	5.894593320999999	-3.2364677231153847	2.221134462903846
O	9.065531541	-1.4142105031153844	3.019035812903846
O	7.681471871	1.7418031968846155	4.727225402903845
O	9.410493341	5.0617444568846155	4.200694492903845
O	7.948281871	7.633029326884616	6.6284965529038455
