24

O	-6.458350459302745	6.389486469554052	12.9221493964053
O	-6.936565205096998	5.443842294296008	13.774801736627568
O	-6.131913672216	4.577483069369208	14.439328217152637
O	-4.7514903759432805	4.748614767284646	14.397164501680235
O	-4.298078234351461	5.8689833207454365	13.792243049410773
O	-5.144291637327465	6.754231129299999	13.18787160753078
O	-6.960604637545777	6.64357163912174	11.64087741202642
O	-6.354153078795369	7.659923775712267	10.866615160654327
O	-4.747859132674895	7.896906851404152	12.532617892937155
O	-3.3994627852265307	8.242110235181412	12.663558990738156
O	-4.043856415795255	3.537248928024204	14.389434107879122
O	-4.511196567283778	2.496696792271565	13.589101742864774
O	-5.253332376983906	1.6053144327918685	14.273278960696059
O	-5.963010031898662	1.3892626215151154	15.710114530866134
O	-5.452913091352437	2.367276476739173	16.705546332638107
O	-7.46976434893207	1.5467167092543748	15.8033564722414
O	-5.72517494311816	-0.28581196782441376	16.18627013654506
O	-5.067837555651545	3.2807690808264547	12.523074099795847
O	-4.170148056896749	3.9315036261175784	11.70613828541873
O	-4.481259693915558	4.788107520587317	10.695018467594473
O	-3.610142803731487	5.7791598430409294	10.35922466132746
O	-2.32517923824253	5.693501192312624	10.810197414323623
O	-1.9011173865235902	4.447612087657802	11.187722969738553
O	-2.8305676828180157	3.6863666556737766	11.836371004040743
