70

O	0.6491478855614036	1.1462702248807015	-2.7207222690263158
O	-0.9284654654385964	0.8362769038807016	-0.6876864140263159
O	1.1623131555614035	1.8618691988807017	1.6423252009736842
O	1.6288913755614036	1.3412602148807018	0.05445867697368412
O	0.3289708095614037	-0.8357123311192984	-1.1797692590263158
O	2.904953415561404	1.6796595288807017	0.08141127067368412
O	4.8074141455614035	2.6389781488807014	1.5333026909736842
O	5.342150215561404	2.6995554888807014	2.7640481109736843
O	4.495198215561404	2.550315008880702	3.848857440973684
O	3.1807010355614036	2.7117963788807016	3.503411860973684
O	2.6884073655614036	2.437288628880702	2.223576740973684
O	3.527336345561404	2.1326399288807014	1.2038494209736843
O	0.4717011475614037	0.6661328218807017	-1.083246439026316
O	10.858910045561403	5.841337288880702	-8.549411099026315
O	9.387246765561404	4.681610288880702	-11.794939409026316
O	10.568868045561404	-1.4205169011192984	-10.342155409026315
O	12.213760445561404	-8.177888271119299	0.03107833097368412
O	11.294994245561403	-7.156337621119298	-3.5336448390263158
O	4.936165195561403	-9.728414421119298	-3.183430539026316
O	2.1898945755614037	-7.6078575911192985	-4.729736979026316
O	0.5865649355614037	-6.849312841119298	-7.146166149026317
O	4.682444315561403	12.846924478880702	-2.052036879026316
O	6.483797995561403	12.607167178880703	-5.343413129026316
O	5.2170791955614035	9.160749838880703	-6.226890979026316
O	1.4257371955614038	9.687146278880702	-6.154959519026316
O	-1.0354881214385965	11.967690078880702	-4.327238029026316
O	-2.4601929644385963	10.894355278880703	-0.9715405890263159
O	-5.770321764438597	12.089223278880702	0.49941586897368406
O	-5.235225674438596	11.580443878880702	4.318314640973684
O	-5.6571300244385965	6.214784688880702	6.984877900973684
O	-5.249641264438597	7.424323548880702	3.323152660973684
O	-6.232553934438597	6.668752778880702	-0.32498313502631593
O	-4.133809964438597	7.185838118880702	-3.495964519026316
O	-4.0371015044385965	6.003439138880702	-7.120617419026316
O	-1.7302985944385965	4.346226168880702	-9.637593819026316
O	-6.056461224438596	1.5387508548807016	-9.609531729026315
O	-7.390549664438597	3.1425724788807017	-6.4178376790263165
O	-5.863752004438597	1.9442657788807016	-3.0375385490263156
O	-7.747378494438597	2.6416234688807014	0.2124316294736841
O	-5.210622274438597	1.9847413388807016	2.955023650973684
O	-6.343561964438597	0.6422377360807017	6.3973903709736835
O	-4.306236884438596	-0.46499100111929836	9.518520460973685
O	-5.217444114438597	-3.0211764911192986	12.182815390973685
O	0.29217892256140365	2.619251728880702	11.384228090973684
O	0.9543011055614036	-2.246031531119298	11.845349190973685
O	3.3563704155614036	-2.4150150411192985	8.810571080973684
O	5.615369795561404	-4.704173601119298	10.820384190973684
O	2.913403235561404	-7.427399141119298	11.167277590973685
O	-1.1173660764385964	-5.263564571119298	9.889909490973684
O	-2.8207477044385962	-3.7531562511192984	6.858213420973684
O	-5.927409044438597	-4.1754008311192985	4.741467210973684
O	-5.867648254438596	-2.4536951211192983	1.2937673909736842
O	-9.068389844438597	-2.2340150711192983	-0.8178815030263159
O	-8.042296614438596	-1.9974001811192983	-4.5202821590263165
O	2.6018335555614036	-6.599411111119298	0.3155035399736841
O	2.936107605561404	-2.8628904111192988	-0.1447038830263159
O	3.415887955561404	-2.1032118511192985	-3.8722545290263155
O	6.046581235561403	0.5324248194807016	-3.2667890290263157
O	9.260135085561403	0.4155065688807017	-1.1518190190263158
O	9.635230545561404	-0.7105968111192984	1.5493581509736842
O	7.490602945561403	-3.522787231119298	0.020390335973684115
O	6.742949155561403	-5.028241731119298	3.439099280973684
O	4.616509675561403	-8.141663701119299	3.4287091409736843
O	1.9230686555614036	-6.925092271119298	5.704046950973684
O	-1.1474942894385962	-6.624954301119298	3.527931720973684
O	-4.339406324438596	-8.534389841119298	3.1405363409736844
O	-5.419275914438597	-7.326582481119298	-0.3534570110263159
O	-9.119472144438596	-6.891314551119298	-1.0576968490263159
O	-9.596911444438597	-6.369414171119298	-4.815560339026316
O	4.498195245561403	-1.9244901411192983	-10.359689309026315
