16

O	-5.050868759378321	2.373310061073803	16.041288578579792
O	-5.383476996545646	-0.4894333037016154	16.170420458275213
O	-5.771644843275438	0.9474224843653336	18.27417140566012
O	-5.852920558365069	1.029720544301553	16.786497711125673
O	-3.495694702513453	3.8993269705466673	15.305892991616494
O	-3.809794303462187	2.6180981857591723	15.635624273985169
O	-7.325466395549347	1.1466449714768439	16.735136589576882
O	-5.881561433345361	3.6968945558844672	15.39676632872087
O	-4.543524458268886	4.538685064982382	14.722765392470963
O	-3.035969691960024	7.617686378307399	13.733063492107313
O	-4.241087828305175	5.480335102184748	13.787785488175983
O	-3.114029360026886	6.25173834739964	13.786970000199949
O	-2.006106913960113	5.506074551322477	14.190037957787592
O	-2.279578299883447	4.629196171432859	15.182469061344197
O	-1.8340326862041358	8.236733744419558	13.351406108480017
O	-1.5166013488814656	9.472097861966995	14.14834707689399
