72

O	-5.987027468948276	1.2170409114655167	2.870081070689655
O	-3.4689681089482765	2.3948012504655165	0.13150419668965513
O	-4.457351778948277	2.5325244104655167	1.101734900689655
O	-4.528996858948276	1.5100701404655166	1.9975154806896553
O	-3.7193961789482763	0.43633803446551656	1.8276249006896552
O	-2.7520555689482764	0.30378304446551657	0.8619916006896551
O	-2.8464502089482764	1.2158158964655166	-0.14180877331034492
O	-3.035038588948276	0.8229323334655166	-1.437914370310345
O	-1.9224120329482763	1.1768720784655167	-2.259914819310345
O	-0.9295301019482762	0.17055404546551658	-1.8246097493103448
O	0.33643151105172375	0.14797472046551657	-2.186405739310345
O	0.7537840110517238	-1.1114838695344833	-2.329973799310345
O	-0.022980258948276377	-1.7772004595344835	-1.475708137310345
O	-1.0761604449482762	-1.0307883695344835	-1.2645372193103448
O	-6.7182115189482765	6.455539350465516	-11.490671269310344
O	-3.401031348948276	6.944126080465516	-13.165983669310345
O	-3.0801868689482763	0.7432521724655166	-14.648938969310343
O	2.2175021810517235	-6.622672479534483	-7.038688899310345
O	4.536169211051724	-4.778354169534483	-7.511961439310345
O	-8.039042158948275	10.374655740465515	-0.8891996813103449
O	-7.487067648948276	11.454256940465516	-4.449849829310345
O	-4.8826159989482765	8.848592330465516	-5.247535779310345
O	-2.237851998948276	9.546534740465516	-2.582434139310345
O	-2.124819972948276	11.046988840465517	0.9359891806896552
O	-2.5526479779482765	8.763229220465517	3.944703420689655
O	-1.2476332319482764	9.427139370465516	7.448199650689655
O	-3.557739388948276	7.326665640465517	9.724719330689656
O	-2.952840788948276	5.840069770465517	13.088604230689656
O	-5.093656568948276	4.618786320465517	15.940118930689657
O	0.33157915105172364	-6.8886340995344835	12.548951230689656
O	0.04826602105172362	-0.3018414905344834	11.720514330689657
O	-3.0457199289482766	1.3406965104655166	10.303515130689656
O	-1.6961763809482764	3.9798944304655164	7.792432710689655
O	1.307778841051724	4.926186840465517	5.590937000689655
O	1.3564480110517236	6.618506550465517	2.163962880689655
O	3.6870399310517232	7.114550690465517	-0.7981894773103448
O	3.9072966010517236	6.537496090465517	-4.5379037293103455
O	6.418124891051724	0.6186045894655166	-7.683074879310345
O	8.928527681051724	-2.1380282795344834	-6.842767019310345
O	8.151485781051724	4.379634320465517	-2.503883059310345
O	6.807536441051724	4.521408180465517	1.0702538606896552
O	4.177366451051723	1.8706547704655165	2.164676370689655
O	3.549925041051724	1.2194212814655165	5.870048450689655
O	0.27999127105172383	-0.7488725395344835	5.9378212306896545
O	-0.35096247894827637	-3.355263829534483	8.705720900689656
O	-3.2467712089482763	-5.875848269534483	9.288912450689656
O	-7.996172528948277	-7.968845029534483	3.266404580689655
O	-4.226883178948277	-10.604746859534483	6.111766390689655
O	-1.7752262089482762	-7.776619869534484	5.496012320689655
O	1.8936781510517238	-6.982935369534484	5.892550970689655
O	3.2011481010517233	-3.9505887795344834	3.9109808006896554
O	6.762826071051723	-2.6173799595344835	4.591818900689655
O	8.009774011051723	-0.8654657995344834	1.3904246406896552
O	10.901069081051723	1.6461239004655166	1.6619320906896553
O	-1.2725578799482764	-7.875216779534483	-3.427775679310345
O	-2.505209464948276	-4.297839009534483	-2.869276849310345
O	-1.0760598849482763	-2.1751396395344833	-5.738034519310345
O	-4.273712058948276	-0.24782174153448344	-6.193031159310345
O	-7.832457508948276	-1.5075018595344833	-6.801188859310345
O	-9.236505728948275	-3.7108365795344835	-5.438251789310345
O	-5.818699068948277	-5.420646029534483	-5.943903889310345
O	-6.655528418948276	-8.179453329534484	-3.466538349310345
O	-3.9900245289482763	-10.801104959534484	-2.995287629310345
O	-3.6323482289482767	-10.513507059534485	0.7018260506896552
O	-0.1982732589482763	-9.050922169534484	1.244780750689655
O	5.464338011051724	-7.688025569534483	1.0909280306896552
O	8.492689581051723	-6.683148869534483	3.1230852106896547
O	10.806018881051724	-4.557327489534483	0.9432860906896552
O	0.5853186410517239	7.345450340465517	-8.920150819310344
O	2.648617151051724	4.102227370465517	-9.313057799310345
O	1.7020638210517236	0.7662652944655166	-10.888944269310343
O	6.032054411051724	-4.1923697695344835	-12.279354669310344
