23

O	0.118781157351461	9.280715497696194	13.256690926258106
O	-1.8660876274852605	3.9610446657248626	13.164066896573518
O	-1.2381233478929543	8.969545291971727	13.218311583111388
O	-5.931456143549985	0.8500360636220825	16.823668157044125
O	-3.211582835974526	7.232593282825992	12.975664205245668
O	-5.45965221647136	-0.6504403866665243	16.201612548671754
O	-5.457400901372752	6.932553579248419	14.829217063990066
O	-6.163351297353396	3.5651715370292743	15.693113790559337
O	-2.655494956314293	7.308263537336396	14.159624082829689
O	-3.9491484157163477	6.052722165737164	12.89489757310833
O	-7.398743466530721	0.9076394004204964	16.956256806712638
O	-5.326731150558395	5.8645003810609735	13.861384826917032
O	-1.6890911188642388	8.421224510952047	14.422575331980989
O	-5.5647865926684865	0.902309751432794	18.2534105421184
O	-0.24674379649568579	5.845219621088811	12.987451876573449
O	-6.532605195329105	5.8683904122719	12.991397426124895
O	-1.2556166219773326	4.912248919568719	12.301746686149048
O	-5.253368035482809	2.1082363706535845	15.8466250279715
O	-4.3306353659945245	2.2252134860491517	14.869012550437338
O	-4.0705141806497105	3.4732467819371085	14.336279072534568
O	-5.097080592721979	4.358224264262927	14.670677414517215
O	-3.255027868774643	3.8327815337532307	13.18191997312097
O	-3.6862241066906587	4.853173928575165	12.208405948650414
