26

O	-1.0604215674044868	7.337484375262698	14.052545395653995
O	-1.2700234401681154	8.517066743252961	10.690964665900147
O	-4.807283930428511	4.652195788202444	14.568318338695608
O	-5.076532727516405	0.6881216446412748	15.063772919878314
O	-6.539399498398261	2.0511192504081994	16.7206181018851
O	-5.341638851860305	2.0707749335228742	15.78081239928068
O	-4.776778428001961	5.119691566900533	13.29926214798324
O	-4.066912739264187	2.5669941230901685	16.242096321075817
O	-3.4265250913665	5.130958090254794	12.949533433442928
O	-5.682080336305448	3.552874140445467	14.721400445562734
O	-2.404807976495758	5.212573698661395	13.90658808710297
O	-5.54035161588798	6.301302151589807	13.263994432204129
O	-2.7839746504825453	5.593197085285093	15.134143420927835
O	-3.7797322322644873	4.642864777896342	15.486267982946757
O	-5.456180801419435	7.235943508701624	12.230349970830083
O	-1.289135466344117	6.0269800417561665	13.596174443929886
O	-1.7167836068738662	7.954731504635824	15.185860256989589
O	-2.406642918659205	6.8391817734159375	15.789495975301413
O	-1.2271963943410205	5.967392808053423	12.130012742454134
O	-2.591339839514215	6.6435360685764415	12.015310188565138
O	-2.4584063106071694	8.016404081141383	12.477446216585667
O	-2.3734000985388795	9.084591211469947	11.38196431241105
O	-3.296536254592951	8.29564169562114	13.61174684439802
O	-1.0742551773589648	8.21178236354124	12.982287339070346
O	-0.5900596000703926	9.559907616896822	12.826909585197406
O	-1.7553051348331499	10.266111419207654	12.13582367808229
