71

O	0.43607486966129083	2.7854598615096773	1.556898793822581
O	1.1746032196612908	1.3763425865096772	-0.6036470791774192
O	-2.0945188703387094	1.4446951125096772	-1.7883342061774192
O	-1.0943788423387093	2.3879261015096773	-0.7265073341774192
O	-0.3700869443387092	0.3673920615096772	0.6566841098225809
O	-1.4011034963387092	3.613155981509677	-1.1976741361774192
O	-2.6978279203387094	3.752477761509677	-1.5993275561774192
O	-2.953738460338709	2.760092441509677	-2.5031740461774192
O	0.09577516566129085	1.7297957875096772	0.3206367268225808
O	1.1616563096612909	15.204126701509677	3.9809016038225806
O	3.4542704696612914	14.231819701509677	6.776515393822581
O	10.40836320966129	2.9281064315096774	-4.469982786177419
O	8.84420579966129	1.614050699509677	-1.288437476177419
O	9.08507173966129	1.0368354035096772	1.6442608838225807
O	12.51174390966129	-0.5566854184903229	2.2038006538225807
O	-3.945682460338709	10.751497801509677	5.509454373822581
O	-5.195855900338709	7.513866981509677	7.11423046382258
O	-8.53327263033871	5.689497401509677	7.479772843822581
O	-9.60063942033871	3.211349511509677	4.803596733822581
O	-12.02106139033871	0.3129119015096772	5.32547939382258
O	-13.40032079033871	-0.3074652184903228	1.7433296738225807
O	-14.80607949033871	-3.4772555884903227	0.3057382388225808
O	-17.06697079033871	-4.379771158490323	-2.5656745561774192
O	-6.030832860338709	-9.929324498490322	-7.0634712561774196
O	-9.21866859033871	-8.473962038490322	-5.569571956177419
O	-9.20121138033871	-6.804991948490323	-2.128249986177419
O	-10.28517539033871	-3.1653038084903224	-2.5093609961774193
O	-9.41514370033871	-1.602412638490323	0.9234430558225808
O	-7.149219250338709	-1.881402308490323	4.027708333822581
O	-5.578429440338709	0.9556685425096771	6.079646303822581
O	-2.748430950338709	1.495862887509677	8.57866800382258
O	0.3795264296612908	3.584244531509677	9.110011513822581
O	6.922463879661291	1.840209393509677	6.853857773822581
O	8.88531340966129	-1.3681728684903227	6.196736863822581
O	1.847856129661291	-1.339583878490323	9.630498543822581
O	-1.381333041338709	-2.7500595484903227	8.16649708382258
O	-1.7870432003387091	-2.719746198490323	4.33374333382258
O	-4.368837220338709	-4.865315298490323	2.5400576438225806
O	-4.636738120338709	-3.408494318490323	-0.9760495071774192
O	-5.460899720338709	-5.7239714984903225	-3.955848376177419
O	-5.6667246503387085	-5.035076258490323	-7.770595816177419
O	-2.056504470338709	1.2726207295096772	-10.94382545617742
O	2.0428522396612907	-5.974157088490323	-11.88850545617742
O	-1.1490832923387093	-4.035815088490323	-11.213664856177418
O	-1.2676297243387094	-4.255858408490323	-7.430744346177419
O	-0.5033801593387093	-6.673551548490323	-4.648192616177419
O	-0.20221328233870917	-5.212197118490323	-1.1127882461774192
O	0.004990958661290845	-7.5585958884903235	1.9402855338225808
O	1.8699272496612906	-5.684342418490323	4.751073473822581
O	1.4765136296612906	-6.890319628490323	8.378584433822581
O	8.00846588966129	-1.7630438284903227	-5.285071506177419
O	5.550363529661291	1.1240341839096772	-5.236460086177419
O	2.683665129661291	2.8906778315096773	-3.4743543061774194
O	4.033241159661291	4.572717231509677	-0.2934807161774192
O	1.9462024996612908	7.663204521509678	-0.7293355321774192
O	1.709524179661291	10.010665371509678	-3.737649966177419
O	1.3832728296612908	9.273780481509677	-6.568899626177419
O	4.088993349661291	6.708985561509677	-5.616875106177419
O	3.493865159661291	4.664006631509677	-8.76778069617742
O	5.687471899661291	1.6258897485096773	-9.197071346177419
O	2.9762663996612906	-0.9063557884903228	-9.56552312617742
O	3.172454249661291	-3.0307667884903227	-6.45550375617742
O	4.3007204396612915	-6.515427218490323	-5.682519566177419
O	4.830572569661291	-6.234555428490323	-1.8840526661774193
O	4.034129759661291	-9.227119398490323	0.2944384708225808
O	5.387427879661291	-8.586730598490323	3.816004713822581
O	1.7663641296612906	8.957712021509678	8.611169983822581
O	4.659842179661291	6.660574941509677	7.50638060382258
O	7.26571739966129	7.120936331509677	4.775633913822581
O	12.792442709661291	3.363154861509677	4.098683473822581
O	14.01162260966129	4.058822391509677	0.5293383798225808
