72

O	-3.082433822877777	-1.5116585262698414	-0.36378663900000047
O	-2.168216565877777	-3.6212231362698417	-1.4255146210000005
O	-2.656513012877777	-3.5358218462698416	0.7033256029999995
O	-3.086682682877777	-2.4590305162698414	-1.4631945010000005
O	-3.678491862877777	-2.4483508362698414	0.6136273169999995
O	-2.2137132848777767	-0.4765434662698415	-0.02888947320000048
O	-2.609879522877777	-4.420211566269842	-0.3521919970000005
O	-1.413979468877777	0.6780037147301585	-0.8201786280000005
O	-2.6396498728777766	0.8693613027301585	1.2202260689999995
O	-15.409924922877776	-0.5473918052698414	2.0197338889999994
O	-15.552045722877777	2.7822472737301585	3.7342684589999995
O	-14.563886922877776	5.810734833730158	-1.7893234310000004
O	-3.4444301528777768	8.30790788373016	-4.917725891
O	-3.467797872877777	9.823601083730159	-2.3408265010000004
O	-8.420230912877777	-8.467271946269841	6.232629139
O	-11.524875982877777	-6.488198886269842	6.987747908999999
O	-10.177768132877777	-3.1859213462698412	5.752265019
O	-7.0713953728777765	-2.7498626262698416	7.961501459
O	-4.552293582877777	-5.0353279762698415	9.710801178999999
O	-1.466386687577777	-6.218934426269842	7.825317069
O	1.809084617122223	-7.312270876269842	9.432322178999998
O	3.3524013971222235	-9.644462726269841	6.729850309
O	6.971806897122223	-10.47429162626984	6.179266939
O	8.886545177122223	-13.247899126269841	4.504028549
O	9.636131377122224	-11.882820726269841	0.9667444189999995
O	12.250975277122222	-3.4741077162698413	-3.6211671010000006
O	9.195186477122222	-5.418825516269842	1.9536897589999997
O	6.040514487122223	-7.578397736269841	1.7864660689999996
O	3.725245167122223	-6.033406796269841	4.470524369
O	2.928038867122223	-2.8217642162698415	6.459940539
O	-0.5329800428777769	-1.5356962062698414	7.525736669
O	-2.1788316778777768	1.7202331337301586	8.646033248999998
O	-5.037589322877777	4.045822413730158	7.739276278999999
O	-4.6133770628777775	9.547360713730159	3.2353987489999994
O	-1.925604721877777	11.97931537373016	2.0632243689999994
O	-0.8014855408777769	6.993259763730158	7.978138669000001
O	1.5915683371222231	4.018941383730159	7.985029848999999
O	2.261956427122223	2.2494645537301583	4.590087799
O	5.322184437122223	-0.016964605269841504	4.182689109
O	4.676409107122223	-1.9520992462698414	0.9844929089999995
O	7.569676177122224	-3.0789561762698416	-1.2779250710000005
O	7.620798487122222	-4.845477986269842	-4.7358106410000005
O	10.258166977122222	-4.633797496269842	-7.471919501
O	3.979655577122223	-9.267467226269842	-5.921340421
O	1.254681807122223	-4.667444026269842	-9.448257901000002
O	0.8246502671222231	-4.898279256269842	-13.198508681000002
O	3.843318407122223	-2.6134203462698413	-13.891446781
O	6.148294557122223	-2.3962573662698414	-9.745512291
O	5.747032437122223	-1.0549074762698414	-6.218247571
O	7.424335997122222	1.3550654477301585	-3.8285243510000004
O	5.335566857122223	2.457569143730159	-0.7944846100000005
O	6.904637667122223	4.4228775237301585	2.0872455389999995
O	4.140028017122223	6.510050773730158	3.7804484389999993
O	4.792128637122223	7.839075483730158	7.343646699
O	-1.4656215518777769	4.145621153730159	-7.2201216210000005
O	-2.745280582877777	1.7724018637301586	-4.607095521000001
O	-5.230722022877777	3.5853995737301587	-2.3149404410000005
O	-7.554419922877777	0.6473371497301585	-2.0907652410000006
O	-9.252218312877776	-1.3104356562698414	-4.934334421
O	-8.015012672877777	-2.3774307462698414	-7.3923505910000005
O	-6.376634832877777	1.1073987907301586	-7.395438691
O	-3.725493982877777	0.04536273173015848	-9.921336961000002
O	-1.283775135877777	2.7207430937301584	-10.972852581000001
O	1.8561933371222232	0.9204462317301585	-10.068094781000001
O	3.302173087122223	2.8501457337301583	-7.166006031
O	6.194079757122223	5.163980433730158	-6.671107481
O	5.138972557122223	6.922915893730158	-3.426406251000001
O	7.780723177122223	7.886719563730158	-0.9032436800000005
O	6.189720167122223	10.145296913730158	1.7366605889999995
O	-10.417498542877777	3.5284356637301584	6.420438389
O	-8.770315712877778	6.384407963730158	4.426349899
O	-9.374984092877778	7.539650353730158	0.8531205799999995
