74

O	-0.745104860896552	-2.4855837668448273	-3.027678503068965
O	-2.454657250896552	-0.7572286668448274	-4.088801593068965
O	-2.026666360896552	1.4599384731551726	-3.187423943068965
O	1.455462139103448	1.6350482831551727	0.2417714169310351
O	0.235560079103448	2.4064519631551726	-0.0819106660689648
O	-2.228724000896552	-2.108133136844827	-3.852641463068965
O	-1.611591690896552	2.154552433155173	-2.1636382430689647
O	-0.360198258896552	2.3716430031551727	1.2699392369310352
O	-0.578375654896552	0.08611166915517271	-2.0091572230689647
O	-2.942959610896552	-2.976569196844827	-4.629725813068965
O	0.5435117991034479	4.040011473155173	-0.47872578706896485
O	-4.231221990896552	-2.640794126844827	-5.029519933068965
O	-4.383823790896552	-1.2917400268448274	-5.3257526930689645
O	-3.395907380896552	-0.3810466788448273	-5.005984493068964
O	-1.960635031896552	0.14409111815517273	-3.039559843068965
O	-0.653425729896552	1.6844835531551727	-1.3677289360689648
O	-5.2299750408965515	12.322400253155173	-8.234978313068964
O	-7.158178590896552	14.069912953155173	-1.2397029840689648
O	-14.156225700896552	4.879951473155173	3.470081216931035
O	-11.925719700896552	7.966614453155173	3.1922551269310353
O	-3.735222230896552	6.317258123155173	7.014390736931036
O	-1.3311337848965519	8.109993443155172	7.126783136931035
O	0.8807644491034481	4.071609683155173	-13.134963553068964
O	0.17897853910344796	7.763530603155173	-13.243860753068965
O	0.2681238891034481	8.281503943155172	-9.506110443068964
O	3.7749330391034484	7.028291313155173	-8.635056323068964
O	6.256948479103448	4.489844463155173	-10.045443483068965
O	6.127507859103448	0.8837176491551727	-8.860045113068965
O	9.048438999103448	-1.5648401068448274	-8.918723633068964
O	7.267469729103448	-5.020718776844827	-9.006308523068965
O	8.569618959103448	-8.336797486844826	-7.8314110430689645
O	5.368638269103449	-12.957818746844827	-5.669949553068965
O	4.794851679103449	-7.538860556844827	-4.149690193068965
O	6.016367239103448	-3.9760411468448273	-5.048201193068964
O	7.678705529103448	-0.7989584668448273	-3.642141023068965
O	6.965691569103448	2.849610943155173	-4.5728558430689645
O	7.523650899103448	6.352136843155173	-3.171861503068965
O	5.606320239103448	9.487065573155173	-2.2212744630689647
O	9.242930099103448	4.716893113155173	0.6160570369310351
O	6.530404369103448	1.9724265231551728	0.8920679469310352
O	7.418589539103449	-1.7281896468448272	0.5910090869310353
O	4.090497989103448	-3.499111816844827	0.020425005931035134
O	3.562455959103448	-7.0839916768448274	1.340260306931035
O	0.45164420910344805	-9.408037846844827	1.3700196169310352
O	-0.481437912896552	-12.158648046844828	3.8113843669310348
O	-3.027506990896552	-9.830507046844827	-3.320634703068965
O	-6.622839430896552	-9.194791606844827	-4.455203273068965
O	-5.528186900896552	-9.936956646844827	0.9108449069310353
O	-6.827190590896552	-6.327461166844827	0.5006113269310352
O	-10.248155900896553	-7.483222196844827	1.641103156931035
O	-8.965929240896552	-8.579069366844827	5.101972296931035
O	-4.238748360896552	-8.656256896844827	4.645363776931036
O	-1.293335197896552	-6.315494776844827	4.1023924169310355
O	1.9101491291034483	-5.271094856844827	5.823198296931036
O	3.514230049103448	-2.0107910668448272	4.532151266931035
O	7.051873299103448	-1.0268117368448273	5.697148486931035
O	7.356315319103448	2.810259223155173	5.470792876931036
O	10.840786999103448	4.397623413155173	5.3632616469310355
O	-5.198635290896552	1.6218130931551726	5.436382896931035
O	-3.949806850896552	2.0688387031551727	1.8762091969310353
O	-3.060380290896552	5.779012183155173	1.381639896931035
O	-4.541825230896552	5.942024903155173	-2.078713893068965
O	-8.002944020896551	4.896610393155173	-3.333836503068965
O	-9.561908310896552	2.487674213155173	-2.662897853068965
O	-8.259483440896553	3.337184563155173	0.8561928369310351
O	-9.159297290896552	-0.10684856784482727	2.197201276931035
O	-8.455439160896551	-0.6821921368448274	5.860953576931036
O	-6.291457720896552	-3.694843556844827	5.478915276931035
O	-2.840714760896552	-2.5846006868448272	6.507875246931036
O	-0.623592611896552	-3.167224156844827	9.465984546931036
O	1.8095339491034481	-0.21301354484482732	9.089591646931035
O	5.438516439103449	-0.7029449968448274	10.061303846931036
O	7.163911369103449	2.709700543155173	10.113465746931036
O	-1.993577524896552	12.242636753155173	1.4245741269310352
