18

O	-6.330458791968088	3.626081530228692	15.645793232922257
O	-5.399829418907896	2.1808987714119645	15.8026525772235
O	-4.34476446083205	2.422109390501119	14.99435244168849
O	-4.285795013946089	3.6089752138272746	14.324333999380212
O	-3.1578263674648697	4.244499464510823	13.617670269032008
O	-2.932602109267808	5.713179278259002	13.991775186673456
O	-3.9195200249419497	6.4816785559559955	13.10639764596498
O	-5.427953684661977	6.102218086842934	13.933105762500777
O	-5.2991705092066095	4.481466940244076	14.61381700743123
O	-6.002186955811771	0.9089848457438765	16.799215571952885
O	-5.714808718880857	1.0468315708863178	18.24187067874427
O	-7.48706903556902	0.8932849961611224	16.83829806892945
O	-5.438263205708362	-0.5824913758742825	16.236871401085896
O	-3.1026058546603967	4.184684736573823	12.198230312604874
O	-3.608182507712459	7.95215956802614	13.071168487280726
O	-6.658631022359373	6.168967536254485	13.159954967887339
O	-5.548237850001783	6.953659100036106	15.126628668507948
O	-2.140117699785426	5.21929652271788	11.78967204852189
