14

O	-5.102029797083254	2.6286905576384574	15.644535886684784
O	-5.351074485052816	-0.2418532092926009	16.195017307622916
O	-5.719842586116154	1.4455141488537016	18.063652508501335
O	-5.867976749173423	1.3444499323532744	16.585698607942156
O	-4.387208707796251	4.7838259649343975	14.259375821178176
O	-3.647571126154912	3.6478276987999383	14.172449009540756
O	-7.341461742701943	1.3953373119444463	16.552600570755047
O	-5.778669203880241	4.090300904327079	14.983875022706329
O	-5.303892476955298	6.6074365120406835	13.141339873892221
O	-3.8838334838928557	2.7933287572194865	15.129726029383061
O	-5.117781164958112	7.798084145736603	13.58485377498388
O	-5.519142431671337	6.656782386911722	11.636594090718882
O	-4.157632823926859	5.76154784904567	13.423493246619612
O	-2.249391711353362	3.824267616483338	13.668654956111375
