73

O	-1.0031087203313729	0.27535206935294115	-1.9518788180215685
O	-0.038885702331372674	0.8222286113529411	-1.1464827710215686
O	-0.3842652223313727	1.7447476203529413	-0.20644350202156847
O	-1.4992282013313727	2.4605493303529413	-0.5211931230215685
O	-2.431829486331373	1.9652419903529412	-1.3919182960215686
O	-2.2530574563313728	0.7903837976529411	-2.0541688880215685
O	-2.9954899923313727	0.5197971263529412	-3.2672901080215686
O	-2.5234527643313727	-0.23218205864705888	-4.174838408021569
O	-4.406207942331372	0.7716296337529411	-3.204446198021569
O	-5.153808312331373	0.11675389935294112	-4.242880468021569
O	0.7900596476686275	2.4602301503529413	0.8386977119784316
O	0.5598616776686272	2.062600850352941	2.2472116019784316
O	2.1256756476686274	1.8761573803529412	0.5882218319784316
O	-6.168541852331373	-0.8136623096470589	-3.7571038580215683
O	-7.432450892331373	-0.3027389196470588	-3.5004353380215685
O	-8.383416432331373	-1.189796319647059	-3.0843609980215687
O	-8.074438412331371	-2.4885016696470585	-2.7907265780215686
O	-6.7454403323313725	-2.774247979647059	-2.6542164880215684
O	-5.776869102331373	-1.807171319647059	-2.922595698021569
O	0.6976037976686271	4.1553541803529415	0.7210491919784314
O	-7.473870052331373	1.0376570603529411	-3.550182538021568
O	-4.460833232331373	-1.8867067196470586	-2.5285375780215684
O	-11.439926812331372	10.99249286035294	-0.1888769720215685
O	-8.328917872331374	12.95445786035294	-0.7259618890215684
O	-11.058931122331373	0.5375954063529411	9.822100941978432
O	-9.395227542331373	3.974216180352941	9.894006641978432
O	-0.27775697233137264	3.1205735303529414	9.662321741978431
O	1.7995621076686272	5.283670410352941	9.569606941978432
O	-4.195623382331373	8.066740920352942	-10.197072268021568
O	-5.216720332331373	11.33378366035294	-8.662309418021568
O	-3.6268155523313728	10.69307336035294	-5.304760298021568
O	0.01798772766862733	10.06227414035294	-6.277090548021568
O	1.9012906976686272	8.67922056035294	-9.299450298021569
O	2.577509377668627	4.950521160352941	-9.547561298021568
O	5.411404997668627	3.329623130352941	-11.519903658021569
O	4.052197507668628	-0.2505338356470589	-12.187107758021568
O	3.9069827676686275	-4.541409039647059	-8.01156018802157
O	4.423385337668627	-0.717882009647059	-7.954848528021568
O	6.286936627668628	2.171384710352941	-6.211973948021568
O	4.971090997668627	5.695681860352941	-5.459811848021568
O	5.744258337668628	8.650808050352941	-3.181579518021569
O	8.982591267668628	6.3772843903529415	-1.1043129930215685
O	6.820161467668627	3.1512965603529413	-0.8892817195215684
O	7.898510227668628	-0.003417294647058866	-2.8027122280215684
O	4.7594880276686276	-2.2010241296470587	-2.7282863980215684
O	5.078012657668627	-6.018306299647059	-2.6930109480215685
O	2.4606745676686277	-8.87211817964706	-2.3929337780215683
O	2.8889832476686275	-12.36788333964706	-0.9586854920215685
O	-2.604987105331373	-8.62470800964706	-5.293241988021569
O	-6.367846812331373	-8.55826623964706	-4.7200691980215685
O	-3.0701967123313727	-10.579633539647059	-0.7897098634215685
O	-4.710442882331373	-7.454352459647059	0.6874897019784316
O	-7.208014362331372	-9.64440873964706	2.5115990619784316
O	-4.478860782331372	-11.36245713964706	4.603259901978432
O	-0.43268303233137284	-10.21342233964706	2.4110920619784313
O	1.8107575676686274	-7.229430329647059	1.7301853219784313
O	5.3132272176686275	-6.031257249647059	2.4097573119784315
O	6.002607617668628	-2.295978189647059	1.9067498319784317
O	9.450925567668627	2.765160420352941	3.059243321978432
O	-1.8470488033313728	-1.1032233596470586	7.143095401978432
O	-2.275059499331373	0.6111320223529412	3.8111657319784316
O	-1.9446810874313727	4.401506260352941	4.300968141978432
O	-4.732218982331373	5.227550970352941	1.9038446019784316
O	-8.313271312331374	3.9380720603529413	1.8059504419784316
O	-9.241547872331374	1.138501645352941	2.0595476419784315
O	-6.6697668823313725	1.1494112203529412	4.863260391978431
O	-6.655177222331373	-2.6429980696470587	5.137581651978432
O	-4.4421249623313726	-4.082469049647059	7.827292001978432
O	-2.3730754673313728	-6.315155849647058	5.678820381978432
O	1.071083047668627	-4.7941575896470585	5.675085511978431
O	6.1664548676686275	-2.3327626296470587	7.087871061978432
O	9.899094167668625	-2.275598509647059	6.444718961978432
O	11.211745367668627	1.256820070352941	7.0954983319784315
