19

O	-5.759237595511985	1.361236103179826	16.411857243730932
O	-5.094831841997371	2.609662029730727	15.411604049549155
O	-5.873938085829926	3.7178701108302494	15.246151047133262
O	-5.288947028964552	4.917634679008311	14.808005148393475
O	-4.22283875271058	4.994881124609725	13.963474012931885
O	-3.655443821685777	6.154649966410435	13.396423047051941
O	-4.273302164431089	6.908584629819893	12.345108283899787
O	-4.778888346294955	6.53720069945771	11.275326197338735
O	-3.4830037024439173	8.188595663273906	12.191921534634995
O	-2.1613105886071002	7.697197618224887	12.559524006349136
O	-2.371545194858159	6.782204411889749	13.509873861021374
O	-3.753626033284264	3.735091524604613	13.699680433338921
O	-3.019119167897161	3.725875066876173	12.466457686129488
O	-1.9155755429261339	4.504579428437716	12.226137125850547
O	-3.8377287788635255	3.8525464330583308	11.51945195538134
O	-4.146330949251288	2.564486992119012	14.370205303347511
O	-5.245899317924286	-0.24949166043343007	15.951778012858014
O	-7.241792926203301	1.2373972495274663	16.472758020536165
O	-5.515342922460565	1.3764462684689966	17.89101166630998
