19

O	-4.707908103950665	2.6558400751879927	16.690040171023924
O	-5.47352265179276	-0.2725064793447203	17.385946199766778
O	-5.254118458301958	1.153162312209001	18.95421278013169
O	-5.674808692012183	1.5368529294937376	17.678385077670832
O	-4.2418812919432565	1.891529675861264	15.662625385934678
O	-5.355670819313658	-0.28152389611825424	15.121453676011253
O	-6.996866507686048	1.868542548240574	18.271627486557012
O	-6.128881088715826	1.3678589972154576	14.78209625819387
O	-4.8377494136575425	2.2823396793785773	14.543209117589718
O	-5.660553497783702	4.776172331566541	16.56982198622348
O	-7.291467207526442	0.8880559390718195	15.578604826993281
O	-4.5622259357777395	3.489005592684737	13.999733855248966
O	-7.172054789753092	2.038267114447462	15.56312873122754
O	-4.095214658728359	4.356590596312953	15.055088002689708
O	-4.6503142296080515	3.9372048211871236	16.300198820496362
O	-5.062095140732115	4.347874740738266	13.029541684125409
O	-5.279658488935417	4.5461540125394535	11.770544928364837
O	-3.7540323556740747	5.010378299608762	12.734149876318657
O	-5.731034277553027	5.57167565772707	13.403355991182782
