72

O	0.011261686714285957	1.4695672938682542	2.4070453715238096
O	-0.26290829228571405	-0.6815230781317458	0.8075172345238097
O	2.798308436714286	-1.1021087081317458	0.4966048605238097
O	2.1108713367142857	0.045045211868254276	1.5097426915238097
O	0.5472743267142859	1.1160573598682544	-0.21813844547619027
O	3.035775786714286	0.2325671118682543	2.4381476815238097
O	4.237292866714286	0.12989487386825427	1.9314294015238098
O	4.411641696714286	-0.9189634681317458	1.0967723795238098
O	0.508111446714286	0.5457696838682542	1.1298594895238097
O	5.626048706714286	8.767737781868254	11.44704537152381
O	2.2528361767142857	10.361261311868255	11.78123637152381
O	2.921303406714286	13.285242551868254	6.15125604152381
O	1.5773606367142858	9.686579611868254	-5.60304709847619
O	-1.038634989285714	7.838347051868254	-3.58894204847619
O	-3.609991853285714	7.896071471868254	-2.05613312847619
O	-6.072682053285714	9.996119941868255	-4.08824706847619
O	3.483968526714286	2.178575761868254	11.932063571523809
O	0.7686186467142859	-0.4974052681317458	11.58246487152381
O	0.47315636671428596	-4.273948898131746	12.12314877152381
O	1.327056636714286	-6.613206508131746	9.24577929152381
O	0.009010787714285984	-10.171124548131745	8.85155589152381
O	2.746807516714286	-11.828304548131745	6.63856285152381
O	2.3692008167142857	-14.779327548131745	4.34782878152381
O	4.674782186714285	-17.330900848131744	2.81993102152381
O	1.098678176714286	-11.178603548131745	-8.23329700847619
O	0.35205518671428604	-11.940373348131745	-1.6709408884761903
O	3.153105666714286	-10.941552948131745	0.7321085565238097
O	1.284560206714286	-9.183748948131745	3.62457073152381
O	-1.906179903285714	-7.259741158131746	4.59432704152381
O	-2.262947633285714	-4.341836708131746	7.05730700152381
O	-4.668944113285714	-1.5076442581317457	7.87259673152381
O	-4.817394593285714	2.274788481868254	8.18742184152381
O	-6.267105373285714	6.767208571868254	2.8421072615238097
O	-8.321608933285715	6.710755441868255	-0.36750369247619025
O	-8.557395083285714	0.9594572141682542	4.9061044515238095
O	-7.315689363285713	-2.604008368131746	4.43158129152381
O	-4.349861053285714	-3.1419959981317453	2.03471149152381
O	-3.497894923285714	-6.569079638131745	0.6088768515238097
O	0.04421183871428591	-6.226772078131745	-0.7711874584761902
O	1.126624146714286	-8.299738068131745	-3.8324335784761905
O	4.411188376714286	-8.325889528131745	-5.90144967847619
O	9.335870366714285	-2.1229203881317456	-5.69068417847619
O	6.482720756714286	0.7021150878682543	-12.334952128476191
O	4.427232506714287	-2.5084948081317457	-12.48478512847619
O	6.101745466714286	-4.1608350081317464	-9.506766908476191
O	3.207051676714286	-4.167741938131746	-7.0538511284761904
O	-0.538339612285714	-4.648672378131746	-6.99232288847619
O	-2.358824683285714	-3.4269160781317454	-3.83409109847619
O	-6.070946513285714	-4.314713338131746	-3.2764045784761904
O	-7.597697183285714	-1.580954698131746	-1.0211598284761902
O	-10.849074233285714	-2.3388675781317456	0.8693532975238096
O	0.15239889771428594	5.133649181868254	-7.98154145847619
O	2.6141772267142858	4.555936791868254	-5.152457418476191
O	3.278714326714286	3.182673111868254	-1.7023909084761901
O	1.514216136714286	5.401151581868254	0.8941577205238098
O	4.339626976714285	5.262329821868255	3.36654735152381
O	8.033232116714286	6.101328361868255	2.85928222152381
O	9.763557866714287	5.215520531868254	0.6563431645238098
O	6.690836136714285	6.257157671868255	-1.4165454084761901
O	7.978910766714286	4.478225651868254	-4.51414126847619
O	5.7926683467142865	4.7256531118682545	-7.578994238476191
O	5.425437116714287	1.0740020038682543	-8.22841552847619
O	1.8038995567142861	0.2976095478682542	-7.5277301484761905
O	-1.201913049285714	-0.5313766381317457	-9.58908688847619
O	-4.007962263285714	0.2751666778682542	-7.0871997284761905
O	-7.136044313285714	-1.8509036581317457	-7.084886858476191
O	-9.774081653285714	-0.16774119813174582	-4.883300448476191
O	-1.6927914332857141	6.252518781868254	10.52021947152381
O	-3.182902033285714	7.441412701868254	7.17005184152381
O	-1.735323849285714	9.744344251868254	4.51177368152381
O	-5.2277859132857145	12.401429951868256	-0.5534316334761902
O	-2.582853653285714	13.610970451868255	-3.0519933884761903
