25

O	-5.551986327338815	4.65276468542466	14.844519810856468
O	-6.039292942391815	3.4851503400661574	15.438949954716175
O	-5.228198663606126	2.4974427732338405	15.890395343106375
O	-3.9739639826486557	2.6279473137500875	15.399950810967539
O	-3.5149982807146545	3.743575067323959	14.695094570700126
O	-4.227731091773974	4.9051545091247775	14.643775904972864
O	-3.8477170921803254	6.121046955418102	13.909270131586231
O	-4.702394561223326	7.054091426202893	13.774700761562631
O	-2.5596461159232082	6.508908381145819	13.541478341645659
O	-2.0076962954498585	7.651605284950515	12.959864224814321
O	-5.789477955660157	1.0698094629917403	16.702176473494337
O	-5.48193964545046	1.018321296239618	18.150240170382805
O	-7.271864207385849	0.9860453498968877	16.80223371347389
O	-1.9778521093129315	8.93496277539065	13.665564419696501
O	-0.9312040443680019	9.40564875680671	14.453196660138957
O	-0.8226876959025233	10.737968949436034	14.857972258461631
O	-1.7513126002131276	11.66807785768136	14.404408731066313
O	-2.3918684794803298	11.298307474172312	13.227754986049096
O	-2.7171182980249196	9.957301055795767	13.13523101185309
O	-5.289757001233991	-0.43309551733443374	16.04417910045161
O	0.2186056821147213	8.714824039735586	14.390526905317108
O	0.20218612347771803	11.310581877361155	15.50871430469213
O	-1.7530546704729248	12.968351948711774	14.825702658996406
O	-2.7985018237549575	12.29527500605544	12.432536706357752
O	-3.7952385419700616	9.628785707487086	12.435641264116613
