18

O	-5.24957913669148	2.4081708205135643	15.840400462995317
O	-5.63170039652851	3.7047893595442285	15.879595146299303
O	-5.1408232129691855	4.571224209971102	14.966537597913238
O	-4.268243373447765	8.255637878682768	13.059048499074972
O	-4.206518337478957	2.04947164399776	15.047041762072379
O	-3.4942997844214005	3.0218519302504303	14.407814468534994
O	-4.1713484077379395	4.179242971672468	14.12067380390474
O	-5.059998896730521	5.932998042639187	13.3464647358553
O	-5.097399266526647	7.226388917377674	12.61700511250162
O	-5.823681684694259	8.635693177326202	11.051191958233485
O	-5.368807999241126	-0.41759218528906494	16.314187802769474
O	-5.194711391915952	5.875762207209748	14.645531266929538
O	-4.004875237308905	5.09686273477081	13.1309418968699
O	-5.181316183518109	7.455382966183814	11.30508477089625
O	-6.0400666786543145	1.2264186463571578	18.170287175966273
O	-7.40170996256102	1.2497363839417956	16.489763923036573
O	-5.982652587815345	1.1138474627364006	16.708254044904187
O	-4.8999872928194	9.600954661377651	12.156217025519236
