23

O	-2.802936339442696	2.1749122745330345	13.003898472976912
O	-3.0873464188911193	3.5126367307767166	12.670314357365939
O	-4.188743025405746	3.7922478533223583	13.49980639578779
O	-1.8570218026167287	4.303981101313443	12.999786563648282
O	-1.4166537625496303	5.3074685800186945	12.024004362633672
O	-2.351238631151333	6.407467113027311	12.174491961308798
O	-3.7355868497089824	6.263811665469157	12.530962277444644
O	-4.0528139726808154	7.30554497342874	13.565818355381941
O	-3.546688772402198	6.731197348241752	14.707727158370416
O	-2.2247260395996813	6.81635269784024	14.947033591655257
O	-1.3593848670514777	7.8234158770508095	14.345390357692079
O	-1.313290824725875	9.195965879381326	14.85035349988189
O	-0.35257555755159764	10.088559039239783	14.131658106486835
O	-0.014175416252062867	9.329537479943891	12.889986971623301
O	0.9036922268469505	8.204790127758844	13.27004781541209
O	1.1981689997388516	7.425868476947443	12.024823188022218
O	1.1199585493833837	8.363462886199553	10.851733387141588
O	0.7589019452226999	7.602465102490422	9.728739985461502
O	2.418663425048786	8.828422299458033	10.591491674958966
O	0.04805117372748313	7.366958458842541	14.163636908055485
O	-3.310112629119777	8.524866528341787	13.104112000832025
O	-3.0564953747870076	8.643217386608214	11.660205197479826
O	-2.145784839470494	7.521878747716603	11.274605660326571
