14

O	-5.020844202679518	2.1396632712342702	16.310906358965322
O	-5.399874585022671	-0.5875994371585236	16.58039899439623
O	-6.0543251994550005	1.0873832373522414	18.571865895760208
O	-5.971443497260859	0.9351170514082439	17.095069402664894
O	-4.229032709294783	4.293430084455334	15.167835601624738
O	-3.5681102294132865	3.162399016494542	14.957281652005877
O	-7.409572984609892	1.1851431800735215	16.80210684059067
O	-5.655217472612892	3.6913211001027735	15.91774124732213
O	-5.0533443472001185	6.224517737587856	14.353003921760118
O	-3.7323680167729307	2.4376101573803677	16.064839904601527
O	-4.748744637791998	7.193385249854732	13.572605551758132
O	-5.475081569332666	6.739649374484834	15.697116655012136
O	-3.889549832348311	5.367728532675936	14.570795954710876
O	-2.210050673857336	3.2369148979079143	14.371965733817067
