18

O	-3.567730808118478	2.507900948127191	12.904642967571084
O	-4.215673666206432	2.3019010682978966	13.933455119017395
O	-3.6450192382709146	2.6632583183348517	15.208190789578548
O	-5.209493079586122	2.985358273601426	16.12684525726768
O	-2.851380769901752	3.7454440329581673	15.480845901238393
O	-3.76167382572724	4.614100652685498	14.658117226443407
O	-4.97831488920005	5.079786933561676	15.054704594986717
O	-5.113033182015382	6.388154473706594	14.718075201721941
O	-4.188966397021192	7.169342783037264	14.077433011454985
O	-3.598299125794108	8.375272330319008	14.358154050495948
O	-2.2470951415855165	8.734201601055718	14.352562835156988
O	-3.518835037249497	6.363314559564598	13.24020538970907
O	-3.178015891169443	5.091593381202323	13.54734992006006
O	-1.7831119700645672	4.932582895419079	13.384444340397408
O	-0.8655997970780902	6.014885395132948	13.150418228955719
O	-4.835378515194325	1.1883859124067078	14.495041835490024
O	-5.523882439766921	1.3140457320467944	15.67791874070667
O	-5.426017266711796	0.543691841907139	16.644514628985878
