22

O	-7.401312209197743	0.9001997006647828	16.96610415713353
O	-5.932493448354271	0.8752133812793557	16.80089274116385
O	-5.547396213973346	0.934509497994171	18.227408086371046
O	-6.240156680254019	3.5764483433185696	15.671100176978205
O	-5.295241235194806	2.1366679325331943	15.808998789094643
O	-6.14773265024574	6.166871121438307	12.839742298827494
O	-4.3384878553132245	2.313549917897373	14.869699883910885
O	-5.6245482879534325	6.957420031551667	15.013407160213617
O	-4.167373919417846	3.540622818549997	14.294789328447912
O	-5.199118008051353	4.40516605894886	14.657664066333997
O	-5.255147264473437	5.985028413264734	14.002569110647261
O	-3.5701821290042006	6.297592969675083	13.580216701316795
O	-3.5307135458970045	5.318926094989793	12.546772068180443
O	-3.4297012378763787	3.9369715289196394	13.082565950732874
O	-3.540764858637293	7.683530002145669	13.333253784995996
O	-2.6413400200293666	8.26719838682957	12.310233997250478
O	-1.5063936604237629	8.88818477197006	12.801430333837821
O	-1.9005145479826524	9.604563969760845	13.94260375935481
O	-2.051592101153261	3.622474298739285	12.949160316463528
O	-1.2095330352155411	4.661010684553705	12.414281301905511
O	-0.8423890991640715	5.748664596437251	13.422155671063685
O	-5.448106616855661	-0.6271713551846174	16.187300907494016
