11

O	-5.189984020059714	1.5250668635548563	15.301129365261083
O	-5.261946256157964	0.6189242162260722	17.37300113276424
O	-4.821513541655602	2.392440277535667	14.26187541030779
O	-4.855407994497872	-1.0159526505776824	16.068644670339364
O	-4.037564785408994	3.4963785584607145	14.317469553293817
O	-6.489674098680364	-0.42166501905522846	16.502130638435954
O	-4.603966729218128	4.37427258345398	15.250280227674798
O	-5.479887313065969	3.7796262957272	16.11594898629185
O	-5.589940798014066	2.4320588978102093	16.17802042102175
O	-6.156003603557442	1.6489354881996834	17.26187390148222
O	-5.366109149754535	0.21985773360206096	15.982741093968015
