72

O	8.11103248720862	-0.5040145739827588	-2.848879163862069
O	7.131233877208621	-1.0514447639827587	-2.049172353862069
O	7.412244127208621	-1.4054207639827587	-0.6588104694620691
O	6.366150777208621	-0.8159289939827588	0.17499006813793094
O	5.248437717208621	-0.5391717539827587	-0.6534031852620691
O	3.959442317208621	-0.3066806099827587	-0.2383640248620691
O	3.0351650872086204	0.49405114201724126	-1.064924478862069
O	3.0993938372086207	1.8579951960172412	-0.4955928698620691
O	4.5795672472086215	1.6795514180172413	-0.16614813886206908
O	5.115482977208621	1.7914222560172413	-1.4917446878620693
O	6.488901797208621	1.9308666060172412	-1.3618645628620691
O	7.128701107208621	1.6343964780172413	-0.08660138886206914
O	8.55104735720862	1.4236289770172412	-0.3897034448620691
O	8.772773947208622	2.086193726017241	-1.6450313438620692
O	6.247438647208621	12.108645306017241	-7.209691863862069
O	3.0681478172086205	14.046851406017241	-7.577498393862069
O	0.9074294192086207	9.88429048601724	-11.904033013862069
O	2.7433241872086205	-2.0875094139827586	-14.91793721386207
O	1.1022234402086206	1.3283341870172412	-14.426657413862069
O	-5.546843792791379	0.7519929240172413	-8.171278363862069
O	-7.290665782791379	2.9440193460172415	-7.09848944386207
O	9.58421284720862	9.13085395601724	3.241141206137931
O	9.00857082720862	12.14188610601724	1.033333916137931
O	5.686094787208621	10.99389580601724	-0.3690533548620691
O	3.6786832472086206	10.488699656017241	2.8236479061379307
O	4.3352229972086205	9.71195278601724	6.511328556137931
O	4.384569987208621	6.074989476017242	7.65117584613793
O	3.6465113972086205	4.932348026017241	11.23174418613793
O	5.511799557208621	1.5035927190172411	11.34793368613793
O	4.769007047208621	-1.4067540839827588	13.59727048613793
O	5.638456247208621	-7.243654183982759	12.43780678613793
O	3.2167740272086207	-3.5059350239827585	8.965167126137931
O	2.4653005572086206	0.27459741401724125	8.61560322613793
O	-0.30852167879137926	2.854453326017241	8.01433099613793
O	-0.10280037579137924	6.113148786017241	6.025653416137931
O	-2.469968312791379	8.642089186017241	4.41144885613793
O	-3.1644858027913796	10.289067306017241	1.0581942061379308
O	-6.0500933827913785	6.140508116017241	5.344456366137932
O	-4.249841222791379	2.8709861460172412	4.281264826137932
O	-3.5116561827913793	0.15678641301724128	6.851285986137931
O	-1.0272275627913792	-2.139346203982759	5.176962656137931
O	-0.8947867427913793	-5.883762743982759	5.92008419613793
O	1.1340126022086208	-8.84506078398276	4.46328848613793
O	0.23193585520862076	-12.51937859398276	4.165619836137932
O	6.856724367208621	-8.19486644398276	3.3408204061379307
O	4.539643337208621	-10.910701993982759	-0.06235821286206911
O	4.603514467208621	-8.04746362398276	-2.669101273862069
O	5.586999727208621	-10.592754093982759	-5.322623813862069
O	2.3605516272086207	-12.61088639398276	-4.90553598386207
O	0.42303468710862074	-11.105993693982759	-0.8366011518620691
O	-1.0653190127913792	-7.91724783398276	0.6719466461379309
O	-4.374251842791379	-6.850172203982758	2.260209416137931
O	-4.887954402791379	-3.0259361139827585	2.493152306137931
O	-7.785682442791378	-1.5849630039827587	4.53714816613793
O	-8.72186080279138	1.8526971560172412	3.075281796137931
O	-10.709687492791378	4.302429396017241	5.24006242613793
O	-2.2620284427913795	-2.942320763982759	-6.61624608386207
O	-0.06606756279137926	-0.6483630339827586	-4.67350510386207
O	-1.0038169227913794	2.964547996017241	-5.4874864538620685
O	2.4807621572086207	4.1740638460172415	-5.673614133862069
O	5.486830627208621	2.796903386017241	-7.616831263862069
O	6.270122897208621	0.011467383017241262	-8.119313163862069
O	2.5034939672086205	-0.43926260398275874	-8.501587363862068
O	2.770860857208621	-4.207375483982759	-8.025182343862069
O	-0.4750192977913793	-6.066801583982759	-8.38195955386207
O	-0.4557452747913793	-7.817582263982759	-5.102925203862069
O	-3.301416012791379	-6.2920219539827595	-3.141324273862069
O	-6.683536522791379	-7.371981883982759	-2.031751293862069
O	-8.30655885279138	-3.9742335439827587	-1.2817181618620692
O	-10.728869292791378	-3.690334633982759	1.6032913561379307
O	-12.479766192791379	-0.29978981698275875	1.4148176761379307
O	-3.3177830027913795	8.73635595601724	-7.681169053862069
