32

O	-4.60257036936197	4.519510341308196	14.586901450832316
O	-4.965925171209141	4.482023987058373	15.947922182985446
O	-5.645112653168951	3.349708677907751	16.450430936576918
O	-5.427913671342806	2.106216531325453	15.834065298093643
O	-5.240212811500261	2.2129319329511485	14.515319888440336
O	-5.074995010991573	3.432627168687125	14.000481621393702
O	-5.9750691053862095	0.7707400763763061	16.701592216989518
O	-5.5486910840791985	0.9694193374836	18.145588353772762
O	-7.43072360155946	0.9617524045544896	16.877441584945476
O	-5.338504903507584	-0.6467495520234978	16.153154889040664
O	-5.226613739722973	5.70750418314066	13.621602210207673
O	-3.3322839884268025	3.6047208812581055	12.66508487661554
O	-2.560449689867312	4.234803071963477	11.665606290360142
O	-2.940973981801341	4.517803053982442	10.38834891060357
O	-2.6318487116771854	5.702755615282191	9.81499704419174
O	-1.5526737542391276	6.387593740281293	10.256282720203256
O	-0.868662678882747	5.845507896479811	11.286313157594877
O	-1.3500125839225126	4.769744863685931	11.92345943166516
O	-5.07768522090683	5.646095258980844	11.870686878172801
O	-6.700202896244313	5.6623155732666	13.477189706590192
O	-5.200050839582909	6.923599737823988	14.354508071718215
O	-4.541844101044154	6.880751452386479	11.813190496240829
O	-4.7382824866007045	3.506914768453794	12.549804957078575
O	-1.1024522426102736	8.234623749326287	13.360248961224453
O	-1.9544569300986128	8.799825456759397	12.500174183845614
O	-3.2057427061267467	8.297443511385332	12.400367371958826
O	-3.528259164721871	7.090291391925248	12.83755172345336
O	-1.6730613651905815	7.285110335241351	14.16129129207368
O	-2.8392264812710972	6.661534617428721	13.901734617086392
O	-5.363061229291149	3.2736816813634695	17.707240302025195
O	-3.798149306405657	5.003782779036136	16.461217975680206
O	-4.486655041519954	1.3293566136461656	13.883428225259298
