74

O	3.2028871735251667	-1.152714922348334	4.725759090783333
O	3.0811032635251667	-0.1263433613483339	3.3828498107833336
O	2.1846362735251668	0.036865100651666094	2.376459090783334
O	2.4620753935251667	1.070576668651666	1.5211796407833333
O	1.6395984535251664	2.198413697651666	1.3817140307833333
O	1.9159702735251665	2.904782317651666	0.16100802978333342
O	1.6220798335251663	1.7626670876516661	-0.7987940432166666
O	0.4618600095251664	1.9614183276516661	-1.4094592292166666
O	0.2730318805251664	0.9410724456516661	-2.2002102292166663
O	0.6793499635251663	-0.022842754348333938	-1.4318060992166666
O	1.3924909535251664	0.4612394006516661	-0.4586943572166666
O	3.794060323525166	1.488365567651666	1.5270535607833333
O	4.496129243525166	1.5584260976516662	2.7567111807833338
O	3.8158077635251666	0.995710801651666	3.7883110207833335
O	8.011860783525167	11.714334747651666	-4.083884449216667
O	5.587610563525166	12.472499447651666	-6.828855169216667
O	7.559753393525166	7.4247840576516655	-10.166997919216668
O	10.862167053525168	-0.826513442348334	-9.485393599216668
O	5.170754593525166	-4.657019292348334	-9.597062349216667
O	1.9626616935251662	-2.8763118823483342	-8.674493159216667
O	-0.4090813612748336	-1.2629226223483339	-9.552333599216666
O	4.027836793525166	11.122419447651666	6.518657860783333
O	4.598484383525166	13.497287947651666	3.6606908007833336
O	3.3208303635251664	11.155373147651666	0.9875912807833334
O	-0.2432048904748336	10.464148247651666	2.191921410783334
O	-2.0933959564748337	10.392144457651666	5.553295020783334
O	-2.2017397864748336	7.115474887651666	7.496673550783333
O	-4.854897966474834	6.1625747076516655	10.061371580783334
O	-2.9929539464748336	3.5665654876516664	12.291557180783332
O	-4.502884256474834	0.823854989651666	14.363858180783334
O	-2.0748470664748337	-4.513847362348334	15.760392080783333
O	-2.1972716964748336	-2.1520794823483342	10.635802380783334
O	-3.1077813264748335	1.133038371651666	8.793307420783334
O	-5.213798446474834	2.575394347651666	5.911111750783333
O	-4.409306456474834	5.495398707651666	3.573871370783334
O	-5.461722146474834	6.877707397651666	0.18809387778333345
O	-4.106290216474834	7.886653527651666	-3.1998838692166665
O	-3.461747266474833	3.502881057651666	-8.805606109216667
O	-5.2602736264748335	0.4119159065516661	-10.155592019216666
O	-8.047158926474834	4.647047977651666	-4.133255259216667
O	-8.268815516474833	3.470239647651666	-0.4941146872166666
O	-5.623590156474834	0.8953597026516661	0.7547467397833334
O	-6.233224716474834	-1.128872542348334	3.9274358107833334
O	-2.7790821764748332	-2.560828532348334	4.818973000783333
O	-2.7078306664748335	-6.040612192348334	6.591654690783333
O	0.26527801452516636	-8.328619612348334	7.597088650783333
O	0.4528724275251664	-12.111971752348333	7.903824930783333
O	7.387509993525166	-7.231654302348334	4.113336080783333
O	8.027276563525167	-12.446726752348335	2.4742834007833334
O	3.675041693525167	-11.199113852348335	3.895062440783333
O	0.9943794535251664	-8.604948332348334	3.1725118807833335
O	-2.5908863464748335	-8.392900482348335	2.0725227507833335
O	-3.8077164264748333	-4.984727422348334	0.8109158377833334
O	-7.574715066474834	-4.427108542348334	0.1858685637833334
O	-7.948034946474833	-1.680176762348334	-2.4867745692166663
O	-11.295123346474833	0.17649594865166607	-2.7860837792166664
O	4.009910463525166	-5.133326622348334	-4.497935659216667
O	3.9178097135251666	-1.997025582348334	-2.3269369792166663
O	3.1528177135251667	0.963057788651666	-4.622987369216667
O	5.545088843525166	3.197369157651666	-2.8565485692166663
O	9.335762353525167	2.706445037651666	-2.2927704192166662
O	10.690577953525167	0.30468667665166604	-1.2316560292166665
O	8.293183573525168	-1.392674542348334	-3.7015441492166663
O	8.842737283525167	-4.804852972348334	-2.1198521592166664
O	7.042404353525166	-7.670179582348334	-3.7988695192166664
O	5.219509923525166	-8.924644542348334	-0.8010169042166666
O	1.5849229735251662	-8.132358742348334	-1.4573533992166665
O	-1.4277403204748336	-10.217778852348333	-2.344001359216666
O	-3.7166203164748333	-7.466922592348334	-3.7480958592166664
O	-7.447512396474834	-7.710679732348334	-3.127301309216666
O	-9.233352786474834	-5.139659742348334	-5.318874369216667
O	0.3246039895251664	10.709145347651665	-5.037739649216666
O	-0.4687511261848336	7.7297189676516656	-7.346757259216667
O	1.8977047435251662	5.423041527651666	-9.225849029216667
