77

O	2.870482876022728	-2.750548893863636	2.460263779113636
O	1.936290646022728	-3.9465702538636362	-2.4327558938863634
O	1.2997638160227278	-1.6357940738636363	-2.8131321338863637
O	1.6808043460227278	-3.2023563838636364	1.8602957941136364
O	1.4972958960227278	-1.5309324238636364	4.180936656113636
O	3.459850086022728	-1.8942794238636362	-2.6501352438863632
O	1.5321274160227278	-3.1533634938636363	0.46561974611363643
O	-0.7815956429772721	-1.8753178038636362	7.962382616113636
O	3.5496883060227282	-2.3392893138636364	4.739392086113636
O	2.210303766022728	-2.1724911538636364	-0.26181186388636357
O	1.319716816022728	0.25950931413636374	8.422495046113635
O	-0.5070269149772721	0.4940863201363637	5.904998776113636
O	3.516788876022728	-2.1243507938636363	0.25881031611363636
O	-1.821860123977272	0.32301824013636377	8.202989166113635
O	3.602930276022728	-1.9411186338636364	1.6359051781136364
O	0.8583935260227278	-2.9289224838636363	6.902261476113637
O	2.683996616022728	-2.2729478938636363	3.8457303661136364
O	1.6667864960227279	-0.4046634498636362	5.045138246113636
O	0.593771815022728	0.5674892361363637	5.138994606113636
O	-0.9985972729772721	1.6605299961363638	6.421793006113636
O	-1.575454793977272	1.6447526461363637	7.796730376113636
O	-2.234850333977272	-0.34475460986363626	7.072003346113636
O	-1.7230124939772722	-1.7396275738636362	6.884950146113637
O	0.562597836022728	-1.9254711038636363	7.630784196113637
O	1.4658433160227278	-1.1445699638636362	8.514227116113636
O	2.7988951160227282	-1.6726379838636363	7.960405466113636
O	2.950004646022728	-3.1646026638636364	8.278663786113636
O	4.289032076022727	-3.6190707138636364	8.371757236113638
O	4.999652596022727	-3.940856233863636	9.536283856113636
O	4.398571606022728	-3.8392565238636363	10.788726706113636
O	3.0333313460227282	-3.7837283738636365	10.745138156113637
O	2.3670187560227283	-3.4412023138636365	9.553761606113635
O	2.2184038360227283	-2.3337658438636364	-1.9772020738863638
O	-7.682476183977272	-13.692070113863636	5.240207046113636
O	-7.138475103977273	-12.144885013863636	1.8584765541136363
O	-11.395899213977273	-7.412734193863637	-0.3467927238863635
O	-13.892306213977273	-4.591731573863636	0.07034533611363614
O	-10.947500213977273	-2.8441194038636364	3.2327647761136364
O	-13.837178013977272	-0.6401872838636363	2.0589581981136362
O	-11.323652613977272	1.5902785461363638	0.3610588961136363
O	-11.245435413977273	-1.2032790038636363	-2.262502393886364
O	-4.923357253977272	0.5396710991363637	-8.718450353886364
O	5.350656906022728	-13.035012713863635	3.2216672361136363
O	2.878952216022728	-15.586292813863635	1.6524244151136362
O	1.7222407760227278	-13.087724413863635	-0.9091961638863637
O	5.064972146022727	-12.585743313863635	-2.7798433438863634
O	8.786179766022727	-12.327738813863636	-1.8101482138863636
O	10.301091586022727	-8.969551503863636	-0.9815113038863639
O	8.717805386022727	-7.575148293863636	-5.2786985938863635
O	7.319120026022728	-3.1129466738636364	-8.263412653886363
O	8.662106436022727	0.8041138071363637	-3.900128823886364
O	8.501859576022728	6.720039666136364	0.02097874611363615
O	7.2315620060227275	12.237090886136365	5.740834326113637
O	10.309465986022728	10.816259286136365	7.562445696113636
O	9.293111926022728	7.264917276136364	7.412758146113636
O	7.289519256022728	4.596007926136363	5.4776675261136365
O	4.5294316460227275	4.521217606136363	7.984133786113636
O	3.739668206022728	8.105764596136364	7.762426306113636
O	4.202678796022727	8.129000346136365	3.9860552161136367
O	1.303596436022728	5.659236916136364	3.4460249861136365
O	-1.0809783189772721	7.975940816136364	5.0827488461136365
O	-0.4856871319772721	10.790141386136364	2.4970544971136364
O	3.4239399760227283	9.422369106136365	0.15742816611363653
O	4.680298756022728	6.846308706136364	-2.285517113886364
O	-3.123970583977272	3.1054191861363636	-4.651617513886364
O	-1.504485203977272	0.10214429113636374	-3.1402155038863633
O	-2.635415313977272	-3.0631621438636363	-5.150110393886363
O	-2.832552823977272	-5.2271893138636365	-2.078263583886364
O	-4.639522303977272	-4.5877312638636365	1.2599398051136363
O	-4.701867473977273	-2.109462833863636	2.7646698781136365
O	-5.151958783977272	-0.5330183028636363	-0.6367931538863636
O	-4.299173093977273	2.9514837161363636	0.6551886261136364
O	-4.5226999539772725	5.691360866136364	-2.0482956238863634
O	-1.078493062977272	7.026124076136364	-1.5562441438863637
O	0.7405826730227278	6.195184146136364	-4.754257023886364
O	1.9316417460227278	8.109058086136365	-7.764238033886364
O	2.4626020460227283	5.130596646136364	-10.190020353886364
