18

O	-5.353571582733332	2.175631282927418	15.792647248183474
O	-5.415557503594191	-0.5876020273501288	16.27774875199728
O	-5.652136170372574	1.096624845085528	18.237085465319986
O	-5.99051744333129	0.9321970031348781	16.803038430506465
O	-5.855930744173528	3.4254209130357123	15.610596222263286
O	-3.7498761930060143	4.706462914232226	12.837704007644163
O	-7.4678118167302765	1.0060891712153803	16.857986322450913
O	-4.621174381962788	6.198713801749132	12.49318410012481
O	-5.382093538191093	4.245024797893073	14.59233541150373
O	-4.355825927756822	6.915885641469549	13.75759924119184
O	-4.224735082332886	3.960675068634158	13.932878395806545
O	-5.974402788029315	5.706117907685028	12.293874976376857
O	-3.8143695400324518	2.6607621087330804	14.023054881876227
O	-4.150807516091508	1.9842749990582513	15.182734008169632
O	-3.8785988339371977	7.159637611759759	11.232799391477467
O	-2.390848195363513	7.16520631419362	11.436412881967764
O	-2.0392707904901863	6.4595742864495325	12.706207394760218
O	-2.353356447611855	4.992174280489486	12.770199600341716
