21

O	-3.7708287698515597	5.9943508492608935	13.256042691986796
O	-3.4745402155998857	4.756329990343545	12.640413260590957
O	-5.285921888974013	5.864953868367483	14.000393695466649
O	-6.356637649202643	6.160064968714832	13.029849934020943
O	-5.351481209015522	6.893522023114481	15.04652004600461
O	-3.2048331723417958	3.7231712236214625	13.663787721084788
O	-2.6479234039265216	2.593592207033567	13.007279487476168
O	-2.746354467872023	6.344482766166777	14.175506000039917
O	-1.8553550167426618	7.273869102162614	13.3558069897481
O	-1.1441324070705647	8.281992320168122	14.211734244780608
O	-0.5364795958569033	9.199928351162988	13.35943289410235
O	-0.46968178922814374	10.403610032931098	14.038537780557629
O	-4.58879113643725	2.1215065134822995	15.049112862424872
O	-4.342584359638913	3.349010169230073	14.514281153401377
O	-5.301790622522258	4.297361984055611	14.724547691414227
O	-6.333869428864042	3.567635664130891	15.857828868428477
O	-5.463914530029896	2.101114705050823	16.06741463861445
O	-6.049591288614478	0.7458146680000253	16.947186248104227
O	-5.470582268639175	-0.6703738454475117	16.24138871032749
O	-7.4920171452225315	0.8701313329648079	17.113577981832396
O	-5.6087818201509005	0.8400155457435741	18.344211628201457
