13

O	-3.4543786667934855	5.193703798258595	14.283089398615436
O	-3.0421176146481965	4.019989541065609	13.81234768243172
O	-3.39188399990418	2.989925906121681	14.69121847015414
O	-4.6794336474963565	3.036728905161297	15.127543261329468
O	-5.137037359572409	4.1850642391461665	15.556355126510683
O	-4.421815374804286	5.281716895888487	15.180154335742404
O	-5.466439713764916	1.7627566408018793	15.098911670860808
O	-4.596656802443446	0.8384299067878473	14.384118826380064
O	-4.033421870118405	1.3728281265947133	13.32912741687485
O	-3.9552529621795554	1.0039814905392388	15.609924554695267
O	-4.955020567712994	0.6269866649348792	16.520590573399414
O	-5.580056731315802	-0.2550257564889943	17.11644224051356
O	-5.57158089199194	1.8201457213785859	16.442140831260488
