29

O	-2.989323267416051	9.681455263540343	12.385259883058373
O	-2.319603090957904	9.128712377406904	13.563040379874053
O	-2.7520184187378955	7.725225679717093	13.610652105498474
O	-3.994320452972259	7.392088871235979	13.40987009657743
O	-4.867880909763969	8.519274836701673	13.187918087254985
O	-4.145473093091977	9.217910145026117	12.132774834399829
O	-4.3578276205572415	6.309715920088637	12.533596910402597
O	-4.644517425038067	4.77675160800969	14.32768889721459
O	-5.956779850307476	4.430601125424653	14.470479602800578
O	-6.31948027548532	3.3553303004345465	15.28525229794116
O	-5.542994183869976	2.6330728423820866	16.11224833615501
O	-4.319892338204401	3.113830162348683	16.052116659878983
O	-3.8784876198615112	4.26958804835778	15.395153977040302
O	-6.08343683347184	1.2717670835823087	16.98583646667686
O	-6.335558739210443	1.315604012457686	18.427109734037018
O	-7.520578738031175	1.127376945850715	16.666104002915098
O	-5.521521087830548	-0.11817650296538851	16.233886089586356
O	-6.197497660801955	8.279866271068919	12.694404760004474
O	-6.884575176390261	9.507544902697584	12.622026848006175
O	-6.339319370376122	7.637528047809392	11.622832755837083
O	-4.3580902217489035	8.281315187238754	11.002359290765018
O	-4.422396261703923	9.21846920391232	9.974385213687533
O	-5.288168804850253	10.450571159407183	10.249385014878117
O	-6.501268952807931	10.669359784638447	9.6569438421237
O	-7.205703639132559	11.867681140416202	9.733141294392402
O	-6.483920300032433	13.004375337067877	9.97934809884514
O	-5.317184279976987	12.85971749937508	10.678149307197005
O	-4.704180983612537	11.608712696643423	10.772772171738964
O	-3.8375423187103292	5.143291797010556	13.168945322404866
