22

O	-6.17160676828938	0.8384205782658469	16.944790549728896
O	-5.645945559728786	0.9768945054999358	18.322273279593457
O	-7.5905697951772835	0.9864741927497338	17.122075755100948
O	-5.645169067381559	2.170587113485309	15.985987261857911
O	-5.66361148041598	-0.7348471600344495	16.390459629381628
O	-4.2979830131564665	2.357607613449801	16.100244519279805
O	-3.8008061922281837	2.2478841732449943	14.807310777147595
O	-4.2629112772638305	3.2936770964954483	13.992698432355061
O	-5.439817109699485	3.948626442856977	14.373294290427275
O	-6.165514774423491	3.1966175398731425	15.25439891774129
O	-5.679754273016329	5.46902930974476	13.683718173986499
O	-6.005805021775436	6.558624434301501	14.643571330044432
O	-6.605340620723506	5.755207265255995	12.586518699774784
O	-4.172488973317447	5.994837998383524	12.932226849177123
O	-3.8110550897332374	3.1874933012475575	12.624091561427493
O	-4.530581263761112	3.706788521755554	11.795680847062071
O	-2.4583490032210378	3.101576986792659	12.686585796632436
O	-3.2450733571718984	5.613508722954853	13.902320676875833
O	-3.7926343635866178	6.320341599893488	14.98976980866071
O	-2.958587635030101	7.646886467957243	14.957503663443092
O	-2.985151856831938	8.458776464246903	13.720016823391939
O	-1.771080961381971	9.341917160592534	13.703031452539047
