25

O	-6.560512173240374	9.19707240981705	12.142221854820104
O	-6.280059899352894	7.88021742789613	12.521559766509604
O	-5.374549758606305	7.033623894569078	11.868728882109462
O	-5.211224553864732	7.568358451442599	10.577523415248258
O	-5.390696394321006	8.904450821955717	10.153195912705998
O	-5.905706424539165	9.744625285120037	11.078013374339854
O	-4.164795911380341	6.482938621849647	12.51130483029976
O	-4.079375952210784	6.337993590605703	13.809804764164188
O	-3.203875264068259	7.326695619161223	14.188671486837135
O	-2.7027541020786128	8.228530823783839	13.322452698942858
O	-2.954735276873558	7.32872453342252	12.201982912810568
O	-2.5248459090730506	7.146134679557865	11.02302491379573
O	-4.691537807339014	5.099831813918493	14.264739455785794
O	-5.856061665383056	4.910722970013736	14.886100504421002
O	-6.110253328126948	3.7687319057147994	15.638736876844082
O	-5.331252915024975	2.6731595324260162	15.705452334075684
O	-4.215285004289311	2.7736155581401536	14.939737739816692
O	-3.930796688693426	3.9212403239838944	14.20844256954214
O	-5.946886573835468	1.336978699283275	16.598471908435453
O	-5.794289586127597	1.501173115791822	18.05904814173295
O	-7.42447818086837	1.3214406770839404	16.504825737597585
O	-5.356549062678521	-0.19888175910385364	16.155813508922687
O	-2.0676757533349175	9.300152182429287	12.576626830044013
O	-3.7081938885539643	9.483062493760524	13.513507709521779
O	-6.8200061351453485	10.125405396477671	13.11768268973677
