72

O	0.8003455616078434	-1.588859249764706	-2.972751983411764
O	1.7007808816078436	-1.1195522897647059	-2.0537453234117646
O	1.3438012716078434	-0.20767473776470602	-1.1038020784117646
O	0.18686020160784356	0.45196969523529396	-1.4017729764117646
O	-0.7472202773921566	-0.050468242764706045	-2.3097324134117647
O	-0.49467193339215654	-1.169905569764706	-3.042156683411765
O	-1.4068193673921565	-1.544262779764706	-4.130532203411764
O	-2.6065873283921563	-1.204578029764706	-4.093500103411764
O	-1.0702907741921566	-2.689710399764706	-4.877322483411764
O	-1.9241330573921567	-3.313774379764706	-5.8845908734117645
O	2.6000555516078436	0.38442686123529396	-0.05781095641176459
O	2.7860258116078436	-0.442918093764706	1.1669256165882353
O	2.2673828516078434	1.693255100235294	0.5633772165882354
O	-2.8619856783921565	-4.1983161597647065	-5.175775723411764
O	-3.1262683383921566	-3.9750732597647063	-3.8294786934117644
O	-4.447088018392156	-4.2057388997647065	-3.4578126234117645
O	-4.924035708392156	-5.458591389764706	-3.8557551634117644
O	-4.378536708392156	-6.076057419764706	-4.968991493411765
O	-3.5167093383921566	-5.274767649764707	-5.707595183411764
O	4.100931401607843	0.386784641235294	-0.8877291780117647
O	-3.3875881283921565	-5.538794709764707	-7.005116473411764
O	7.998129721607844	-9.987431879764706	-9.350618503411765
O	10.122914151607844	-6.935911749764706	-9.316626833411766
O	2.4637031116078436	-14.217733979764706	3.3701643365882354
O	5.884406451607843	-12.670073479764705	2.6648004565882353
O	6.455543521607844	-4.371440299764706	6.490031256588235
O	8.726595901607844	-2.415956409764706	6.363121366588236
O	2.8899477316078435	0.8872361932352939	-13.367019393411764
O	6.287020721607844	-0.6368269947647061	-13.840820393411764
O	7.168063081607844	-0.718622639764706	-10.179186273411766
O	6.819383401607844	2.978451800235294	-9.238945913411765
O	4.710832771607844	5.959555960235294	-10.377835113411765
O	1.3145329316078436	6.573241600235294	-8.786974813411765
O	-0.47439799839215646	9.930593070235295	-8.594501383411766
O	-4.203104688392156	8.883884060235294	-8.234519543411764
O	-6.554833228392157	6.901479140235294	-3.0967278934117646
O	-2.9627297383921567	7.430424110235293	-4.411000543411765
O	0.6302524816078434	8.410226560235294	-3.4212104134117647
O	3.9152334816078436	6.969887160235293	-4.781072053411765
O	7.599580181607845	6.7506462502352935	-3.8157632134117643
O	6.828970731607843	8.715042740235294	0.11990914658823537
O	3.6278834616078437	6.608551300235294	0.7515254965882354
O	0.1972943116078434	8.321555930235295	0.9078682865882355
O	-2.2791990283921564	5.4240662802352935	0.6086121265882354
O	-5.697076568392157	5.601911530235293	2.3279476665882353
O	-8.611169438392157	3.069209300235294	2.708351486588235
O	-11.178891048392156	2.746105070235294	5.4918018665882355
O	-10.282328848392156	-0.23138382876470603	-1.8340199494117646
O	-10.565911978392156	-3.862672489764706	-2.9419695534117647
O	-10.448174558392155	-2.646504079764706	2.4710411565882353
O	-7.266635918392156	-4.679832669764706	1.6771224565882352
O	-8.985141448392156	-7.786115849764706	3.057016676588235
O	-9.329132288392156	-6.2974168797647065	6.574031466588235
O	-8.468952578392157	-1.666976689764706	5.996697926588236
O	-5.646173598392156	0.7169545692352939	5.118364266588236
O	-3.7372818183921566	3.606144410235294	6.607823576588236
O	-0.40999297439215654	4.518526320235294	4.929581956588236
O	5.189767501607843	7.238900140235294	5.1926467565882355
O	1.3987205216078435	-4.786666319764707	5.531191326588235
O	1.6141748016078434	-3.701782009764706	1.9151446165882355
O	5.323993371607843	-3.524172919764706	0.9190286465882354
O	4.737591731607843	-4.973845099764707	-2.4984068634117644
O	2.9098309116078434	-8.177586729764705	-3.5236794534117646
O	0.33341876160784345	-9.199250779764705	-2.5221772834117644
O	1.8487096516078436	-8.121773289764706	0.8326617965882355
O	-1.5179560633921565	-8.295688059764705	2.6120778065882355
O	-1.4646167943921564	-7.4920039297647065	6.299372786588235
O	-3.9890062183921566	-4.747480989764706	6.247363446588236
O	-2.0525024933921565	-1.608762449764706	7.067912306588235
O	1.5452239716078435	2.419230760235294	9.252543606588235
O	1.9527001116078435	6.060338210235294	10.208384006588235
O	5.630789831607844	7.031750030235294	9.818935306588235
