31

O	-3.4719947393133777	4.432581560482934	13.6394803657667
O	-4.014870621485642	5.135215137104676	12.443719984063076
O	-4.055062289321874	6.607259952379664	12.749088448278737
O	-4.08352186205031	6.790346708482235	14.20403523420496
O	-3.1269494735924352	6.172205354130824	15.080372127544369
O	0.10697447116003467	11.630679624233217	13.595848368695078
O	-4.247816656558084	1.3226798557539468	14.971405253153007
O	-1.761385996828824	6.274997928370672	14.851190668550664
O	-4.495064056514264	4.0395900722399585	14.438613256189285
O	-6.634378707910599	2.384729045184924	14.742576127274619
O	-5.267241366540082	2.8417059421617754	16.76772798679531
O	-0.23807961471373007	8.525055526504769	15.391364752703447
O	-2.5920995527549984	8.514127408734767	14.29370222816128
O	-4.818231907050935	2.3266262561536677	15.15759645011572
O	-1.313148942432922	7.895311376417366	14.679020276869629
O	0.8342091160527461	11.504766530193656	14.912078117074323
O	2.63220133251307	9.205449852529775	13.635249703669093
O	3.475005480134342	9.382259862783542	14.846180662423285
O	0.9020559012170604	11.721543883293315	12.607671180935947
O	3.17700153024218	9.71904580377672	12.593329900172762
O	-0.24084946470481894	7.394860649028179	13.287565190476426
O	0.6061436440412318	8.493439931085303	12.753951999250791
O	1.9005518966417267	8.11366448751223	13.227326186566177
O	0.4134193791828418	8.404787242579868	11.289682987783586
O	1.108521660150957	9.434823788168412	10.721855941942698
O	-0.9918205301867373	8.449312785620688	10.861832944504297
O	-1.6806759057119716	7.507307178117153	10.18269418010226
O	-1.6890877208289155	8.536910498718285	12.25914347327992
O	-1.272820864825785	7.2039746486827205	12.458504843321329
O	-1.255320074320196	9.875315861312384	12.419415666861429
O	-0.8463447252411895	10.675051431256197	13.39243479998283
