78

O	1.2533918337636365	-0.4345761261636363	-8.96128809128
O	3.7938363937636366	0.021542223836363616	-7.928272521279999
O	4.105483853763636	-0.18002120016363632	-6.59852412128
O	3.7458393337636364	0.6209790993363636	-5.602798581279999
O	2.9194267037636363	1.5896521518363635	-5.974022801279999
O	2.271162403763636	1.3870957748363635	-7.218457151279999
O	2.514001773763636	0.39296910983636363	-8.11537018128
O	2.364913433763636	2.2987318538363635	-4.83742356128
O	1.6424931337636361	1.9329665138363636	-2.4692031512799995
O	2.4220005537636364	2.735042703836364	-1.6730231232799997
O	1.9405230637636364	3.1113949438363635	-0.4042668902799995
O	1.0263294737636364	2.3848862038363636	0.2668575587200004
O	0.1910750587636364	1.7703023638363637	-0.5966480052799996
O	0.33613391376363644	1.8093397438363636	-1.9930076972799995
O	0.5848861537636364	2.9012426238363638	1.8498877087200005
O	-0.7754214883363636	2.4052545438363637	2.1154939387200002
O	1.3652235437636362	2.1595621138363637	2.853756368720001
O	0.9020122237636364	4.550741813836364	2.080119548720001
O	0.9489576737636364	2.0387277538363637	-7.058902291279999
O	0.28083553376363646	2.0459226838363636	-5.998457511279999
O	5.812526123763637	-0.7827020861636365	-6.668610321279999
O	5.326443033763637	-2.481366386163636	-6.88329088128
O	1.8314292437636364	1.4668891648363638	-3.8133740112799996
O	8.256313573763636	14.176843613836365	-1.0831088802799995
O	15.170604493763637	-0.014395194163636327	3.510037048720001
O	13.895627593763637	3.1813958438363636	5.137495498720001
O	5.771674113763637	1.6196200038363637	9.13757486872
O	4.003946663763636	3.5551345938363634	10.58619646872
O	-0.1623939542363636	11.422451013836364	-8.10161576128
O	1.4956037137636362	14.389267813836364	-6.45669840128
O	1.7319321437636361	12.842908913836364	-3.0097809912799995
O	-1.9389823662363637	12.092749913836364	-2.2679843312799997
O	-5.096043466236364	11.299062013836364	-4.27467522128
O	-5.980025666236363	7.709046773836363	-5.09026685128
O	-9.430170086236364	6.290877883836364	-5.84151337128
O	-8.612516796236363	3.1238207438363634	-8.00792160128
O	-10.765123926236363	0.06208680583636361	-8.40753488128
O	-9.003830666236365	-5.593118846163636	-9.385964551279999
O	-6.656412746236364	-2.005885696163636	-5.659055981279999
O	-6.866858696236363	1.6434674738363637	-4.40198314128
O	-7.594328446236363	3.8416064938363634	-1.2824611447799996
O	-5.9583535362363635	7.178666153836364	-0.3431801312799996
O	-5.450581946236364	9.433115273836364	2.6728055187200006
O	-7.406423006236364	6.468746383836363	5.375359318720001
O	-5.561561976236364	3.4826531138363634	3.7233617687200002
O	-7.4593131262363634	0.7981261438363636	1.7918282587200005
O	-4.785980536236363	-1.0653564961636364	-0.1735704312799995
O	-5.229265746236364	-4.789177356163636	-0.9395151412799996
O	-2.950807986236364	-7.433382766163636	-2.6068403812799996
O	-2.7908873562363636	-11.183135686163636	-2.0088506072799994
O	-4.420063156236363	-13.022126386163636	-4.935939921279999
O	0.08205457276363648	-6.110023896163636	-7.4039106512799995
O	3.583521403763636	-6.050785956163637	-8.72657869128
O	4.4409735237636365	-9.555767586163636	-7.542024981279999
O	2.5778722637636364	-9.036414996163636	-4.28356949128
O	4.868620643763636	-6.174356436163636	-3.1052448012799996
O	7.843345043763636	-8.557437206163636	-3.24393860128
O	6.395254263763636	-10.892658886163636	-0.6054811902799996
O	1.8476640637636361	-9.598338386163636	-0.2475745082799996
O	-0.29455924923636356	-6.700821176163636	0.9311405587200003
O	-2.9898461962363636	-6.035222996163636	3.4988319287200005
O	-3.666701986236364	-2.3543628161636363	4.32252867872
O	-6.732364716236364	-1.3822386261636364	6.447024688720001
O	-5.911962006236363	1.9618234738363636	8.192678798720001
O	5.748949873763636	-1.7376031761636366	5.226307168720001
O	4.5258874437636365	0.7466122928363637	2.63092063872
O	4.723820213763636	4.251191803836363	4.185566108720001
O	5.9861484537636365	5.850367543836363	1.0503935187200006
O	8.953666703763636	4.878313113836363	-1.2169735973799995
O	9.823227993763636	2.1995962638363635	-2.0559847402799996
O	8.939731063763636	1.3744119898363636	1.5821896487200002
O	8.925930713763636	-2.3804078061636362	0.9280503487200005
O	8.229237283763636	-4.584528966163637	3.8923516987200006
O	5.2915706137636365	-6.395831056163637	2.4813000787200004
O	2.3509700037636363	-5.257203776163637	4.55385895872
O	-1.3121069012363635	-3.6373538161636367	8.773809768720001
O	-4.883043366236364	-3.7419181261636365	10.01556916872
O	-5.553638826236364	-0.5841093361636363	12.062562468720001
