13

O	-5.079324613870429	2.148346173040964	15.864290938183231
O	-5.432586928732176	-0.5882450104310482	16.29434847182162
O	-5.774222330671574	1.2576503791361144	18.21122267672346
O	-5.955210875376336	0.9597709128417042	16.770893702242944
O	-4.331838761174661	4.131498508273097	14.367659604174772
O	-3.6277144084218573	2.9990834591080042	14.405600634064378
O	-7.406644701004548	1.2170032169574458	16.590344313804767
O	-5.678196109169979	3.679375567917341	15.348766938851178
O	-5.184026156881022	5.926602387456278	12.909777269322028
O	-3.8094169768820896	2.2565524765505423	15.466773679564515
O	-6.051593260124777	6.292766814105958	13.75903064233484
O	-4.885320001232866	6.881929413749543	11.820924647735527
O	-4.121315691671485	5.151406670160363	13.417778098296301
