70

O	-0.6984777342450981	5.1503025543137255	-9.290050541964707
O	-0.25254529034509804	5.314548814313725	-7.863513541964705
O	-0.08131522634509802	3.962417994313725	-7.261135111964705
O	-0.07263359334509811	3.9438192343137253	-5.723814931964705
O	-0.41809002234509807	5.380186194313725	-5.332573001964706
O	0.6589350516549018	5.740644114313725	-4.3155773619647055
O	0.21582249665490194	3.1032288443137253	-1.6361381749647057
O	-2.3023119083450982	0.2766950743137253	2.1516673480352946
O	0.5701372316549019	1.5430654971137252	0.14766538003529428
O	-0.13581485134509808	0.2809945743137252	2.8036558480352944
O	0.9879620116549018	2.1652836863137255	-1.0257490859647056
O	-1.592319532345098	2.400185941313725	3.4259303780352948
O	-0.5973009003450981	1.8685147423137254	0.7751493380352944
O	-0.644270216145098	3.718221324313725	-0.7747900311647057
O	-1.0748458823450981	3.088285484313725	0.3893262980352944
O	0.7124285216549019	3.6816190743137254	-2.8792470819647056
O	0.34179175165490194	5.020379944313725	-3.1207045719647057
O	1.742920981654902	3.2596663143137254	-3.4537574919647054
O	-1.1539061463450981	1.2104982643137254	2.2769469880352946
O	-7.228363708345098	13.721765754313726	3.1672811080352945
O	-14.058008648345098	1.3574026423137253	-5.361894511964706
O	-14.163324348345098	2.7047411643137256	-1.7888445149647056
O	-9.145407618345098	-2.601602765686275	3.730689578035294
O	-8.590687228345098	-2.2405549556862745	6.6584903280352945
O	3.886965631654902	13.352427354313726	0.7798394380352943
O	1.3011300016549021	15.242907254313725	2.7646682480352944
O	-0.5152736043450981	12.174983854313725	4.0020804480352945
O	2.2861354416549022	10.331934804313725	5.840938728035295
O	6.080986181654902	10.036618734313725	5.553950278035295
O	7.600894081654901	7.368782534313725	3.326139528035294
O	11.073762851654903	5.861151864313725	3.7154097180352945
O	11.873816951654902	4.608865104313725	0.12763079703529434
O	9.537843051654903	-0.39407633568627465	-2.1863465219647056
O	8.722727821654903	1.8150336673137253	0.8760817980352943
O	7.453762181654901	1.7846581303137252	4.511229698035295
O	5.220781201654901	4.3920270843137255	6.215436048035294
O	3.001516101654902	4.683736274313725	9.312169878035293
O	3.529353301654902	0.35562200431372526	10.313839378035293
O	3.136096931654902	-0.7489487656862746	6.626694088035294
O	6.035645341654901	-2.3290261256862745	4.713148468035294
O	4.976402741654901	-2.130350105686275	1.0405062980352944
O	6.121158061654902	-4.822879555686275	-1.4471411799647056
O	5.317958271654901	-5.464898995686275	-5.192407581964706
O	5.252425001654902	-8.738570045686275	-7.1185609919647055
O	5.092738971654901	-0.9972711656862747	-8.984139651964707
O	2.728220621654902	0.7563370923137253	-11.387778921964706
O	1.6721848516549018	-4.456472255686275	-9.865819011964707
O	-1.165492299345098	-2.238453915686275	-8.440428251964706
O	-3.350312458345098	-3.2864860356862753	-11.366871321964707
O	-3.270809548345098	-6.998718605686275	-10.389844091964706
O	0.24894294565490194	-7.323745685686275	-7.219442361964705
O	1.155524561654902	-6.201591495686275	-3.7020157519647054
O	2.0385815016549023	-7.6773718756862745	-0.34223891896470565
O	1.825890391654902	-5.359528425686275	2.6942034780352944
O	3.205183541654902	-6.426973285686275	6.118680568035295
O	1.278765281654902	-4.502769225686275	8.850359088035294
O	-6.735525278345098	-3.1628230356862748	-0.8067456987647057
O	-4.666124768345099	-0.02169106568627477	-0.5362916919647056
O	-5.895436128345098	1.9979288633137253	2.4955472480352943
O	-5.529355478345098	5.304034974313725	0.7251206880352944
O	-6.927016048345099	6.442580904313725	-2.6482014419647055
O	-6.878571108345098	4.971662304313726	-5.203251551964706
O	-7.942966648345099	2.0872956103137255	-2.8963806619647054
O	-7.143694838345098	-0.5466826956862747	-5.533378071964705
O	-7.840014608345099	-4.116029755686275	-4.546870881964706
O	-4.433144158345098	-5.5016543456862745	-5.151281441964706
O	-3.105824058345098	-6.3762126956862755	-1.7264449359647056
O	-2.349007918345098	-8.244335965686275	3.750224938035294
O	0.044029899654901894	-9.853058245686276	6.205646928035295
O	-0.7650632177450981	-8.589720545686275	9.726613178035294
