74

O	-3.413740425262069	-0.04944858366724114	2.0618532713089657
O	-4.740692465262069	0.8915813453327588	-0.03282457869103428
O	-3.459061665262069	0.46694450003275884	-2.0546208986910344
O	0.9534338947379308	-1.5078621086672412	-1.2947586426910345
O	0.33676182473793115	-0.6287207886672412	-2.3120510386910342
O	-4.6272143052620685	0.9732987363327589	1.3500940113089657
O	-2.272332417262069	0.3423499743327588	-2.5818126186910346
O	1.3824823047379309	0.4151004536327588	-2.3012979786910344
O	-2.047983794262069	-0.21234397166724117	-0.3432188946910343
O	-5.713222835262069	1.482153831332759	2.0061506913089655
O	0.3001580347379311	-1.3167547986672412	-3.8769485586910344
O	-6.48180685526207	2.469899561332759	1.4015138313089657
O	-6.620994725262069	2.2987666913327587	0.029620057308965664
O	-5.860662655262068	1.3756186373327588	-0.6493385986910343
O	-3.476947535262069	0.6640140513327588	-0.7446529356910343
O	-1.264397674262069	-0.1678094456672411	-1.8784822486910342
O	-7.75603952526207	-0.14372350066724116	-13.668238538691034
O	-1.684368961262069	3.896589081332759	-15.254806938691033
O	-0.985992000262069	13.486985511332758	-7.307589658691034
O	-0.05132734526206906	10.850655911332758	-9.906832228691034
O	6.094712104737932	4.984402361332759	-6.408424528691034
O	7.274501034737931	2.5356717013327588	-7.680657228691034
O	-11.333619265262069	-6.2335493986672414	-4.750381918691034
O	-11.16912337526207	-6.212019748667242	-8.506252408691035
O	-7.596077795262069	-5.015212128667241	-8.727090208691033
O	-5.751155985262068	-7.720328828667242	-6.750280138691035
O	-6.5543060052620685	-10.109413488667242	-3.880147558691034
O	-5.99404659526207	-8.990700718667242	-0.2943046466910343
O	-5.378105365262069	-11.305738988667242	2.6703865513089653
O	-6.548808105262069	-9.157040938667242	5.692895071308966
O	-5.465460475262068	-9.399858788667242	9.275855231308967
O	-5.198083105262069	-4.944331178667241	13.318817761308967
O	-3.236778855262069	-4.721576158667242	8.017295121308967
O	-3.160275635262069	-6.733194868667241	4.709647711308966
O	-0.845569210262069	-8.247533738667242	2.0300698913089654
O	-1.453808599062069	-8.50850807866724	-1.7445158186910343
O	0.521461894737931	-9.064989398667242	-4.958973828691034
O	1.1742900347379313	-7.453442988667241	-8.333327828691035
O	4.406398184737931	-9.004531898667242	-2.749736608691034
O	3.349831354737931	-5.980557308667241	-0.5801384982910343
O	2.8682899847379306	-6.3214494486672415	3.1916750213089653
O	0.947741744737931	-3.1945586686672414	4.227356211308965
O	1.4984319047379309	-1.663150868667241	7.723750361308965
O	0.13414247473793095	1.5701561313327588	9.386000061308966
O	1.7025630347379312	3.749536401332759	12.068052461308966
O	-5.478271425262069	3.1231281313327592	8.780422091308967
O	-7.6835999552620695	5.9102496813327585	7.370630241308965
O	-2.425111055262069	6.975533441332758	8.694913541308967
O	-2.758224515262069	7.448139741332759	4.8802646313089655
O	-3.036927475262069	11.186128311332759	5.419297911308965
O	0.468244774737931	11.442044911332758	6.991019251308965
O	1.6629590847379312	6.9491271613327585	7.963927291308965
O	2.495533424737931	3.678219621332759	6.215507121308965
O	5.340979834737931	1.1992408673327588	5.9476189013089655
O	5.143013264737931	-1.257990088667241	2.982507641308966
O	7.579826654737932	-4.236519958667241	2.8002112913089654
O	8.00231932473793	-5.204599438667241	-0.9080732426910343
O	9.321402104737931	-8.692610348667241	-1.7826579186910343
O	3.479074194737931	6.494726221332758	-2.2185102386910343
O	0.6649606347379309	3.982204571332759	-2.6657658086910345
O	1.023671334737931	2.4000652613327587	-6.154917518691034
O	-2.677815785262069	2.4747038713327587	-6.855277368691034
O	-5.181238895262069	5.3582441913327585	-6.600922198691035
O	-5.426814145262069	7.414643851332759	-4.5045412586910345
O	-1.593359386262069	7.366562331332759	-4.8267860586910345
O	-1.131491469262069	9.22354176133276	-1.5395979986910342
O	2.4341993947379312	10.003031171332758	-0.5756701795910343
O	2.411187944737931	8.352841721332759	2.768219511308966
O	4.708505904737931	5.3847262913327585	2.4352172713089653
O	8.139635864737931	4.518903631332758	3.6533503913089653
O	9.034946404737932	1.681962151332759	1.2163757613089656
O	11.120525704737931	-1.217819708667241	2.4790181413089654
O	12.233199604737932	-3.321636308667241	-0.5146055321110343
O	2.319251104737931	0.4146209900327589	-12.261278538691034
