72

O	-1.536733006156863	1.567597315878431	-0.4409722210372551
O	-2.405695937156863	2.460356774078431	0.12566791996274496
O	-2.201359559156863	3.0287638950784315	1.372297338962745
O	-1.021024989156863	2.819376605078431	2.076524648962745
O	-0.003792447156862888	2.3182716500784313	1.294620471962745
O	-0.29075637715686287	1.7887317890784311	0.051372155962744914
O	-1.872574070156863	0.7299587350784311	-1.9192385910372551
O	-0.6615112991568629	3.972919015078431	2.856761258962745
O	-0.682464744156863	0.3323982450784311	-2.697690581037255
O	-2.508521977156863	-0.6035103249215688	-1.757525561037255
O	-2.9203067471568627	1.644636559078431	-2.924306811037255
O	-0.3324013971568629	3.925430505078431	4.199087868962745
O	-0.07651608715686287	5.127262545078431	4.873129958962745
O	-0.977352290156863	5.462366815078431	5.856742668962745
O	-1.428163189856863	4.195516855078431	6.4421090289627445
O	-2.023625138156863	4.520789445078432	7.758088568962745
O	-2.7799021271568627	5.717175755078431	7.533724968962745
O	-3.2302179571568628	5.782200465078431	6.189962408962745
O	-2.202897456156863	5.826697225078431	5.103534078962745
O	-1.9295032141568629	6.843617865078431	7.802875538962745
O	-0.40136963615686294	2.579517745078431	5.052527018962745
O	-12.654139057156863	9.464660295078431	-0.9241546210372551
O	-12.338727357156863	-4.915592714921569	7.178038508962745
O	-13.544678257156862	-3.6241230649215685	3.7912611589627447
O	-7.693987397156863	-6.108724644921569	-2.811193581037255
O	-7.796205907156863	-5.437709224921568	-5.736889241037255
O	-2.1318156671568627	13.79923500507843	0.06672861396274499
O	-5.553791047156863	14.469308605078432	-1.3530609810372551
O	-6.097110027156863	10.967773785078432	-2.620538081037255
O	-3.120598247156863	10.556880945078433	-5.003221871037255
O	0.45237799284313707	11.877819805078431	-5.235510891037255
O	3.272502362843137	10.021388425078431	-3.504947051037255
O	6.952182552843137	10.137216225078433	-4.501401961037255
O	8.778539742843137	9.19822113507843	-1.2058693410372552
O	9.091667742843137	3.592747595078431	0.9144547498627449
O	6.955877132843137	5.377013365078431	-1.7696390310372552
O	5.239360472843137	4.948327185078432	-5.185076261037255
O	1.916171832843137	6.433161145078431	-6.372608031037255
O	-0.698672045156863	5.866012155078431	-9.083424441037256
O	1.4112755728431372	2.2099803770784314	-10.567692721037254
O	2.092438142843137	0.9020795570784311	-6.999428411037255
O	5.632130692843137	0.6367686530784312	-5.609130151037255
O	5.178722882843137	0.22735255507843122	-1.840766971037255
O	7.709067112843137	-1.8177155249215686	0.2047084989627449
O	7.8315476228431375	-2.873089624921569	3.939419118962745
O	9.426510542843138	-5.927209274921569	5.521672228962745
O	6.309075002843137	0.9433249370784311	8.149128738962744
O	3.8230943328431373	1.4249915020784312	10.974939878962743
O	4.873374742843137	-3.713881714921569	9.106041188962745
O	1.181916952843137	-2.8759050949215688	8.271582268962746
O	0.10955896284313704	-4.868866434921569	11.315577478962744
O	1.5718760128431373	-8.151227164921568	9.957711588962745
O	4.378830182843137	-6.813757434921569	6.369888638962745
O	4.167578062843137	-5.238427594921569	2.909457968962745
O	5.075074592843137	-6.106750974921569	-0.670081531037255
O	3.4438526328431367	-3.973121094921569	-3.4060166110372547
O	4.593244692843137	-4.219568504921569	-7.064198751037255
O	1.6519138928431372	-3.198130744921569	-9.337600721037255
O	-4.604892057156863	-5.736100054921569	1.3221604739627448
O	-4.106653787156863	-2.0205186349215687	1.093519246962745
O	-6.547877467156863	-0.6409394749215687	-1.564528621037255
O	-7.2890183971568625	2.466264008078431	0.46594091196274495
O	-8.503567317156863	2.771708365078431	4.072646138962745
O	-7.463375367156863	1.3703637720784312	6.463082148962745
O	-7.5207514271568625	-1.5701357149215687	4.054028458962745
O	-5.321378177156863	-3.7169913649215687	6.296261528962745
O	-4.632795587156863	-7.212982124921569	5.054525628962745
O	-0.908969284156863	-7.051810054921568	5.090685688962745
O	0.11924618284313704	-7.14159293492157	1.460100689962745
O	0.736692072843137	-8.319756774921569	-4.223890541037255
O	3.1720984228431375	-8.658280994921569	-7.100760611037255
O	1.3812047328431372	-7.72969043492157	-10.351930521037254
