72

O	-3.380263115204082	0.03251362576938774	6.768310036102041
O	-2.7876092552040825	0.29542173776938774	7.977563966102041
O	-3.4688283052040823	-1.3656553052306122	6.331343346102041
O	-2.5818691852040825	-2.3838181852306124	6.984725806102041
O	-3.036157555204082	-3.6063487752306123	6.446653406102041
O	-1.3150532382040823	-2.1449130752306123	6.1319514461020415
O	-1.0731717472040825	-0.8051755742306123	6.341443416102041
O	-1.9914554882040822	-2.173701465230612	4.763563076102041
O	-3.1439188752040823	-1.5137103352306123	5.036746586102041
O	-1.1826440212040823	-1.2345490852306122	3.921531656102041
O	-1.3843516602040824	0.04858576966938774	4.3985409961020405
O	-1.4241251102040824	-3.2786974752306124	2.826108026102041
O	-1.9100148832040824	-3.383449795230612	4.140458036102041
O	-1.6462051247040823	-4.570482085230612	2.0965945361020406
O	-1.5119661762040824	-4.215476065230612	0.7806886031020408
O	-2.9695145652040824	-4.961417625230612	2.6619023561020407
O	-2.7029751652040823	-5.394190535230612	3.985284226102041
O	-3.8075970052040824	-3.7496650452306124	2.881273426102041
O	-4.6727248252040825	-3.9491342952306123	3.917657836102041
O	-3.313486955204082	-2.4365600252306123	2.548581766102041
O	-2.0333312282040823	-2.290562615230612	2.0858004161020407
O	-4.168104635204083	-1.3710649152306122	2.1031801661020406
O	-3.5968766752040824	-0.14446401623061225	2.294813446102041
O	3.524099514795918	-15.364493395230612	-0.06610849389795925
O	8.009684024795916	5.236240134769388	9.47767263610204
O	9.338860864795917	2.2915691347693876	7.544005286102041
O	8.057295354795917	-1.2169052252306123	8.25217561610204
O	8.869293864795917	-4.789771175230612	7.115472916102041
O	5.449219194795917	-6.456604755230612	6.818903606102041
O	6.858599494795918	-9.717354605230613	5.6353574461020415
O	6.061173674795917	-9.231586645230612	1.976794289102041
O	7.813260414795916	-5.925607695230612	1.259944922102041
O	8.887005264795917	-2.793902055230612	3.188172766102041
O	6.544721424795917	0.17846431026938775	3.394117066102041
O	7.481526464795918	3.806029634769388	3.9758617361020407
O	4.291969284795918	5.416780244769388	5.466680146102041
O	3.094041244795918	8.955885354769388	5.404382096102041
O	-2.6166163902040824	10.951407404769387	5.421782146102041
O	-0.6119497552040822	6.725846964769388	2.232673426102041
O	2.590823484795918	4.632598134769387	1.6158262781020407
O	5.180749394795917	3.5120563147693877	-1.003485383897959
O	6.869978344795918	0.08853475256938775	-1.3536207638979592
O	8.743328764795917	-1.9567692252306124	-3.962400423897959
O	8.084180904795916	1.1796070747693879	-7.071034273897959
O	4.3689067047959185	1.6518076147693879	-6.024563293897959
O	3.1690743647959176	4.944838444769387	-4.535715423897959
O	-0.2199096452040823	4.128343094769388	-3.004835913897959
O	-2.9412891852040826	6.846900684769388	-2.911028333897959
O	-6.636696085204083	6.724739404769387	-1.7888817838979592
O	-9.535623855204083	8.882312714769387	-3.0447379038979587
O	-10.448415125204082	11.513762004769388	-0.44151473389795926
O	-10.526177965204083	6.557087334769387	4.683407126102041
O	-8.336810985204082	3.9886652247693877	2.9972088361020406
O	-10.643369915204083	1.1477014947693878	4.138041126102041
O	-13.591579335204083	2.524969324769388	2.324029146102041
O	-11.548042515204083	3.4929434247693876	-0.7150319538979593
O	-10.521466575204082	-0.16368153223061224	-1.4691994538979591
O	-14.191600635204082	-1.0521334052306122	-1.872057433897959
O	-7.171434885204082	4.022410604769387	-5.349600043897959
O	-4.556450825204083	5.534980334769387	-7.585713583897959
O	-1.1742094692040823	3.727883514769388	-7.707729283897959
O	1.8045139047959178	5.394775094769388	-9.50246161389796
O	4.166643844795917	2.5882169547693876	-10.68447011389796
O	8.987324364795917	-9.332105325230613	9.49012555610204
O	-4.046567195204082	-4.514034875230612	-5.9909904238979586
O	-1.1778727562040823	-6.903662205230612	-6.855332833897959
O	-1.2651420502040822	-8.680796315230612	-3.558344323897959
O	-4.223725885204082	-10.450132095230613	-1.926609813897959
O	-7.0113722452040825	-9.454125235230613	-1.6322507838979592
O	-6.465242265204083	-8.313718565230612	-5.195710803897959
O	-9.457621385204082	-5.931256205230612	-5.119832833897959
O	10.672912764795917	-14.398716195230612	7.960627856102041
