76

O	0.9673215165800002	1.481277537084	-6.26757408918
O	0.8870874665800002	4.882020094184	-7.34650182918
O	0.8781934365800002	1.737953925184	-1.63702903388
O	3.70525991658	0.8061215721839999	1.0408876108199998
O	1.3582704865800002	-0.1384804758160001	1.62590488082
O	2.2678866965799998	0.396786934184	0.52848116082
O	0.89052344658	2.992290044184	-2.14346301318
O	2.4440978965799998	-0.3495133658160001	-0.6946003891800001
O	1.7214221665800002	2.923500484184	-3.26171901918
O	1.21939369658	1.702243527184	-0.2660738491800001
O	1.9431072165800003	1.726943248184	-3.95858851918
O	-0.4465946145199999	3.4143133141839996	-2.26389161918
O	1.08490808658	0.7316223301839999	-3.69712312918
O	1.18576178658	0.564149462184	-2.28984286818
O	-0.8394730574199998	4.4943022241840005	-3.05656465918
O	2.0028660565800003	1.800762393184	-5.37114615918
O	-0.20178167741999986	0.689749883184	-5.94681028918
O	0.12456135158000015	0.17112930418399985	-4.63942125918
O	2.50318074658	3.159764404184	-5.61571918918
O	1.25716535658	3.765832664184	-4.97436075918
O	0.11847486258000017	3.4778842341839997	-5.83254329918
O	-0.36123760241999986	4.634374574184	-6.71613621918
O	-0.8847601014199998	2.693037634184	-5.16575338918
O	0.5786708765800002	2.616686714184	-6.95302089918
O	-0.17144302741999984	2.804635874184	-8.16876492918
O	-1.1672010874199998	3.900477824184	-7.7923117391800005
O	13.63360718658	0.17924738418399988	-8.14426604918
O	14.63731288658	1.443884203284	-4.79912777918
O	4.63731040658	-11.428156355816	-8.35330533918
O	7.557063246579999	-10.633980155816	-6.0170936391800005
O	4.46295687658	-9.117626255815999	2.3904512208199993
O	6.04307709658	-8.427756625816	4.82209384082
O	7.81830687658	10.520410654184001	-3.28192835918
O	11.38216568658	9.360710504184	-3.3477231291800003
O	10.81229518658	6.1694055341839995	-1.42979066418
O	9.161185166580001	7.484234384183999	1.7688575308199999
O	7.0446489765799996	10.479803994184	2.8677632508199995
O	3.25710018658	10.325606814184	2.7594495108199997
O	0.7342199165800001	12.284077744184	4.8322067108199995
O	-2.46599175342	12.237123844184	2.5703623008199994
O	-6.1464715534200005	7.458277844184	2.05660107082
O	-2.5852584834199996	8.075573704184	3.5167169608199993
O	0.013759193580000162	6.975225574184	6.183497130819999
O	3.8262032465799996	6.617484174184	5.72363149082
O	6.76768108658	4.828588404184	7.3169236708200005
O	4.09542654658	2.8288487741840003	10.22732420082
O	1.4779832565800002	1.928637077184	7.58069638082
O	-2.0434493834199996	3.430053064184	7.6864198108199995
O	-3.5239707634199995	2.7014710341840003	4.285068390819999
O	-7.22355033342	2.097194817184	3.60056920082
O	-9.19381676342	1.0891317341839999	0.39469237081999986
O	-12.499579513419999	-0.7955655758160001	0.22789807082000002
O	-15.355232013419998	1.579662462884	-0.62151608918
O	-8.038946513419999	3.3482922741839998	-4.82189798918
O	-7.02266024342	2.296497981184	-8.28710236918
O	-9.297898393419999	-1.4355169858160002	-5.04403922918
O	-5.71465290342	-2.6382889658160003	-5.68453455918
O	-6.94892749342	-5.033542295816	-8.29623963918
O	-9.07613535342	-7.004474365816	-5.75455434918
O	-9.21003390342	-4.178595805816	-1.93931804018
O	-6.99274888342	-2.7820716558160004	0.7870056808199999
O	-6.66542048342	-2.888279655816	4.565046810819999
O	-3.24729132342	-1.7241304458159998	5.94399186082
O	0.98831520658	-1.7045814358159999	10.51227310082
O	0.4318471975800001	-7.672791595815999	-0.44049272918000004
O	1.7934698365800001	-4.241697465815999	-1.0734012111800002
O	5.37504442658	-3.8621552558160004	0.1238733408199999
O	6.67887083658	-1.922498015816	-2.7493401091800003
O	6.37042237658	-2.6788347858160004	-6.4362815191800005
O	3.88296664658	-3.4616325658159997	-7.87653609918
O	3.5708798565799995	-5.875357805816	-4.93950755918
O	-0.08927677041999987	-6.778986805816	-5.72720431918
O	-1.75789118342	-9.209247355816	-3.44263166918
O	-4.63937297342	-7.081180565816	-2.38767741218
O	-4.02878931342	-6.400291155815999	1.26559180082
O	-2.68675311342	-6.762204025815999	6.8865041408200005
