26

O	-6.080717770896782	4.461191696233917	17.658866737715947
O	-1.466193271116782	4.184734710307412	10.350509665008277
O	-0.36066760625048655	4.357383871465849	11.052022861964511
O	-0.3290211806195025	5.404605115781758	11.965049854922007
O	-1.1691336483647232	6.444081322276408	11.77349740212496
O	-2.3625757166799843	6.148137472382641	11.304323350329593
O	-2.486898089768488	4.957755568996922	10.655429675935256
O	0.7246115838965554	4.3249121848607635	10.365502091527818
O	-0.7745668820246401	7.83188331866606	11.803364699861561
O	-1.7244670420660424	8.702626841877848	11.16174486229163
O	-4.130491057201625	4.586459343231413	10.208417967661326
O	-4.631956035638271	4.726933354372298	11.968156615577396
O	-4.143145810308299	3.3884504128117916	12.4463392894923
O	-3.0446511898434143	3.0234723413561104	12.047030163367623
O	0.17070219544963283	7.835641050689912	10.498943338688193
O	0.28432832224977833	8.031495023331015	12.750575893251424
O	-4.17738376451167	3.3410459669275356	13.923400737125307
O	-5.181041068101396	2.614895630075956	14.517392777140739
O	-5.32389920177747	2.6955330947450635	15.853182386078803
O	-5.141262018133746	3.978818134915309	16.31365089618537
O	-4.444878636489054	4.837369157051734	15.534843206382277
O	-3.544824691597186	4.521483626000254	14.432054752066279
O	-5.874746287432577	1.3360651042668679	16.765553888872727
O	-7.345363775538206	1.2402791379275715	16.91439667686089
O	-5.447671605777471	1.3089863166372102	18.180495460484725
O	-5.376369048769421	-0.18750266930730142	16.10696851200558
