78

O	-0.7195899664948278	-1.3600545801896546	-0.06609301808448236
O	5.941891309505172	-4.864149230189655	-0.5232498179844823
O	5.3337762295051725	-3.7885699301896545	1.9620465330155177
O	3.264538219505172	-1.4142283101896547	0.8714115800155177
O	2.8935143895051723	-0.6420309741896547	-0.6339927679844823
O	2.7155692795051722	-1.7652322201896546	-1.3863564069844825
O	1.4490243295051721	-1.9934606901896545	-1.8412476569844825
O	0.4858377865051723	-1.0775066901896546	-1.3465435969844823
O	0.8425939195051723	0.1950698430103453	-1.5608126069844825
O	2.1047634595051723	0.3907642418103453	-1.1272219969844826
O	3.7398979095051725	-2.6814874501896546	-1.1715593669844824
O	4.880729209505172	-2.5913952501896547	-0.35529919598448234
O	4.911590049505172	-1.6254107201896546	0.6550078210155177
O	-0.34853090283482774	1.3839248698103455	-1.8199334369844824
O	-1.5085253104948277	0.8035141198103453	-2.5277905969844823
O	-0.8915824744948277	1.8406756598103453	-0.5357808519844823
O	0.4191304055051722	2.5620620998103454	-2.8046838469844824
O	2.791314019505172	-2.8416204201896544	1.2612447630155175
O	2.625206449505172	-0.7868806331896547	1.9132720830155177
O	4.742501389505172	-3.9677469301896546	0.35759468901551766
O	10.221448619505171	2.3197765498103453	-11.088346516984481
O	8.835201879505172	5.597093729810345	-12.245096416984483
O	3.8228789495051725	2.6843794698103456	-14.900699716984482
O	-1.5992963904948279	-4.346297110189655	-14.202492916984482
O	-5.971608180494828	1.2890358498103454	-8.436634136984482
O	-5.835549880494828	4.279000439810345	-8.295169746984483
O	13.091100719505173	1.3167569098103453	-0.10005449988448235
O	13.958792919505171	3.0712032198103456	-3.3065700469844823
O	10.389224419505172	3.8128356498103453	-4.305211206984482
O	9.161825259505171	5.834416589810345	-1.3034481469844825
O	9.932209319505173	6.017227659810345	2.4365820730155177
O	8.046439089505173	3.7657170498103456	4.847712993015517
O	7.468123409505172	4.461576479810345	8.547202993015517
O	6.875690959505172	0.9479828988103453	10.055678683015518
O	4.978278049505172	-0.04193989218965467	13.136530983015518
O	2.028570929505172	-5.213089700189655	14.131054483015518
O	-1.525766690494828	-0.8286048081896547	10.835237283015518
O	1.745313829505172	-2.1130114801896545	9.410907063015518
O	3.312487079505172	0.9850639808103453	7.699397923015518
O	2.5455153495051723	4.399589909810345	6.099040883015518
O	4.251156809505172	6.077746069810345	3.111716883015518
O	3.5720434195051722	8.888535419810346	0.6078079840155176
O	3.3614761695051723	9.494924879810346	-3.137381996984482
O	-0.5291234134948277	9.536087869810347	2.224661583015518
O	-1.2717877074948278	5.755534169810345	2.4736952530155176
O	-1.766438830494828	4.061714129810345	5.8369150630155175
O	-1.5320325504948276	0.3664054988103453	5.196021693015518
O	-3.477753220494828	-2.1934716601896547	7.249933473015518
O	-3.8503590104948278	-6.039084780189655	6.9885324830155175
O	-6.7716084904948275	-8.240776450189655	8.021590833015518
O	0.7757688295051722	-9.432615380189654	5.918703333015518
O	-3.293715500494828	-10.987242430189655	3.6496600530155177
O	-2.117581340494828	-9.724763840189654	0.20164042501551765
O	-3.338061710494828	-12.990223530189654	-1.3183868169844823
O	-6.9914374704948274	-12.348905430189655	-0.3088340089844823
O	-6.750093530494828	-8.825676810189654	2.856239533015518
O	-5.911586050494828	-5.142439920189655	3.110318003015518
O	-7.486349570494828	-1.8328457901896547	4.070948373015518
O	-5.607875410494828	1.3306736698103454	2.898865073015518
O	-6.622828750494828	4.789720379810345	4.195321303015517
O	-5.612629000494828	7.417908499810345	1.5644856130155176
O	-5.285332050494828	11.080265969810347	2.6353966730155176
O	-5.360311710494828	-2.9567531901896547	-5.566908416984482
O	-1.8135473804948279	-2.0702056701896545	-4.447964896984482
O	-0.5314481264948278	0.8322544328103453	-6.506566336984482
O	2.887562959505172	-0.5471490611896547	-6.920236736984482
O	3.9863030895051725	-3.9809369001896546	-8.217375506984482
O	2.8708640795051723	-6.620348110189655	-7.537741126984482
O	-0.44745251579482775	-4.718228050189655	-8.010860796984483
O	-2.437466040494828	-7.452544380189655	-6.251235306984483
O	-6.152635540494828	-6.869374990189655	-6.015975546984483
O	-6.493700410494828	-7.174672270189655	-2.3151858069844824
O	-7.4124721404948275	-3.7080351301896544	-1.1263681969844825
O	-9.629579150494829	1.6455678498103454	-0.38153638798448236
O	-10.784703780494828	4.234504349810345	2.1354510330155176
O	-10.171105940494828	7.717912809810345	0.6768620210155176
O	15.593638319505173	6.638622129810345	-5.863375886984482
O	0.6713230295051723	5.749202249810345	-10.714454916984483
