22

O	-5.442698494804439	3.0316987008672034	13.029256752278732
O	-5.365130649463656	4.007020601144651	11.988084559681504
O	-4.896739221537697	1.8143428303946136	12.38667181209225
O	-5.463702306353261	1.735080394282503	11.128866892208663
O	-3.5097355949949818	2.1365406688503366	12.017436140608588
O	-3.8546940870390967	3.0570134187325912	9.745709321412207
O	-3.866403865528854	4.298420626838681	8.899086642823622
O	-3.6477154414020196	3.227924144051676	11.062530944042052
O	-3.3507711398163273	2.0461478981379964	9.22565702024118
O	-2.946275455193357	2.8637957185922747	13.170168950510993
O	-0.985682891040633	4.499703749343412	10.590422079648333
O	-1.4898106051530666	3.4306729528885995	11.474457239489512
O	-2.120494485656603	3.8760634440803132	12.666919059055436
O	-1.1808149525836473	2.2022806956913064	11.356805436277781
O	-3.7146926583443376	3.111847813746679	14.389037845576468
O	-4.195709834951648	1.7021963375219935	14.543794957556955
O	-5.702261711099565	-0.19436292881040473	16.84714263199155
O	-4.822768705531257	3.7892548153995396	13.972837702524314
O	-5.460637056752737	1.7316511841191218	15.076762768100473
O	-7.208906618501969	2.121088187227791	16.9713498289887
O	-4.788281787271385	2.1491681646989598	17.53920225633951
O	-5.691916034984915	1.2200330069266396	16.613260845161275
