75

O	-0.7947683310588234	2.383272033235294	-1.6547682021568624
O	0.37546072094117666	2.8983455232352937	-0.9422467361568625
O	-0.20448171605882332	3.2575567632352938	0.35623246284313753
O	1.0625476179411766	0.02858937923529381	-0.7196686271568624
O	1.5668458509411767	1.6731704532352938	-0.7218699391568624
O	2.730504920941177	-3.073128746764706	0.45129039884313754
O	2.894966030941177	1.6359245132352938	-0.5510057721568624
O	2.2160835309411766	-2.997714066764706	-1.8697092621568625
O	3.5210580409411767	0.4061682315352938	-0.3753688431568625
O	5.9827694009411765	-0.1858540857647062	-0.3087877051568625
O	2.588580350941177	-0.6379809767647062	-0.4759036401568625
O	6.5474159409411765	-4.121981676764706	3.4869905478431376
O	2.9068268709411766	-2.307946346764706	-0.7978889721568625
O	4.609884260941176	-2.035743916764706	-1.1193595651568624
O	4.743460970941176	-0.8397393467647061	-1.8899515321568625
O	4.894843590941177	0.2909251127352938	-0.9396253081568624
O	5.433602470941176	-2.288721116764706	-0.02577930515686247
O	4.832881350941176	-1.9115086967647064	1.2028287178431376
O	5.708314530941176	-2.2194310067647063	2.1942690578431376
O	5.933787040941176	-3.587660256764706	2.3792363378431376
O	6.131206740941177	-4.129929606764707	1.1498998378431375
O	5.808568070941177	-3.620956886764706	-0.06436076415686248
O	7.789426400941176	-4.758723946764706	3.3212672178431375
O	1.1748704299411767	4.207705153235294	-1.6295606021568625
O	12.797781160941177	9.309471413235293	-1.0643470901568626
O	5.134650530941176	5.512703713235293	13.093717477843137
O	5.201443450941176	8.437140113235293	10.645958877843139
O	-2.320310519058823	8.341267323235293	5.438893427843137
O	-3.0453683590588234	10.200480153235294	3.1917187478431375
O	11.610641260941177	0.046199733235293805	-7.676429862156863
O	13.120285960941176	3.4838379632352936	-7.527220442156863
O	10.132051370941177	5.2066758732352945	-5.998850902156863
O	7.384989940941177	4.331762703235293	-8.482365772156863
O	6.631719510941176	1.6120490532352938	-11.047136122156862
O	4.624058090941176	-1.4333575867647061	-10.009207222156862
O	2.5495740309411765	-3.638187136764706	-12.313591022156862
O	2.410655560941177	-7.017251166764707	-10.403759422156861
O	-1.1457210490588232	-7.9607134167647065	-5.661048642156863
O	0.03534498594117666	-4.8298904967647065	-7.601113902156863
O	-0.9677166490588234	-1.2944540567647063	-8.773130732156861
O	1.2880462009411766	1.8039909032352939	-8.932077062156862
O	0.9185264229411767	5.572294883235294	-9.172834162156862
O	-3.5386961290588235	5.328976143235295	-8.779729532156862
O	-3.345614639058823	2.692523493235294	-5.9826257721568625
O	-4.620771109058824	-0.8553342267647062	-6.459228042156863
O	-3.070299789058823	-2.8301366267647063	-3.5828672021568626
O	-4.9651967690588235	-5.8458509167647055	-2.0946192821568625
O	-4.129880849058824	-8.147002446764706	0.9190909178431377
O	-6.551216119058823	-10.059733786764706	3.1654090078431376
O	1.2787734209411767	-10.096103686764707	1.8519357778431376
O	4.048975780941176	-10.072267686764707	4.466073707843137
O	-1.1330260790588234	-9.055550766764707	6.039469997843137
O	0.8781683209411766	-5.800728186764706	6.580863207843137
O	1.1784088789411766	-6.686429506764707	10.266493177843138
O	-2.6169693390588233	-6.593540456764707	10.840094177843138
O	-4.468445689058823	-6.621420136764707	6.4657522078431375
O	-4.739519779058824	-4.454340596764705	3.3633345678431374
O	-7.373445919058824	-2.797375766764706	1.2172390978431376
O	-6.151328299058823	-0.05609588476470617	-1.1760229861568625
O	-8.499037539058822	1.384300363235294	-3.8733301521568624
O	-7.304992499058824	4.958262963235294	-4.6980916521568625
O	-1.6505817590588232	3.3190929732352936	6.481865927843137
O	0.8991550079411768	2.6197332532352937	3.7267223978431376
O	1.8797848809411768	6.080198543235294	2.2831261978431376
O	5.483627020941176	5.147344653235294	1.9325548478431376
O	7.893206950941177	3.7052557932352936	4.540701017843137
O	7.3953022209411765	1.5908809032352937	6.526051707843137
O	4.096448340941176	3.402691263235294	6.867032597843137
O	2.407460660941177	0.5424924452352938	8.716612927843139
O	-1.1172039090588233	1.138590415235294	9.791281237843139
O	-2.7369626490588232	-1.7447702067647062	8.098803177843138
O	-4.895899479058824	-0.2274994477647062	5.396492447843137
O	-8.576369369058822	3.014207623235294	2.2291209978431374
O	-11.229722539058823	3.007849183235294	-0.46574357015686246
O	-11.084783139058823	6.327760353235293	-2.3610393121568625
