20

O	-4.020092569057747	2.951210056984724	15.563973886754917
O	-5.316288378317569	2.804810188366476	15.94752901203196
O	-6.089915328036735	3.8351913895041596	15.436906828808462
O	-5.535147521627101	5.021781274502023	14.956910276002958
O	-4.19153981130448	5.31540051599587	14.923758120647136
O	-3.5460337816105048	4.077805470374477	14.947209895283134
O	-3.6009629376847125	6.495446023363239	14.212683867796825
O	-2.3279435478640673	6.318076896846229	13.717128627551464
O	-1.5745856623762764	8.525640504914282	14.080660445754583
O	-2.8326698708580897	8.839354278701741	14.503969005362865
O	-3.719061838764709	7.809268000367594	14.659464993652389
O	-0.6289236513294538	9.531212025391937	13.966804163918704
O	-0.9754242259143107	10.87143745210932	13.863447310784762
O	-2.3460616682938067	11.073102695940062	13.746394710892103
O	-3.139653204001652	10.167802779108754	14.381152739531833
O	-1.4158177204108666	7.310146131613885	13.573644841540007
O	-5.325930579099237	-0.10552424095077129	16.03274300980781
O	-7.395177138934935	1.2536240982198028	16.750998459034175
O	-5.680450169636476	1.1932665293149158	18.186203308739383
O	-5.919697173520359	1.3776905445585848	16.733984904202867
