19

O	-6.3140722016019915	3.422586947157745	15.810815000681124
O	-5.366781218414578	2.0183409304093947	16.117484957947603
O	-4.285274352269221	2.1768036110075446	15.349279078981365
O	-4.15741966043465	3.38419582139273	14.719627003001643
O	-3.403270406410929	3.5068051913421314	13.45848970311235
O	-4.214587846467271	4.364756352592057	12.52848052382819
O	-4.112898064282177	5.807513096309844	12.906275121102507
O	-5.438770108991727	5.754999224521379	14.070561662192457
O	-5.136476073119885	4.312020362416831	14.988906340431186
O	-6.045718345346506	0.6779331250279714	16.96781970073117
O	-5.727730346045166	0.8483811972040041	18.398107396562388
O	-7.508422153960237	0.7473143824194262	17.005402810597076
O	-5.44032250609082	-0.7006364233098812	16.222578290378642
O	-2.2355039683744042	4.372689346106089	13.516955433647485
O	-4.246393558053459	6.810617118886993	11.81553400226844
O	-6.703465839504798	5.7186498732761155	13.294983770981293
O	-5.403386209014994	6.898895619048364	14.919558554273472
O	-2.419557700137233	5.245368649836076	14.39400772455561
O	-1.8550591389609288	6.643544405020851	14.461097524900199
