79

O	4.529509749648147	-2.4307266705740744	4.425329738574074
O	3.966062959648148	-1.2978180005740745	3.8289209585740744
O	4.261859419648148	0.02514252942592554	4.182668438574074
O	5.502205129648147	-0.022605018574074487	4.845307418574074
O	6.082665929648147	-1.1069775105740745	5.541445588574074
O	5.418441309648148	-2.2803109205740744	5.449195058574074
O	3.262175559648148	0.9673867824259256	4.723473798574075
O	1.982781199648148	0.8284372964259256	4.482121728574074
O	1.471573939648148	0.4010607354259255	5.6836164485740746
O	2.246596099648148	0.1351898764259255	6.752923458574074
O	3.303791739648148	0.9946033294259256	6.231057278574074
O	4.296155439648148	1.6464979644259254	6.676403838574074
O	1.600363549648148	1.4048180994259254	3.202944568574074
O	1.309124419648148	0.7945591200259255	2.0537138385740743
O	0.5522425796481479	1.4137547904259256	1.0642972915740745
O	0.17120355164814793	2.7045411894259255	1.0484495075740743
O	0.605631559648148	3.3947579594259256	2.1331926785740745
O	1.3342740696481479	2.7821234294259254	3.1463697885740745
O	-0.6385513359518521	3.2568521794259255	-0.36615912142592555
O	-2.062586760351852	2.8642257794259254	-0.4048398714259257
O	-0.14321516935185208	2.5052504694259254	-1.541754691425926
O	-0.5214806113518521	4.9243324494259255	-0.6964865014259257
O	2.885410849648148	-0.2256771565740745	8.005777708574074
O	2.458302759648148	-1.4654969305740746	6.633579718574074
O	3.7546689896481484	-3.551692410574075	4.579344988574075
O	1.572252209648148	15.334674499425924	6.369951638574074
O	-10.723703790351852	8.738300529425926	7.390948428574074
O	-9.513160890351852	5.859813419425926	-1.200681361425926
O	-8.70453954035185	7.479090499425926	-3.5903369114259256
O	10.326585609648149	8.153651789425926	4.809978108574074
O	9.351230309648148	11.760720199425926	4.908222588574074
O	6.151179729648147	11.387463099425926	2.9495997485740744
O	7.415006679648148	9.738194049425925	-0.24068052142592566
O	10.279749209648148	7.471691789425925	-1.289827721425926
O	9.856810309648148	3.7213207294259254	-1.2484064614259256
O	11.793655909648148	1.2408311094259257	-3.398187761425926
O	11.626841409648149	-2.0750331205740746	-1.4504698514259258
O	11.804839509648149	-5.635700240574074	-2.526878821425926
O	9.167333809648149	-10.447304300574075	-0.01970015842592565
O	5.226681249648148	-7.213308930574074	-4.209807501425925
O	6.677257139648147	-5.511961450574075	-1.1177819814259258
O	7.428250519648148	-1.8836085105740743	-2.3354642814259257
O	6.4862789096481475	0.8567284614259255	-4.837938691425926
O	6.2913016596481475	4.630509399425925	-4.2907663214259255
O	4.812641969648148	7.691421449425926	-6.028238071425926
O	2.727289939648148	5.179199139425926	-9.089637251425925
O	1.6144176396481482	2.5693335194259257	-6.469171701425926
O	2.945874599648148	-1.0073882105740743	-6.480612091425925
O	2.086945259648148	-2.4511333805740745	-3.057468101425926
O	1.3231698496481479	-6.189592240574074	-2.6642005114259257
O	0.11303522064814786	-8.369202110574076	0.2955280135740743
O	-1.953090340351852	-11.543189500574075	0.32102796357407437
O	0.31024356464814784	-14.529572300574076	1.0923954445740744
O	2.354950769648148	-7.674579190574075	5.651575158574074
O	1.431470739648148	-6.581357200574075	9.172776938574074
O	-2.450165440351852	-8.552113670574075	5.762030508574075
O	-3.370408350351852	-4.878268820574075	6.5457976985740745
O	-5.899112090351853	-6.115448670574075	9.100883158574074
O	-7.979285900351853	-7.999777520574074	6.470088098574074
O	-5.155924460351852	-8.166271190574076	2.6486912085740744
O	-3.587540660351852	-5.885922350574074	0.05081561757407438
O	-3.618274800351852	-5.373989750574074	-3.6993575414259254
O	-2.281688120351852	-1.9890871205740743	-4.947812311425926
O	-1.6824957573518522	-1.4614666805740746	-8.726222121425925
O	-2.006687100351852	2.3074347694259254	-9.473551961425924
O	-8.117131790351852	1.7202933494259256	1.5424329895740745
O	-4.552108200351852	2.9198796394259254	2.1142351385740743
O	-4.280579610351852	6.588374119425925	1.0451255365740744
O	-2.1630774303518523	7.648055179425926	3.912532418574074
O	-2.650845530351852	7.077417619425926	7.669933088574075
O	-3.550388650351852	4.627553419425926	9.053546548574076
O	-6.054284690351852	4.589707689425925	6.122732748574074
O	-6.964833930351852	0.9502842044259255	6.800206218574075
O	-9.662904100351852	-0.46916974057407446	4.526667388574075
O	-7.658104870351853	-3.396956730574075	3.3361939285740743
O	-7.017976380351852	-2.7165264105740743	-0.3153779214259257
O	-7.328912040351852	-1.2193363805740745	-5.961965171425926
O	-6.233737480351852	-2.0669974605740746	-9.477912561425924
O	-6.014331780351853	1.1623195134259254	-11.515460661425925
