73

O	-2.4448350328265303	0.7583980519714287	2.058272839714286
O	-2.4964453128265305	2.2199613209714286	2.0428477997142864
O	-1.5588436098265304	1.7695400879714287	0.20330217571428633
O	-1.9210768658265303	0.4359613329714287	0.7273330797142863
O	-1.8764488698265303	-2.720380297028571	-0.20954455528571364
O	-1.2756945848265304	2.5220789929714287	1.4269936637142864
O	-0.12840464982653033	-1.3344272470285714	-1.7664884902857139
O	-2.5214621728265305	-0.5906793270285713	-1.5632985102857135
O	0.9149144271734697	1.4337474103714287	0.6303932947142863
O	1.3397456271734698	3.3578525229714287	1.7282971597142862
O	-0.9454844358265304	-0.42227730702857125	0.5087003282142863
O	-1.5495199068265304	-1.410142777028571	-0.8652895402857137
O	0.38901340717346966	2.113216518971429	1.7142001697142863
O	0.005487177173469693	1.6728605839714288	3.2215770697142867
O	-0.7835074998265303	1.2326378129714288	4.343316739714286
O	-1.0922982301265303	-0.09546302702857123	4.278486019714286
O	-1.6147916768265302	2.082802823971429	4.951123319714286
O	-2.1238456428265304	1.6679997909714288	6.1656408097142865
O	-1.1208041186265303	3.3994524629714284	4.634153969714286
O	-0.9120542218265304	4.254358322971429	5.781155679714287
O	-0.7137002068265303	3.818309112971429	3.4308561197142864
O	-0.7189667608265304	2.763709702971429	2.7165225597142864
O	-0.5753601858265304	5.284413892971429	3.4879245897142863
O	-0.07929977382653042	5.782226852971428	4.6715351897142865
O	-10.96065211282653	-4.969466767028571	7.993698889714286
O	-14.020960112826529	-5.8458553470285715	1.2403999567142863
O	-14.36510741282653	1.4029186333714287	-3.924006280285713
O	-6.33362142282653	-5.500662007028572	-7.600274050285714
O	1.9261253571734698	-4.562965057028571	12.981663009714287
O	-0.7842339368265304	-2.0986466670285715	12.032067909714286
O	-3.5685505628265304	-4.553646407028571	12.479276409714286
O	-4.07411851282653	-5.203218747028571	8.790377729714287
O	-0.5590324178265305	-6.410095777028571	7.796030689714287
O	3.0626154071734697	-5.749202127028571	8.921310469714287
O	5.02336211717347	-2.860000717028571	7.366571069714286
O	8.81947935717347	-2.659323897028571	7.157532939714287
O	9.49471048717347	1.1469517789714287	6.8313035697142865
O	8.66883701717347	4.185840462971429	1.7204881697142862
O	7.62068652717347	0.7031685099714288	3.0094659197142866
O	6.899412637173469	-2.926787217028571	2.0241522797142864
O	4.25615645717347	-5.352469387028571	3.3501398597142864
O	2.5015039371734695	-8.62372067702857	2.3503511597142865
O	-0.9934628032265304	-10.04164217702857	1.7410789097142862
O	4.576062047173469	-8.66474017702857	-1.5654778902857138
O	4.02097177717347	-4.875536667028571	-2.1561534802857136
O	6.98861929717347	-2.4965395170285714	-2.2822716402857135
O	5.577002367173469	0.9665715789714288	-2.0317728402857136
O	7.13460292717347	3.9859033229714287	-3.7049407402857133
O	6.086169377173469	7.673884072971428	-4.109151660285714
O	6.926378657173469	10.09308609297143	-6.957196390285714
O	3.9517546371734693	10.70946866297143	0.29203747971428634
O	0.8157473371734696	12.650402622971429	1.3198792527142864
O	1.7386192471734696	11.828205722971429	-4.011966700285713
O	-1.4739938248265303	9.83405579297143	-3.1389926002857136
O	-3.5698910628265303	12.66874312297143	-4.510837430285713
O	1.7533977971734696	9.56379731297143	-7.460520970285714
O	2.6879272771734697	6.015528672971429	-6.513701910285714
O	4.4803679671734695	3.0546568329714288	-8.013640030285714
O	3.8595250471734697	-0.32786927702857116	-6.303854780285714
O	6.00609186717347	-3.381872127028571	-7.305255830285714
O	3.9354067871734695	-6.566989807028571	-6.6308076002857135
O	-5.31285166282653	2.044578039971429	-6.805732330285713
O	-4.37342969282653	1.3526188909714287	-3.1952925602857136
O	-5.85192722282653	-2.014395327028571	-2.1750081302857134
O	-6.966078642826531	-0.9517578170285714	1.1741058767142862
O	-9.013886452826531	2.1111300729714286	2.2378975597142863
O	-8.84763848282653	4.873624532971429	1.2121039067142862
O	-8.50977076282653	3.062431942971429	-2.1326124802857134
O	-7.23894567282653	6.174548832971428	-3.932850430285714
O	-0.9785579929265303	3.766229532971429	-8.426571860285714
O	3.4408314471734696	-6.8042746470285715	-11.217394990285714
O	-5.452539162826531	-8.61243937702857	13.643708209714287
O	-9.00311523282653	-7.814227327028571	-1.5593556202857137
