72

O	-2.035251380374576	0.7338511197457627	2.3418960804237288
O	-4.427813330374575	1.6842307077457628	1.2286509434237287
O	-3.551126790374576	-0.8085189522542373	0.7630319124237288
O	-3.142258050374576	0.5941988957457627	1.0137619984237287
O	0.01824813262542424	1.1732289697457627	3.872874320423729
O	-1.2443115833745757	1.3904825417457627	4.319271950423729
O	-2.3563522403745756	0.7821371747457626	-0.23353122357627124
O	-0.30644236037457573	0.8596839607457627	2.2134359704237285
O	2.3899868996254243	1.7283383477457628	3.656988050423729
O	-2.178682840374576	0.7568265007457626	3.665182140423729
O	2.744292229625424	0.5772747197457627	3.3158876504237287
O	3.484703779625424	2.7230257877457626	3.8810749204237287
O	1.1923581896254243	1.8024753277457628	4.406898000423729
O	-9.583492290374576	7.788289777745763	10.836025380423727
O	-12.411287900374576	8.515616387745762	8.493112170423728
O	-10.026795610374576	-5.031381852254237	0.5251554904237288
O	-11.262187800374576	-3.0428430822542376	-1.3496567295762711
O	0.8551126996254242	11.113593157745763	7.821583830423728
O	-2.5470675903745756	12.399274957745764	8.779566370423728
O	-4.480624500374575	9.946953087745763	6.656013370423729
O	-3.0857592403745757	10.678858357745764	3.170649530423729
O	0.19835207962542423	11.962988157745762	1.6993052404237288
O	2.946247939625424	9.489507677745763	0.8258171264237288
O	5.697319389625425	10.061493747745763	-1.7544972595762711
O	8.518084049625424	7.680562877745763	-0.5335139305762712
O	11.257891699625423	6.107773557745763	-2.5581930195762714
O	14.642646299625424	4.633175937745763	-1.8337221995762714
O	13.981253899625424	0.8385129597457627	-1.5314622295762712
O	8.594645769625423	-6.375024312254237	-5.716435939576272
O	10.306647799625424	-3.0925664622542377	-4.8074592195762715
O	8.401241969625424	0.22042685474576268	-4.909157259576271
O	8.395182369625424	1.7495271177457627	-1.4068975495762712
O	5.775290589625425	4.584893467745763	-1.6385440995762712
O	2.657114269625424	5.822000007745763	-3.5265613195762713
O	-0.36146626337457577	7.738109397745763	-2.155384899576271
O	-3.994212380374576	8.458392427745762	-3.0376651495762714
O	-7.525448030374576	8.076486307745762	-1.7076537595762713
O	-7.5445968503745755	5.994501677745763	-6.425451209576271
O	-3.739754460374576	5.947123997745763	-6.735208469576271
O	-1.8214933703745757	3.1376378577457626	-4.953863519576271
O	1.7663898696254243	2.2142366877457627	-5.784439969576272
O	2.976830069625424	0.07851053374576267	-2.8514458895762713
O	5.584217539625425	-2.7027192522542376	-3.478834689576271
O	7.1068479796254245	-5.371373392254237	-1.0971635795762713
O	8.458775179625423	-8.825321772254236	-1.9614347595762713
O	8.713952489625424	-4.016941192254237	4.3607356004237285
O	6.729265229625424	-8.524437682254238	4.006151690423729
O	3.3988643696254237	-7.379922982254237	5.612531250423729
O	3.3939757396254238	-10.560220442254238	7.687971570423729
O	3.2308260596254237	-12.838458142254238	4.593529870423729
O	4.312438729625424	-9.978636342254237	0.9587827434237288
O	2.9408163896254242	-7.001537612254237	-0.9586172295762712
O	1.875930949625424	-6.067849962254237	-4.467930609576271
O	-0.25902312037457575	-2.8704307222542376	-4.777672089576272
O	-0.9855464863745758	-1.3918701122542372	-8.258042209576272
O	-4.293951980374576	0.5779343137457627	-8.053433769576271
O	-5.068070510374575	3.2100209877457626	-10.735153619576272
O	-5.424584750374575	-6.689333152254237	2.197241480423729
O	-4.194211250374575	-3.2480536622542373	3.213528210423729
O	-7.177474800374576	-0.8079658422542373	3.1352666004237286
O	-6.097192400374575	0.9820302817457627	6.251294320423729
O	-5.3710562603745755	-0.4470663742542373	9.728610000423728
O	-3.7474835303745757	-2.8101854822542376	10.429779980423728
O	-5.676398270374575	-4.287554872254237	7.443353380423729
O	-3.288454260374576	-7.238097432254237	7.135866430423729
O	-4.097764390374576	-9.742619142254236	4.438002080423729
O	-0.8506510002745757	-9.609842942254238	2.608011580423729
O	-1.6483151493745758	-7.998853802254237	-0.7124623625762713
O	-3.993025430374576	-6.343717362254237	-5.790880049576272
O	-3.300741000374576	-5.286974222254237	-9.356873519576272
O	-6.0911202403745754	-2.9385962422542375	-10.507741619576272
O	-12.766910300374576	2.5119632877457625	2.7655684304237287
