74

O	2.317250990394915	-2.224502353050848	-3.2015903662711866
O	3.7108283203949153	-4.674245363050848	-2.2683578262711865
O	2.538527110394915	-2.453635003050848	-1.5068955662711867
O	3.287797140394915	-3.517493543050848	-1.0971622452711867
O	3.865787330394915	-3.550516663050848	0.14070099972881342
O	3.915850560394915	-2.293904983050848	0.7457917967288133
O	3.079608640394915	-1.2715181830508482	0.38986184972881344
O	2.5169185003949153	-0.643783744050848	1.4680598037288133
O	3.169063950394915	0.523940129949152	1.8977941937288132
O	2.243259920394915	1.5626509269491518	1.4004908237288134
O	1.177631160394915	2.146666366949152	1.9244153037288134
O	0.9129812503949151	3.175126936949152	1.1133031137288134
O	1.0530681403949151	2.643776216949152	-0.10305915327118659
O	1.9984333503949152	1.7153646169491519	0.07477013672881341
O	2.2875012403949153	-1.361759093050848	-0.7204803032711866
O	12.274840560394916	2.241034646949152	8.995589273728813
O	10.307542460394915	4.460011206949152	11.280073623728812
O	1.7810632203949153	10.232211086949153	-0.8239527742711866
O	0.1161035583949151	10.414458286949152	1.6624232237288135
O	8.127453090394916	-8.086302043050848	6.647211593728814
O	9.517635270394916	-5.961792843050849	9.421031493728814
O	7.578817600394915	-2.845342153050848	8.533963983728812
O	3.9733794403949148	-4.098118683050848	8.713271123728813
O	2.160412550394915	-7.419037803050848	8.203960603728813
O	0.896310280394915	-8.380561423050848	4.760530123728814
O	-1.9930831196050849	-10.762973413050847	4.054021293728814
O	-1.217803676605085	-12.036159313050847	0.47251831472881334
O	-3.577096049605085	-13.344965513050848	-2.1244670362711866
O	-3.310269679605085	-15.506611413050848	-5.196730236271186
O	-3.043823339605085	-12.986336113050848	-8.116573616271186
O	-6.693912119605085	-4.249665303050849	-11.096383576271187
O	-5.920204309605085	-7.5055326630508485	-9.277653536271186
O	-5.717646649605085	-7.613601513050848	-5.458777686271186
O	-2.258428229605085	-8.767623063050847	-4.457536916271186
O	-2.024767889605085	-7.990648583050848	-0.6690777302711866
O	-3.4768779596050847	-5.815302193050848	2.1649294537288135
O	-1.654436919605085	-4.344813113050848	5.199166953728814
O	-2.138080599605085	-1.6148701330508481	7.818805603728813
O	-0.43207085490508496	1.4737713569491517	9.248129223728814
O	-1.1818132636050849	8.139838296949153	6.742876053728814
O	-3.871657479605085	10.135998156949153	4.919764503728814
O	-5.196170639605085	2.9736667769491523	7.882873953728814
O	-5.879531809605085	-0.1837741660508481	5.831431793728814
O	-4.259452199605085	-0.4364636810508481	2.2786162237288132
O	-5.674877059605085	-2.9514919730508478	-0.2390435612711866
O	-3.0255896896050847	-3.151230443050848	-2.9577606862711865
O	-3.986138179605085	-3.844257533050848	-6.6111039762711865
O	-1.9138037096050848	-3.9362892530508478	-9.894018746271188
O	5.155110640394915	-0.31140867705084807	-10.288268276271188
O	0.33435936439491504	0.6987963039491519	-12.553329476271188
O	-1.3418449476050849	0.46180063694915197	-9.166335096271187
O	-4.608598209605085	1.1490213749491518	-7.450979026271186
O	-4.595809949605085	1.3151638169491517	-3.6159677162711867
O	-7.931572329605085	1.4622409869491517	-1.6818989462711866
O	-7.277645669605085	3.207499146949152	1.6918056237288135
O	-9.783771309605084	2.702484296949152	4.547663223728814
O	2.847700730394915	7.052257246949152	-4.750428926271186
O	3.782238660394915	4.106551716949152	-2.5470508462711865
O	4.130702960394915	5.403537386949152	1.0644158037288134
O	7.140169180394915	3.266443706949152	1.7812570037288133
O	10.469143360394915	3.084392926949152	-0.10614325927118659
O	10.891603860394914	2.868843886949152	-3.0168501262711866
O	8.136521740394915	5.550853056949151	-3.0244227362711866
O	7.4719494603949155	5.088924696949151	-6.744294176271186
O	4.834894600394915	7.341585356949151	-8.217989576271187
O	2.635569340394915	4.694769666949152	-9.644569716271187
O	-0.516591260605085	4.812152596949152	-7.582159776271186
O	-5.2322775996050845	6.388327986949152	-4.541079066271186
O	-8.825095249605084	5.558144816949151	-3.7057554362711866
O	-9.584477679605085	6.784514796949152	-0.1671095172711866
O	4.720212310394915	2.809047486949152	10.914974923728813
O	3.025557910394915	5.787874396949151	9.132539943728814
O	4.514081790394915	8.442094806949152	6.841306943728814
O	1.3218456903949152	14.036860086949153	4.922559893728814
