18

O	-7.60274283323418	8.481916262541697	10.331087786950759
O	-6.756121132759771	7.633300621275865	11.20035560335745
O	-4.885548609909101	6.329071439360102	13.07667575680027
O	-8.90543831556426	10.411843686705911	9.463701480456042
O	-6.292815565829942	13.170100924134966	8.080608268761907
O	-6.539253838584246	11.929941656907857	7.544236949551502
O	-5.310775661500969	13.221902378899681	9.058674599622947
O	-5.90174024050706	10.809792410233705	8.069680787962628
O	-4.513932478039024	12.107397689323605	9.312868453695511
O	-4.324186712680153	9.73207512305939	9.698871516112165
O	-8.028419414980362	9.777728799341121	10.465900354910161
O	-5.200458332324889	10.874601258523503	9.2820759706692
O	-5.568303786390716	7.855230126104657	10.252377610243006
O	-4.67197244173159	6.968006709069066	10.41188113208313
O	-5.07040089693258	9.12267179416965	10.736300229990785
O	-7.481905419551644	10.384862726243126	11.436253363185925
O	-4.75095700754876	7.5886949132730654	12.446860278671817
O	-6.050005528197913	8.005201185998317	12.433448378824153
