16

O	-6.521533180009325	6.260818320026454	14.427743299481033
O	-3.9971679623185175	5.611731980270749	13.937558119911195
O	-3.62524018155258	3.293339687946138	14.56786060463173
O	-7.455334152650683	1.1210610742647562	16.703031476945885
O	-5.983239054630343	0.9868305088449882	16.757583278936494
O	-4.860950684908641	6.683634977042205	14.12970968775176
O	-3.9509564045619907	2.322060422095965	15.375515693966062
O	-5.855968494051801	1.0297708536951666	18.22903428650069
O	-5.7914517448502	3.726339510844043	15.276033621282108
O	-4.427875179828203	7.8886639718778895	13.651056231880533
O	-5.416671968656582	-0.5368706022990137	16.227515787525324
O	-3.071481638566309	8.191275394443409	13.674965300435085
O	-2.257048268787311	7.09804465477297	13.40608412682937
O	-2.772480755064719	5.823603752633152	13.368377603856056
O	-4.308953443673863	4.416340841805082	14.730885020326326
O	-5.191202084372123	2.213585876387892	15.845507838550713
