78

O	-0.4381726259435485	-1.8174144112258068	0.15348801483870944
O	-2.0184546879435485	0.14340678137419322	-2.8861345991612906
O	-2.6063780179435483	2.8029999187741934	-2.44607416916129
O	-2.7177145179435485	1.2083210187741933	-0.6231638081612906
O	-3.0844330079435487	1.2566837887741933	-2.1211374691612903
O	-0.8198348248435485	0.6794316097741933	-2.5293810591612904
O	0.7155503420564515	2.564424698774193	-0.7642971001612906
O	-4.2381318179435485	0.41451195777419325	-2.1323396591612904
O	1.0646531120564515	0.8941435957741932	-0.8260208461612906
O	-0.12623455694354846	-0.06828729822580679	-1.6538305291612907
O	-3.6348981679435486	-1.4849808612258069	-3.4024087891612904
O	2.3119498320564515	0.7486091397741932	-1.5996037391612905
O	-0.6006800719435486	-1.3209418412258067	-1.4453956991612906
O	1.2721071920564517	0.17318085162419322	0.4463696278387094
O	-1.4877510379435486	-2.0233487412258064	-2.2075468991612905
O	-2.2658266279435484	-1.2237893812258067	-3.0527273491612905
O	-5.308635137943549	9.458112928774193	-10.641396549161291
O	-3.0876921179435484	12.280923348774193	-9.57925229916129
O	2.0001679520564517	9.430295368774193	-12.14756204916129
O	5.616614782056452	1.4944958587741932	-14.06168834916129
O	8.460510952056453	2.179546658774193	-5.36641036916129
O	8.730698702056452	4.660027738774193	-3.6960652691612905
O	-12.055702287943548	4.727793788774193	-2.8092958291612904
O	-11.380611087943548	7.846360238774193	-4.746725759161291
O	-7.639086337943548	7.792069738774193	-4.340310939161291
O	-7.281122307943548	7.727982028774193	-0.5390106061612905
O	-9.344029747943548	6.568412718774193	2.5172552408387094
O	-8.848557667943549	2.9873918887741935	3.76387029083871
O	-9.509279327943547	1.6742016487741933	7.27694355083871
O	-10.129974027943549	-2.126399351225807	6.650487190838709
O	-9.669801217943547	-4.954365431225807	9.06872380083871
O	-10.984023287943549	-8.466267851225806	9.35353473083871
O	-8.214739627943548	-10.653287451225808	7.79068335083871
O	1.6815456720564517	-11.319956251225808	7.2903938708387095
O	-3.0135448079435485	-6.708546091225807	8.30812098083871
O	-5.697152337943548	-6.050980651225807	5.65182286083871
O	-5.994299347943549	-2.208148251225807	5.56483896083871
O	-4.1272112179435485	1.077830503774193	6.23270542083871
O	-4.314621817943548	4.383482598774193	4.35329861083871
O	-2.3265972279435485	7.581371298774193	3.8412022908387096
O	-0.6891910519435485	9.690782478774192	1.1561731508387094
O	6.036761252056451	8.980650278774194	-1.1139394691612905
O	9.369956812056452	7.806159198774193	0.34403152183870944
O	2.9496348720564516	8.849856478774193	4.730073330838709
O	0.9606919720564515	6.095717418774193	6.47400421083871
O	0.8657855720564516	2.590066588774193	4.79237959083871
O	-0.14604440694354848	-0.46936796022580674	6.86870033083871
O	-0.8061592424435484	-3.1983099912258064	4.339561150838709
O	-0.1212409539435485	-6.914237981225807	5.1528912108387095
O	-0.34615239094354844	-10.111455851225807	2.94394588083871
O	1.6098662620564514	-13.352587651225807	3.2884672808387094
O	-4.774054437943549	-10.922760251225807	-0.8029266831612905
O	-0.10089803494354843	-9.639891051225806	-4.98670571916129
O	4.126001222056452	-13.123624851225808	-5.65855876916129
O	3.325407972056451	-11.513498151225807	-1.2681859491612906
O	3.0548597720564517	-8.280016691225807	0.6784175488387094
O	4.715327202056452	-6.454419421225807	3.5507822108387095
O	3.927120872056452	-2.6765848412258064	3.83305611083871
O	5.015843682056451	-0.7186361492258068	6.95908699083871
O	5.490901962056451	2.9688070487741935	5.975990830838709
O	5.440257742056451	5.653298548774193	8.72410296083871
O	6.132811372056452	-2.4354122712258066	-5.431646079161291
O	2.5606859820564516	-1.0405066712258069	-4.838187749161291
O	2.7523333420564513	2.753837398774193	-5.307333649161291
O	-0.5475685389435485	2.8439432887741933	-7.113265859161291
O	-1.6150493349435484	0.9578227367741933	-10.28798634916129
O	-1.3238448639435485	-1.9194199612258067	-10.82575284916129
O	2.2104690820564517	-1.2048943612258067	-9.46533155916129
O	2.9022346120564517	-4.914216581225807	-9.00531476916129
O	6.268314202056452	-5.732694911225807	-7.6325156791612905
O	5.1769063220564515	-7.736737711225807	-4.70064995916129
O	6.153539452056451	-5.676201501225807	-1.7015368091612906
O	8.860121022056452	-2.288759431225807	2.2309884308387096
O	9.481472512056452	-1.6439262012258067	5.921210520838709
O	10.050859112056452	2.1058677887741934	6.446522900838709
O	-2.084925197943549	11.563443948774193	-3.8825404491612905
O	1.6506574120564514	10.628999348774194	-3.73596982916129
O	3.9034497420564516	9.096560868774192	-6.38820111916129
