27

O	-4.871240628099944	3.6007310286878575	15.128619532718302
O	-4.802028669138215	-0.006570730880574249	15.662156189297416
O	-6.642951985943181	1.6061831247249876	15.158502318934756
O	-5.744393564730588	1.4121838452130615	16.45993161337583
O	-4.873808753710502	3.0351842578554624	13.886793456344886
O	-3.0453744915089955	11.437625405396057	10.849138838377645
O	-6.2996934006463725	0.9926126603825858	17.487416271846104
O	-4.20146174289492	3.700494799893997	12.855779104797241
O	-2.8696584082348857	6.1002298677545905	11.673348417831242
O	-4.814722212629043	2.74683745541416	16.2576873147514
O	-3.251945755140685	4.60259173527014	13.173887824108265
O	-1.6873971887066732	8.77538415093522	9.791498573107429
O	-3.528677691790168	5.2985699431479585	14.381891312913357
O	-0.7036707358441516	8.670726593422424	10.65041926781544
O	-4.650456752417645	4.957215706948288	15.135099728697405
O	-1.948790407452698	6.841523462777793	10.847309491110881
O	-2.1169455765108403	5.1677170133274535	12.497981991059135
O	-3.7037323879987953	10.71875844695038	11.500679899766535
O	-3.8915080346486954	9.48216492066054	12.194296013216618
O	-3.1043048989911624	9.077926083152947	13.28081929363984
O	-2.8087945341841927	7.743650070787	13.33110326777761
O	-3.6301443593900165	6.895124411740613	12.654949352043174
O	-4.796109297547382	7.302763818989169	12.156679462800332
O	-4.989144975232677	8.654480818600481	12.05657254223184
O	-2.4079262315991468	7.624292132240798	9.832134293156543
O	-1.112874036620786	7.696471187363754	11.498779900439263
O	-5.354600011938436	5.960304638562961	16.549514842689128
