72

O	-0.35550985645762706	3.0013049516440677	-1.0366011845237288
O	-2.741471643457627	3.1285497816440677	-2.447880486523729
O	-2.025597473457627	1.0288437586440677	-0.9352549685237289
O	-1.570820050457627	2.087366201644068	-1.857093606523729
O	1.5531480465423728	3.7555740816440677	0.49907553847627106
O	1.0612413665423728	4.587751191644068	-0.41475508652372894
O	-0.9021071914576271	1.1934650946440677	-2.805706446523729
O	0.551662816542373	2.380351021644068	0.30330248147627104
O	2.805538736542373	2.982788071644068	2.446684093476271
O	0.408286396542373	4.033611411644068	-1.4007925965237291
O	2.479980046542373	1.8261324816440676	2.1340593834762713
O	3.2278986265423733	3.2485550616440677	3.8267068334762713
O	2.227533976542373	4.022478521644068	1.703949593476271
O	-3.394014703457627	15.697890291644068	-4.301968396523729
O	-6.490540183457627	14.933813091644067	-6.2643470765237295
O	-3.033361303457627	12.237949791644068	-10.890363416523728
O	2.226717826542373	1.1832207136440678	-12.306397816523729
O	-0.985592539457627	0.5980198716440677	-10.406562216523728
O	-3.985941153457627	0.4691041136440677	-10.426702016523729
O	-5.169963513457627	12.222964191644069	1.434176703476271
O	-7.152122683457627	9.477625671644068	3.209896983476271
O	-7.501671373457627	8.162713861644068	6.7818514334762705
O	-5.122947153457627	5.438241911644068	7.977565903476271
O	-5.887614313457627	2.9990149016440677	10.810367983476272
O	-2.354430933457627	1.9519295616440677	12.027886883476272
O	-1.3417840914576271	-1.2229083583559324	13.763702983476271
O	1.5310799765423728	-2.3130329683559325	15.93600088347627
O	4.013769526542373	-3.964520988355932	13.47661118347627
O	4.145522216542373	-9.844131208355932	5.48298629347627
O	0.05251195254237295	-5.579067628355933	8.517066533476271
O	1.0959960065423728	-1.9443159883559322	9.065598853476272
O	-2.085335113457627	0.07571724764406762	8.192624633476271
O	-5.387187783457627	0.022001110644067623	6.213145453476271
O	-7.129902283457627	2.9335986916440677	4.4265905034762705
O	-9.722799593457628	3.5291951716440675	1.695427493476271
O	-10.134491353457628	5.280422331644068	-1.6453523565237291
O	-10.110897893457627	-0.8609294783559323	0.9032192234762711
O	-6.314957353457627	-1.4403234683559325	1.0698945334762713
O	-4.654961643457627	-3.5201943983559327	3.789535793476271
O	-0.9378930674576271	-2.6167458483559325	3.606758923476271
O	1.697097926542373	-5.277797728355932	4.544669753476271
O	5.574653186542373	-5.214320578355933	4.411591063476271
O	7.989018506542373	-8.128450298355931	3.939875713476271
O	8.605833706542372	-0.5434185283559323	6.168121783476271
O	10.606256046542372	-2.7493295683559325	2.2368460434762714
O	9.366774646542373	0.003885527644067688	-0.18220798472372893
O	12.765591446542372	-0.05814454635593236	-1.8776323065237288
O	12.401071446542373	-3.7294244183559324	-2.962269036523729
O	8.845909326542372	-7.759715408355932	-3.338952846523729
O	8.750315326542372	-5.364709128355932	-0.3989511025237289
O	4.993299226542373	-4.917851488355932	-0.011757607523728925
O	1.8189736365423732	-6.961659878355933	-0.26912623822372894
O	-1.453460011457627	-4.940387108355932	-0.5395760055237289
O	-4.842461613457627	-6.763494868355933	-0.23203887572372894
O	-7.471414973457627	-4.682836568355933	-2.152569836523729
O	-11.193037853457628	-5.220094268355933	-1.363159186523729
O	3.096922096542373	-0.1258554023559323	-7.314020656523729
O	1.9027996565423728	2.2488419216440674	-4.643474886523729
O	-1.095948672457627	4.257267721644068	-6.014582716523729
O	-0.011817853457627092	7.451494001644068	-4.3705877465237295
O	3.346717156542373	9.272139541644068	-4.59492315652373
O	6.043282766542373	8.116853151644067	-4.316101096523729
O	4.477343326542373	5.4559973516440685	-6.6436448365237295
O	7.313561746542373	3.0014328216440678	-5.997726016523729
O	7.062735546542373	-0.3097039083559323	-7.779718306523729
O	7.273653806542373	-2.5192116383559324	-4.78644690652373
O	3.878316286542373	-4.130657928355932	-4.509888576523729
O	2.463173806542373	-7.531559928355932	-5.095626926523729
O	-1.2764885104576271	-6.707423788355932	-5.427234206523729
O	-3.828756823457627	-9.155332048355932	-4.097892816523729
O	-7.304722013457627	-8.103207788355931	-5.300704966523729
O	-5.962379773457627	7.179422581644067	-9.21950539652373
