23

O	-7.316442275497368	3.852049127889993	17.10156065527147
O	-3.853046307195532	3.41277847378643	14.55145930387629
O	-5.691127792221247	4.6536089569211105	15.161517190684357
O	-6.145419270864838	3.544940089794958	15.854276418258628
O	-5.342150671995851	2.4243894541229745	16.038175438779476
O	-4.362394447448265	2.2459277686741737	15.097463408470315
O	-5.925472092555843	1.0127300399736834	16.853079287394696
O	-7.399726076659167	1.091126311478373	16.860580336062533
O	-5.681051839790731	0.9473912660863211	18.30284806518531
O	-4.158137848730227	5.680640560766605	13.604801053389412
O	-3.563055309045763	5.1893380208713875	12.346532315423435
O	-5.408597193448053	-0.4626223462206047	16.16459280045041
O	-4.91767688592981	6.6702720581076305	13.444271472603276
O	-1.839653211643296	5.578237813800898	12.318672640845117
O	-1.6151421510502075	7.133288708388241	13.104861773737825
O	-0.5289495196380178	7.8378665853507155	12.807096366796914
O	-0.4508827823275663	9.136277786614471	13.092885574308967
O	-2.555824624064644	7.768271166571946	13.851611792850722
O	-2.690139814906386	9.08146370451782	13.534419962022909
O	-1.6591963404380063	9.800870000793882	12.911645729376815
O	0.7318170409184761	9.960346626216161	13.294831272852367
O	-3.8143206958979845	9.554688431072087	13.388823916955689
O	-4.4477249245942545	4.636762001824746	14.599005837547779
