19

O	-5.606597741509571	0.8617832741950187	18.322620219873755
O	-6.022932587836253	0.763361895895359	16.916455918115552
O	-7.464840434656223	0.9355429877859578	17.048204305058096
O	-6.155994098396166	3.543384235131705	15.701889938745344
O	-5.3629249466016296	2.0433297896512803	15.981150006961943
O	-4.842134028170804	6.853270850896028	14.655115230563405
O	-4.317177244992853	2.0823638872851387	15.114682015329677
O	-6.359943961153569	6.0484044717373155	13.0455457314435
O	-4.445276084056706	2.9911673879103855	14.10915487615799
O	-5.093412421601378	4.155253149499508	14.50344282445942
O	-5.073873725540059	5.706287218190871	13.771076068393869
O	-3.822118001525295	5.689579988740033	12.622388945972192
O	-2.491586616793944	5.651242717986108	13.128789953494305
O	-2.05062683394741	7.079570976615289	13.23566954289258
O	-0.8812357175079724	7.4082568962341835	13.863642267029455
O	-0.5319743473504079	8.73471296519913	13.60716258026165
O	-1.592276241631465	9.578588013353716	13.929864608447252
O	-2.9080597755526063	8.549145465803637	13.50142558787095
O	-5.4900724372324134	-0.7069866604911272	16.27251161327009
