16

O	-7.663519229284749	3.8047555648113036	16.428549047491916
O	-4.192219062504936	2.7546858233782263	14.87138272783558
O	-4.3021478889042	0.2509673222875215	13.716445090676121
O	-6.400173150275267	1.5772013051405116	13.783793897761676
O	-4.870466815009625	1.7983928185305542	13.61521845063989
O	-4.546761423592161	1.8976030745299874	15.852920972364325
O	-6.086547273473872	-0.6006418550505734	16.484397588631136
O	-4.964881996941358	2.889091318786619	12.698231355571403
O	-6.39089450395462	0.8870704638669908	17.268977685159413
O	-5.633244195910127	2.284958295890637	16.554743478462186
O	-3.851772154435298	4.752083191854695	13.7515020924291
O	-7.812727435718926	1.3052582961907133	17.360810333015394
O	-5.985006770863867	3.584784536902563	16.41710603078249
O	-5.88251332906029	0.7818940851813363	18.636356982511167
O	-5.239063481868398	4.591610909907458	15.856724701337683
O	-4.204249997973792	4.147284977058574	15.015513077124325
