74

O	1.9450665635882352	0.4055569767450976	2.5719065124392158
O	1.968036433588235	1.5527719007450975	1.6515237424392157
O	2.729476243588235	1.0029930317450977	0.5245693714392158
O	-0.34077887641176496	1.3870634967450977	-0.24603699856078426
O	0.391486923588235	2.0528414257450978	1.1617380424392156
O	-2.6218168804117647	2.670423925745098	-2.7906919175607845
O	-0.42789987641176497	3.0927704657450974	1.4691237324392157
O	-3.708120656411765	1.1179559157450976	-1.3601348875607844
O	-1.6774642297117648	3.0454143157450977	0.9269334924392157
O	-1.720962590811765	2.3504990757450974	-0.25077685456078425
O	-3.005000306411765	2.4260810057450977	-1.3822899075607844
O	-4.083929326411765	3.629229505745098	-0.7557772285607842
O	-3.495893386411765	4.573519745745098	0.14547182843921574
O	-2.959046776411765	3.7558149257450975	1.2646438724392157
O	-5.442973896411765	3.308668415745098	-0.6143506995607843
O	-5.884615976411765	2.3679486457450976	-1.5579562975607844
O	-7.160683606411765	2.5879382857450977	-1.9588283575607843
O	-8.075181096411765	2.880620935745098	-0.9976150075607843
O	-7.640983336411765	3.2511460257450975	0.2655679364392157
O	2.694560513588235	2.8777929457450977	2.4117861424392157
O	-6.314586276411765	3.560842295745098	0.4004237104392157
O	-8.547910576411764	2.9120057657450977	1.2437941524392158
O	-9.452980956411764	1.8450605387450976	1.1624642124392157
O	-1.4339227734117648	12.564512155745097	9.536452922439215
O	-6.338573966411765	-2.7257045542549023	13.435859932439215
O	-3.3377819564117646	-0.47279839425490233	14.133078532439216
O	3.781461993588235	-3.0444450842549022	8.985516872439215
O	6.508669683588235	-1.7966896642549024	8.814593182439216
O	-3.008888786411765	13.453384955745097	-1.7083533675607843
O	-1.8557315104117649	15.343797255745098	1.3296935724392156
O	0.18117187358823506	12.523069055745097	2.7900149824392155
O	2.6249377235882347	11.776881555745097	-0.047497644960784256
O	2.674190593588235	12.101765155745097	-3.842795307560784
O	1.460781253588235	9.240184515745097	-5.993813967560784
O	2.4551445835882353	8.534606345745097	-9.589805177560784
O	-0.5512163364117648	6.488852215745098	-10.949035467560785
O	-1.4106899114117648	0.6994975327450976	-9.671810587560785
O	0.8106481535882353	3.503096465745098	-8.212225927560786
O	4.203622803588235	4.276391415745097	-6.562729547560784
O	4.977996133588235	6.824613195745098	-3.8091951375607844
O	7.673936523588234	7.571245675745097	-1.2282026975607843
O	9.935276353588236	3.8619693357450977	-2.3062491775607845
O	6.726139213588234	1.7168579377450977	-2.490586567560784
O	5.511795893588235	0.2088386957450976	-5.764567837560784
O	1.9188525035882351	-0.8378094742549025	-5.102065427560784
O	0.42283867358823524	-3.886986644254902	-6.922626427560784
O	-3.035883776411765	-5.625874004254903	-6.581927397560784
O	-3.8980141464117652	-9.286703144254902	-7.253834807560784
O	-7.9694504464117655	-2.6222506342549026	-6.150230897560784
O	-10.931925076411764	-2.0491461142549023	-3.8052570975607845
O	-7.990220596411765	-6.681895014254902	-3.3695696275607845
O	-7.456147706411765	-4.678787474254903	-0.10062672356078425
O	-10.060760616411764	-6.877803934254903	1.5734333924392157
O	-8.031086496411765	-10.103461744254902	1.0391265524392157
O	-4.7028050864117645	-8.880043344254902	-2.1290095175607844
O	-1.6277854664117648	-6.680406734254903	-2.4755676475607844
O	2.064582333588235	-6.993042874254902	-3.2187074375607843
O	4.244531243588235	-3.966051674254902	-2.3191772775607844
O	7.911180543588235	-3.7794551442549027	-3.4895285375607843
O	9.851130753588237	-1.5412088042549024	-1.0163926175607843
O	-0.24854003641176492	-4.384565514254902	6.0329593424392165
O	-0.7763023654117649	-0.9732860442549023	4.496901862439216
O	1.4606755635882351	1.5207797567450976	6.393767542439216
O	-1.130023014411765	4.233109505745098	6.391443912439216
O	-4.782236546411765	4.122365975745097	7.546684872439216
O	-6.781020636411765	2.0210550027450975	7.0512795124392165
O	-3.850605616411765	-0.23751685425490243	7.776969802439216
O	-5.544394006411765	-3.3027213642549027	6.315116182439216
O	-3.599265726411765	-6.518440514254903	6.5732946024392165
O	-3.5544424064117646	-7.400234954254902	2.9588501324392156
O	0.05606466358823514	-7.050833834254902	1.8961799624392157
O	5.868952243588235	-7.1429356142549025	1.4464979124392157
O	8.823736253588235	-7.541092624254903	-0.8863976065607843
O	11.759397453588235	-5.5046819342549025	0.4800718804392157
