75

O	2.1270278694489795	1.0886233899795918	0.037376138836734074
O	0.8836618194489796	0.7272493759795919	0.4652067858367341
O	-0.1898454005510204	1.571815883979592	0.2517755288367341
O	-5.85021850055102	6.802602145979592	-0.019991723163265918
O	2.32713846944898	2.416050169979592	-0.21226656516326595
O	1.2520048094489795	3.2472546059795917	-0.26082196116326595
O	-0.06088436055102031	2.9085557859795923	-0.18608110316326593
O	-2.2660096515510206	3.392899445979592	0.3372354928367341
O	-3.1379377705510203	5.434265235979592	-0.49296114966326593
O	-4.153706940551021	5.219036925979592	0.6295018678367339
O	-5.5319209605510204	5.371888085979592	0.09134965683673407
O	-6.43246834055102	4.465695865979592	0.8133036878367339
O	-3.8965947905510205	6.098550785979592	-1.549613942163266
O	-6.1972534305510205	6.847769795979592	-2.308939852163266
O	-5.20306386055102	5.725613575979592	-2.119479092163266
O	-5.153231260551021	5.040056195979592	-3.443546102163266
O	4.99630031944898	1.0382625769795921	0.2819657428367341
O	-0.8757933935510204	3.676103215979592	0.6149471878367341
O	-2.48270905055102	4.204133745979592	-0.791056684163266
O	-5.79153746055102	4.782396315979592	-1.234802672163266
O	3.6702653894489803	-0.6012309140204082	-1.216116023163266
O	3.38730494944898	-0.974274094020408	1.038017887836734
O	-4.9522127905510205	3.7461680259795918	-1.194890076163266
O	3.5683427594489796	0.12232536597959198	0.07111104683673403
O	-3.23239558055102	3.1898527859795918	1.582080967836734
O	-1.8644521505510203	1.130060505979592	-0.14167802216326592
O	5.46152620944898	13.251895405979592	-6.5685895521632665
O	8.21111983944898	12.548324805979593	-4.126388892163266
O	0.8903639694489798	2.106048324979592	-14.564718982163265
O	4.42262523944898	2.8767863459795917	-13.373872582163266
O	7.179367599448979	-3.522037424020408	-7.353312082163266
O	9.75959923944898	-3.670876704020408	-5.818123302163266
O	2.0289450394489794	12.037372005979593	5.471455697836734
O	5.00379800944898	13.713147405979592	3.889757547836734
O	6.4240310294489795	10.587397025979593	2.3143683778367343
O	6.90096237944898	8.336567425979592	5.364768817836734
O	5.30257407944898	7.899273925979592	8.801236617836734
O	2.3684919894489793	5.537242665979592	9.224354027836734
O	1.3281147994489795	3.802576835979592	12.451093917836733
O	-2.45593700055102	3.108537865979592	11.872458617836735
O	-4.48173853055102	-1.2545874440204081	8.319045647836735
O	-1.0634415735510203	0.44278284597959194	8.825748407836734
O	2.7552871194489796	-0.14381107402040794	8.901655017836735
O	5.46977774944898	2.259650017979592	7.637191257836733
O	9.31308043944898	-2.2673393540204083	7.015984657836734
O	5.879688259448979	-2.781234824020408	5.328233147836734
O	2.87781210944898	-4.165540874020408	7.242626037836734
O	-0.11109545055102044	-3.3406303340204078	4.997851847836734
O	-3.1911313905510204	-5.712591164020409	5.035196167836734
O	-6.46448501055102	-5.643185614020409	2.929060467836734
O	-8.69063901055102	-8.554059594020407	1.934258947836734
O	-12.839191960551021	-1.483319954020408	2.7270026078367344
O	-9.226361170551021	-0.5419802240204079	1.824212337836734
O	-10.387432160551022	1.644731878979592	-1.004755567163266
O	-12.175350060551022	-1.264160184020408	-2.714663872163266
O	-9.383440970551021	-3.7655421840204086	-1.944292372163266
O	-6.77912543055102	-1.7138539340204082	-3.915104162163266
O	-8.88807400055102	-2.1903752840204085	-7.047786502163266
O	-8.508109920551021	-6.013219934020408	-7.003050272163266
O	-6.84445429055102	-7.012739924020408	-2.6776952821632656
O	-3.74627958055102	-6.555294394020408	-0.541972931163266
O	-1.1249894075510203	-8.570567594020407	1.295229587836734
O	2.08175904944898	-6.6607309740204075	2.3165858878367342
O	8.101840109448979	-6.733510104020408	3.9535578678367345
O	2.07168350944898	-3.507596394020408	-6.672770852163266
O	2.05372581944898	-0.5427779440204079	-4.274626752163266
O	5.61640350944898	0.998775632979592	-4.353119542163266
O	4.2778775994489795	4.547905035979592	-4.249604862163266
O	1.5500887894489794	6.290906135979592	-6.350460542163266
O	-1.0306170545510205	5.224451415979592	-7.256240742163266
O	1.2016799794489794	2.103451931979592	-7.909633432163266
O	-1.8201849385510203	-0.16211898402040803	-8.323374732163266
O	-3.0394440805510206	-5.291040154020409	-6.200762502163267
O	-0.4340345615510204	-6.779337674020408	-3.901762272163266
O	4.15333408944898	-9.473764694020407	-1.526250932163266
