73

O	-0.23520636161428543	4.60843601622449	-3.6196069386061227
O	-1.4988960156142854	1.8259033342244901	-2.8933304686061225
O	1.4664176883857145	3.1574515762244904	-3.9744429986061225
O	-1.9252580816142855	0.5744269062244902	-2.5598457186061223
O	-2.4731458616142854	-2.41482700377551	-2.718054818606123
O	-0.6787059805142854	-2.54169585377551	-0.7117054436061225
O	-1.2590714876142854	-0.15151777377550957	-1.6270254936061226
O	-2.7868864716142854	-1.9034289837755094	-0.2160038186061226
O	-0.026272829614285453	0.33080941622449034	-1.3391541554061226
O	3.7427818283857146	7.2825588462244895	-2.0171390346061226
O	0.46474697838571466	1.5433786332244903	-1.8177892666061226
O	-0.23504291661428545	2.33592364622449	-2.6656820086061224
O	0.23291793638571456	3.28782950622449	-3.6842175686061225
O	-0.5543893556142855	5.58326049622449	-4.582997718606123
O	-1.1431300986142854	6.761789836224491	-4.314907758606123
O	-0.7405659451142854	7.302450086224491	-3.0051384586061225
O	0.14267492138571458	5.13933046622449	-2.3154405236061226
O	0.2812920883857145	6.553179306224489	-2.5537562386061223
O	1.4906407083857145	7.343859456224489	-2.2795902416061224
O	2.5603333883857142	6.61596083622449	-1.9554614986061227
O	2.5151021983857142	5.26631009622449	-2.5693581586061223
O	1.4947498983857144	4.56794175622449	-2.0389193456061223
O	3.972255308385715	8.25859699622449	-3.0005275486061227
O	-1.7902027816142856	-1.7649685437755096	-1.2973010609061226
O	-9.727646261614284	0.9515814162244902	-12.507151758606122
O	-14.060095191614284	5.90380808622449	2.5995598313938775
O	-14.600855591614284	2.8572234802244902	0.36330880139387745
O	-9.287809821614285	-4.11837764377551	3.0496337313938775
O	-8.976128581614285	-6.821640953775509	1.7934270113938773
O	1.4460578683857146	2.98997062222449	-13.191210258606121
O	-1.4775069476142855	1.6448360652244902	-15.160147858606122
O	-2.9230665816142856	-0.4594464037755097	-12.357925458606122
O	0.035983488385714524	-2.72304839377551	-11.542197558606123
O	3.8501544383857143	-2.5344778137755095	-11.737330058606123
O	5.833801648385714	-1.1792308037755097	-8.797343348606123
O	9.456786108385716	-2.0692319937755097	-8.017530358606123
O	10.636768508385716	1.0041231362244902	-5.944134868606122
O	9.268829898385714	1.7083200772244902	-0.14508065860612263
O	7.905492498385715	-0.5006414937755097	-3.0196619386061228
O	6.381658608385714	-3.92641436377551	-3.840107638606123
O	3.717556368385714	-4.7803727237755105	-6.440420068606123
O	1.3316672883857144	-7.64383604377551	-7.272572228606123
O	2.3699231283857145	-9.83163751377551	-3.5346789986061227
O	2.3817864683857146	-6.64661845377551	-1.3845604568061225
O	5.559969598385714	-5.28287607377551	0.20064830139387735
O	4.714525628385714	-1.70561420377551	1.2253387613938775
O	6.434279068385714	-0.18834323377550977	4.3471158913938766
O	5.951194278385715	3.2416433662244906	6.118938841393877
O	6.462920988385714	4.106401236224491	9.780239741393878
O	9.682279008385715	6.13328672622449	10.156720441393878
O	5.354011618385714	8.201698816224491	3.077825201393878
O	2.9428374083857145	11.092487066224491	2.5539410113938774
O	2.5033053283857143	8.07632753622449	7.126109701393878
O	-0.7132907145142855	7.43731486622449	5.089863621393878
O	-2.5441649916142857	9.95371824622449	7.223323331393878
O	1.3263352583857144	4.71622292622449	9.232127941393879
O	1.8394757683857144	1.6999157712244903	6.993171221393878
O	2.7055832683857144	-1.9679709937755097	7.333469281393878
O	1.9570164183857144	-4.16253264377551	4.276966191393877
O	3.2400665683857146	-7.76198231377551	4.096729441393878
O	0.9207173283857145	-9.807471513775509	1.8134846313938775
O	-6.584699491614286	0.012300156224490433	4.539990501393877
O	-4.955306571614286	0.5849792562244902	1.1550138113938773
O	-6.645184471614286	-1.6951455937755098	-1.4107535737061225
O	-6.766603501614285	0.8886969962244902	-4.109612358606123
O	-7.971377841614285	4.52748646622449	-4.015695968606122
O	-7.508329321614285	6.57488112622449	-1.9264591536061226
O	-8.293981391614285	3.56805336622449	0.31815465139387733
O	-7.020030461614286	5.28950567622449	3.4609668813938774
O	-3.6881238616142857	3.38317262622449	7.626606881393878
O	-2.4740964516142854	-0.1647310137755098	7.266517271393878
O	0.6067660383857146	-8.80027621377551	7.803530491393877
O	-0.5994518436142855	-11.77603671377551	5.731851151393878
