71

O	-2.2721637570400004	-3.9643823260000004	-1.0779482112222223
O	-2.17665220704	-4.470076086000001	-2.3908339282222224
O	-1.9620602490400003	-4.874087046	-0.056117298222222445
O	-3.2653187170400004	-3.0217597960000004	-0.6557859702222224
O	-4.38135302704	-3.3537386060000003	-1.2430879398222223
O	-2.70105394704	-6.150516286	-0.3065026672222224
O	-2.5228468470400003	-6.686232396	-1.4234487432222225
O	-4.00692768704	-6.196188056	0.1941025317777776
O	-2.9533264370400003	-1.5486221000000002	-0.5617154732222224
O	-2.89696461704	-1.3723319000000003	-2.0133147772222224
O	-1.5859393870400003	-1.7895872260000005	-2.3981023282222225
O	-1.2805476860400002	-1.8585687660000003	-3.599740238222222
O	-0.6636252560400002	-2.0210435360000005	-1.4626280162222223
O	0.7192957929599999	-2.0467531960000005	-1.8694573612222225
O	0.7444349229599998	-1.1863629990000004	-3.1507639182222222
O	1.1891110329599999	-3.3684452460000003	-2.3030059382222223
O	0.8062385929599998	-4.338501026	-1.6217187712222223
O	0.8078969029599998	-3.5605941460000006	-3.6772605582222226
O	1.45972379296	-4.617914576	-4.4600197982222225
O	-1.9593318720400004	-6.810979926	-5.459090418222223
O	-1.1855564070400002	-7.131843426	-4.349379148222222
O	-0.10263439804000019	-6.331570736	-3.9741454982222226
O	0.17985912295999973	-5.303224836	-4.825745818222222
O	-0.8890286580400002	-4.656166386	-5.379282628222223
O	-1.8872624590400002	-5.491477796	-5.888205618222223
O	-3.6063168270400006	-2.2925223760000004	-2.8218329882222224
O	4.08741052296	-1.4904530330000005	8.357900461777778
O	1.65536665296	-4.396252946000001	8.518213171777779
O	3.8051596329599997	-7.496043956	8.029718471777779
O	6.29569646296	-7.803504596	5.199576201777777
O	7.90383502296	-13.346751676	2.606428921777778
O	10.73560487296	-12.638869176000002	0.17802421177777772
O	8.93464897296	-9.505254166	-1.0754503852222224
O	5.635418362959999	-11.229310176	-1.7837190642222223
O	3.7544497329599995	-8.323439006000001	-0.19920030822222246
O	0.5634765629599998	-9.136475756000001	1.7000138917777778
O	-0.13328470904000023	-8.178350406	5.3087222817777775
O	-2.0557916670400003	-4.938809756	5.7965756217777775
O	-4.98088388704	-5.9367175660000004	7.994159351777777
O	-6.523649817040001	-3.0084131860000003	9.841768501777779
O	-3.4225493170400005	-0.8612227970000004	9.688144901777779
O	3.4693240729599992	6.489754814	6.649875851777778
O	1.2059989229599999	3.4335546839999993	6.561800361777777
O	2.3092633529599995	0.8087853539999995	4.091188141777778
O	2.2921379129599995	-0.40737245300000036	0.6802294517777776
O	3.592505192959999	2.0535605039999996	-2.007688021222222
O	3.4801326429599992	3.2668909339999996	-5.573852518222223
O	3.91063214296	6.784239814	-6.956436288222222
O	7.541294312959999	5.233001444	-3.0942193782222223
O	6.8098213329599995	3.8230673839999993	0.3689572217777777
O	7.67021648296	0.20408008399999966	1.1979994617777778
O	11.06041987296	0.32530140699999965	-1.2925027452222224
O	0.6852510829599998	8.977714094	3.447469411777777
O	-1.5660139130400001	5.889907604	3.2249244717777774
O	-0.3477634380400002	3.8279495739999994	0.2553192317777777
O	-1.0950956472400002	3.2697823739999996	-3.3654014182222225
O	0.1784634629599997	5.804730614	-5.917022738222222
O	-0.5526240910400002	3.6988174039999993	-8.962660078222223
O	-2.99998181704	1.2116765139999996	-10.456137998222221
O	-5.8242059170400005	3.4373843739999996	-11.616547998222222
O	-9.36784711704	2.9657938139999995	-10.324076098222221
O	-5.36291565704	9.202323333999999	-2.946257148222222
O	-4.94042219704	11.008939023999998	-6.258818088222222
O	-1.6711905670400002	7.261225814	-10.081847118222221
O	-4.55129820704	5.712527564	-8.156036998222222
O	-4.98447771704	2.8764196639999997	-5.716616778222223
O	-5.733881597040001	3.7895977339999996	-2.0552567782222226
O	-8.40517709704	1.8837477539999994	-0.035464668222222384
O	-8.37449705704	0.4784679439999996	3.5860839817777777
O	-9.420279427039999	-4.793955536	6.817170811777777
O	-15.26269672704	-0.22804543400000038	-2.2250517752222225
