97

O	-0.9172402233653844	-0.7588232312059623	7.3033722074038465
O	-2.1976935213653843	-2.763650611205962	0.977525007403846
O	-3.7444094513653843	-4.269365261205962	1.9756940294038459
O	-1.9338032713653845	-3.5274465612059624	4.590062117403846
O	-0.3266876013653844	0.27122469679403777	7.977032307403846
O	-0.14409261736538437	-0.8433517812059622	3.625210687403846
O	0.7180414886346157	-3.310930951205962	-1.6294346625961542
O	0.9216839286346156	0.02579452779403779	8.368154687403846
O	2.4357552186346156	0.2846338477940378	4.620586677403846
O	1.2073383186346156	-4.654332101205963	-0.21337860259615415
O	1.1191614786346156	-1.3155408712059624	8.377389517403845
O	3.0006206286346155	-2.180135181205962	5.969367087403846
O	-0.22201386936538436	-2.370547921205962	1.009534552403846
O	0.4879763086346157	-2.057369001205962	7.3635172674038465
O	1.5839576586346156	-0.5494264012059623	2.5587775874038456
O	-0.5690991853653844	-1.8339980812059622	6.612969607403846
O	1.9052053086346157	-0.16731206020596223	5.925280467403846
O	-1.2066162653653842	-2.963584091205962	5.977643327403847
O	2.3310829186346154	-3.170825171205962	2.159146437403846
O	-1.8532524313653842	-3.9145628412059623	3.072693977403846
O	0.8147380586346157	-4.683608491205963	2.622878167403846
O	-2.3578170213653844	-4.6757625312059625	1.9157439774038458
O	4.319833138634616	-0.34633522120596216	6.170090627403846
O	-2.0436166713653843	-4.192744711205963	0.5744033284038459
O	-1.3209814653653844	-4.438047361205963	-0.6241430625961542
O	0.09371635663461564	-4.138513131205962	-0.881184982596154
O	-1.1486135213653843	-2.311655481205962	1.7590476834038458
O	-0.9668848153653844	-1.159467901205962	2.533577407403846
O	-2.3550810613653845	-0.8200164012059622	2.8041405274038462
O	-2.131105851365384	-0.5920363712059623	4.163652907403845
O	-2.597791301365384	-0.1544707242059622	5.462486277403846
O	-2.6548648513653843	1.1826113927940378	5.740552627403845
O	-1.4909044653653845	1.9641485987940377	6.057923777403845
O	-0.7207067676653843	1.3249219077940377	5.0157598774038465
O	-0.8267204094653844	0.09916467879403779	4.370334307403846
O	0.4371510386346157	2.2368021287940376	5.363945937403846
O	1.5451591886346154	1.6399757277940377	5.464772357403845
O	1.7004313886346156	1.2305187127940378	4.008040597403846
O	0.8546247386346156	0.20879430479403777	3.233455107403846
O	1.6862362586346156	-0.8382893712059621	4.936355617403846
O	2.2469498686346157	-2.0814974212059623	4.776363347403846
O	1.4513103886346155	-3.095182181205962	4.264871857403846
O	1.5273674886346154	-3.593493641205962	2.975475117403846
O	3.6895416886346153	-1.231905841205962	6.7232672674038465
O	4.349652698634616	-1.7394562812059622	7.968125107403846
O	-1.3069610153653843	-15.505103661205961	7.531873337403846
O	-0.36502595336538435	-12.914649761205961	4.852322627403845
O	2.6997451286346155	-10.814846561205961	5.373186137403845
O	5.807635488634616	-10.197035161205962	3.320094167403846
O	5.808291178634615	-7.155810661205963	1.066486468403846
O	8.933862408634617	-5.212378531205963	1.720680036403846
O	10.026577708634617	-2.787546551205962	-0.9553480725961543
O	8.267350048634617	-4.740757321205963	-3.7132507325961543
O	12.390559508634617	-2.075040081205962	-5.726463392596154
O	9.131105578634616	-1.894301151205962	-7.710563172596153
O	2.4150439086346154	-6.845140651205963	-7.142913372596153
O	0.7387696886346157	-8.465066671205962	-4.160620882596154
O	-1.9204798813653845	-8.366966111205961	-1.4083977525961542
O	-5.380099771365384	-8.022407941205962	-2.661751902596154
O	-8.962111701365384	-7.013675141205963	-2.404398262596154
O	-0.9801239453653844	-2.9361215412059622	-13.873101312596154
O	-2.0772841613653843	-3.745422371205962	-10.331000212596154
O	-0.5244683093653844	-2.815989421205962	-6.901181702596153
O	-2.8368599213653845	-4.247494791205963	-4.319677022596155
O	-5.723307541365385	-3.195317671205962	-2.210299332596154
O	-10.955521691365384	-2.6152125512059623	-0.3540518025961541
O	-10.808834991365384	-1.1406428412059624	3.0761935674038456
O	-11.595975991365384	2.524721368794038	2.626902427403846
O	-9.227255291365383	5.3468520387940375	3.573985887403846
O	-8.882259211365383	8.729027898794039	1.951300589403846
O	-2.8209181413653845	1.719320918794038	-7.828326722596154
O	-5.780185971365385	2.970249488794038	-5.941834662596154
O	-9.801375651365383	1.7556040987940378	-1.268264192596154
O	-6.714241581365385	0.6748500735040378	0.14789457740384582
O	-3.2795746313653846	0.8667768697940378	-1.584428642596154
O	-0.12779531836538438	1.9614783487940377	0.28461315340384585
O	3.671566918634616	1.0588245017940379	-0.348975112596154
O	6.657090808634615	2.264814888794038	1.623026964403846
O	8.680170798634617	-0.5791653312059623	2.898547637403846
O	11.836534308634617	1.0045528127940377	1.6082870024038458
O	11.197487108634617	2.916022338794038	-1.630033452596154
O	8.473003498634617	0.7811457907940378	-3.083214422596154
O	4.758639358634616	1.425765156794038	-3.717642352596154
O	3.5681630586346156	4.9054755887940376	-4.078257502596154
O	1.9456409486346153	3.847406778794038	-7.370597512596154
O	0.6608306286346156	10.957955138794038	2.338407177403846
O	0.8485973786346156	7.991302368794037	4.7274234474038455
O	2.7707134886346156	7.840591678794038	8.012419357403846
O	1.5931605886346154	5.303581448794038	10.616134377403846
O	2.1045127686346157	4.794464548794037	14.334912687403847
O	-1.5150066453653843	3.700415148794038	14.173876587403846
O	-3.7616512513653846	4.747132938794038	9.103310507403846
O	-1.8834032813653843	7.9444924987940375	9.453068207403847
O	-4.015279301365385	9.213224238794039	4.347062727403846
O	-4.099183801365384	9.958170008794038	0.5832957924038459
O	-4.227037491365384	7.791531638794037	-2.538122182596154
O	-5.412829861365385	8.290341858794038	-6.082589762596154
