25

O	35.05100118050436	31.39131473349994	29.10707462196652
O	37.03701947565998	33.18134992793043	27.878206939841952
O	33.9257493101583	31.02248983932811	29.49996620598522
O	35.702131342229066	32.368835581099134	30.07243738155215
O	39.04370955516206	34.86739087461832	23.37235368561053
O	35.00676183939955	31.644128962406462	27.71891368855599
O	36.19648895679708	33.444772976028645	29.117530793734453
O	34.998297805025445	35.333620273358896	29.88391133048735
O	35.03508999467708	33.946284785546254	29.72323867859759
O	36.92832292984349	34.324694862034846	26.137689647687036
O	37.76017765376619	33.46680899207023	26.59844706795344
O	36.17534285979943	33.63493420688503	23.31795564196401
O	38.73813281552153	33.52235933284884	25.500470648489102
O	35.77343324165979	31.926936126900657	24.79454783184867
O	39.42125954834014	32.60421700295548	24.71020032497568
O	39.974056603240456	32.64158069733783	23.429343220947516
O	39.77510081956311	33.84715683409517	22.822292224485217
O	39.10360199749636	34.58421874220748	24.6590193364978
O	39.74633511403152	31.514855818159177	22.423558206443225
O	38.906298556096075	31.67435035720206	21.283372090168257
O	37.4828746515752	31.859578517108496	21.447780363748002
O	37.08052932166955	31.6357464934263	22.73529047534107
O	37.72558208455552	30.540934467097436	23.346427801252787
O	39.146352029706144	30.417261476922107	23.082830398228545
O	36.28022662835879	32.452977128597404	23.633569833676987
