21

O	35.5956190467077	38.062815763600995	31.200376682602013
O	36.727211021572785	37.91977566400108	31.952362939626877
O	37.260922515612044	34.80817021260918	28.897021973310657
O	37.88711819404116	38.68079387688601	31.834591971457634
O	34.890124593845414	36.00682988375755	31.86613620573887
O	38.15072319879798	39.05972901803129	30.52340301776676
O	36.70727029930182	35.22169565090495	32.388611304103335
O	37.025872760168646	39.22106011352868	29.771010801794382
O	35.731795798847024	38.78637001660002	30.088690895996407
O	38.244467168273516	33.99085662279226	30.78784379084068
O	34.563358465369284	37.38137215303723	31.921407857586065
O	35.87643377958958	36.55731236311604	27.16671937570293
O	36.61906737201363	35.48791963127418	25.330062485157395
O	35.260339949677814	34.015702593679364	30.740275506194482
O	36.16453970318607	33.016319581193095	30.39823474422312
O	37.39846600366826	33.72448855694914	29.828707858554658
O	37.100649463149104	34.510914124289044	27.51727207391433
O	36.52492852575105	35.59895770083271	26.70313361662173
O	35.81071702886678	35.10244994037194	31.498002510670016
O	37.35839190270769	36.017136117320625	29.546522884990257
O	35.265337155204726	34.678904198013214	29.55054603835991
