15

O	33.240075901542276	34.03326828523455	29.994614417157095
O	34.23478760065838	32.30535403551673	31.4265844712302
O	33.903980059412454	32.952632991308214	32.43601041899756
O	33.74234625461121	32.712910266988885	30.179642308668885
O	34.155849054361994	32.13468570418301	28.89672487475322
O	34.420689522041165	33.15583160660253	27.829261947383596
O	35.401207972092216	32.872996717748265	27.066045570936858
O	34.276842936046265	34.51757570296062	28.08726479652232
O	35.485300154701605	31.478486773142354	31.339054430719475
O	36.19486674320091	32.03488817003696	30.084920834632438
O	36.40815843660585	33.45331195824517	30.413507126754318
O	35.938358989708995	34.10606611045638	31.356049793619487
O	37.01005515684781	34.19486746088533	29.42333518907435
O	37.01071063207908	35.60020288370511	29.44191439679614
O	37.29380710958612	36.0569162864813	28.014926992505888
