28

O	35.28404591010917	34.00146470370685	31.174629995342546
O	34.67892939819115	34.73148862748525	30.023407466136327
O	36.54490344966279	33.7633362425296	31.016550627604612
O	33.9775795285931	35.94908422769834	30.277488111199183
O	35.64323296463154	35.01306400420383	29.016365061205416
O	35.724613585657636	36.30832672858163	28.357050364128288
O	36.87143084325849	36.674077475134396	27.948574777676395
O	34.70650993679422	37.214972788886996	28.185766146897407
O	35.40105353983633	34.817000184550636	32.37989428591333
O	35.71783532515854	36.13346722678035	31.570707416008936
O	36.972843000077745	35.78251890207031	31.307741910785
O	35.158739435885465	37.0096995605982	32.46245828859912
O	34.63295944887137	38.277169998705425	32.25665557762549
O	35.44922466318526	36.74609421161161	33.6945038369651
O	34.11960300237229	39.20440713644641	33.22103232057566
O	34.476484431247535	38.92190855423487	30.924842955118404
O	34.829131486917746	40.34200674564459	30.941619184516718
O	36.21555546150347	40.55085007000978	30.939464635353616
O	36.78632616291238	41.771880820681744	30.519862897289972
O	36.08398186745078	42.97751074405919	30.6754916154324
O	34.79758039008307	42.7135166807029	30.325214335196073
O	34.26896878772071	41.41543008880277	30.270136630331688
O	33.75824215523665	40.639244705662215	32.95661593035863
O	32.419870276461076	41.09625536137935	32.88265916346115
O	32.15004504891616	42.4549174596109	32.663915921459505
O	33.037972852013745	43.453855707913846	32.939399626148074
O	34.21642400494603	43.04222255142943	33.45901725369094
O	34.49914260176294	41.67953168000243	33.571054413108875
