21

O	35.43256085546585	37.21893247132731	30.670351063933026
O	35.000530937224724	38.29326330831488	29.982252124136522
O	35.67483887411029	33.55766818751011	29.339019555413287
O	35.840786185255816	39.2361876257592	29.38669382564405
O	34.89296205454346	35.44234887084629	31.95394911906032
O	37.188786468893824	38.90006367684127	29.42762728510868
O	33.641783472755556	35.09870022951183	30.015741264534686
O	37.63673303813969	37.874893127122405	30.216790785402125
O	36.74438677809131	37.40370339569812	31.17942384943943
O	37.18385408485973	32.92358070503093	30.888864524722102
O	34.52391888200033	36.85997278705746	31.801096539876973
O	36.27882896079757	33.85010639703685	25.997935604509117
O	34.935818646400705	35.1757496918044	27.212090606767408
O	33.917944872356244	33.28425546753245	31.26218060302859
O	35.21257112980728	32.75785548486623	31.793368509792256
O	35.954656345351786	32.73757931067271	30.481023442644965
O	35.7127841556456	32.919220838005984	28.060947360057398
O	35.43916290954606	33.89684040478405	26.950106402676724
O	36.21843315587978	35.447394605414544	32.46739685512992
O	34.39819856021224	34.634613443062754	30.925656849744026
O	36.40193251633805	34.76914399514624	29.36739620588081
