17

O	33.20715469348126	34.34099151742787	28.663839052023107
O	33.07091251366958	32.849369374028804	29.037062260860047
O	32.120101978260934	32.93826369535532	29.89269891059405
O	34.267116417866376	32.30681951225293	29.62404807064031
O	34.32599228906542	33.715123509685334	30.363446244580327
O	35.40720428251339	34.313422520464215	29.45324147461888
O	36.383447322003114	33.707731184893014	30.095158533933255
O	35.837466409115954	34.378478117312014	28.188821312315685
O	37.004219863432006	34.894146889423666	27.668083619826277
O	35.0756418717794	32.41875385574534	28.601823801000997
O	35.87720556095323	31.703676919656615	27.69112873131342
O	36.78304540250674	31.257223192323984	28.416140615023433
O	36.387887373799195	31.971120640575105	26.43461383971222
O	37.33126742827528	31.510134705226157	25.580740096391338
O	37.51731556888173	30.172416689363974	24.92988572235553
O	38.81543843305959	31.794389152236562	25.80244759789622
O	37.200411864046096	32.377435606349486	24.271442221638633
