28

O	32.17334168330064	33.51405904910339	28.91858006222088
O	33.372443363462274	33.38958516388861	29.704338043176733
O	38.78739651209736	32.175675244519866	26.98013545561241
O	36.491275045612205	34.68965132529862	26.55371111676739
O	33.97739676843481	34.69510310595821	30.082967620192125
O	38.124157759856004	34.49715526946434	26.88191704167086
O	33.11635992454347	35.289498342791376	30.90092047385471
O	34.91334678681703	34.05846083164419	31.123828966692372
O	34.14634341234081	33.174695323226544	31.95566015227353
O	36.55506075173087	33.49090044557291	29.093909176636537
O	35.94756184776156	34.2992787203393	25.24113561456415
O	36.19900435785825	33.44695851694004	27.703785843633515
O	35.82221234938603	35.92160374384204	26.999816700854986
O	35.81300258479857	32.23603204592307	27.388409133869
O	34.91394793083357	31.744109386802364	28.351508769444866
O	34.487979144726964	32.48030241292973	29.479114596970582
O	35.55445116852135	33.170659824949574	30.056532177287583
O	39.01402123017877	35.119868343753026	28.97234035117741
O	39.66149920551022	35.96697981619352	27.913034390773912
O	38.83684186544131	35.676772536977715	26.700624374136016
O	39.60604351193574	32.99049741798327	27.761559077615416
O	39.33069982128788	32.265646369967484	25.684572851287676
O	38.833643512089225	32.982479792403254	24.646348808297304
O	38.978958291580874	32.471131941861245	23.390502338580042
O	40.023434578096975	31.616928434144295	23.161295335204183
O	40.40955401256259	30.783614668059794	24.167686554555523
O	40.285504027524496	31.321336742722032	25.44366555083677
O	38.542565579088865	33.98538437620411	28.13378833466815
