59

O	-0.12154917929729708	4.554318677081081	3.725976358972975
O	1.048556493702703	3.744913362081081	3.995185468972975
O	-0.14330150429729707	5.811964657081081	3.068973377972975
O	-1.112966354297297	4.006075021081081	4.663648458972975
O	-1.3353319162972972	2.8066244080810807	4.5104920089729745
O	-0.3939739635972971	7.205999627081081	3.422084483972975
O	-1.6576769362972972	7.8160324270810815	3.454538644972975
O	0.594406700702703	8.19517917708108	3.226018104972975
O	-1.878121986297297	9.17315442708108	3.573656018972975
O	0.43647480370270286	9.466525457081081	3.778890348972975
O	-0.8253985512972971	9.95197675708108	3.9604288689729747
O	1.4864063037027029	4.413542937081081	5.563270048972975
O	0.3783315497027029	3.864242103081081	6.3632255589729745
O	2.863224833702703	3.9748676340810807	5.8316878089729745
O	1.401609753702703	8.675453327081081	6.973952508972975
O	0.18772819870270296	8.06343038708108	6.848473478972975
O	0.2534411437027029	6.701765167081081	6.567078288972975
O	1.257834043702703	6.143781497081081	5.7680502289729745
O	2.4318395637027033	6.886262637081081	5.732939838972975
O	2.522599403702703	8.06982079708108	6.487003718972975
O	1.362280813702703	10.172217637081081	6.889598758972975
O	-2.321501106297297	4.849108677081081	4.9454326189729745
O	2.427397863702703	-1.911543852918919	-9.497019391027026
O	5.478582573702703	0.3166490570810807	-9.078004891027025
O	4.393857033702703	3.6839355350810807	-10.487033891027025
O	1.094396953702703	5.317811457081081	-9.605900691027024
O	0.21337772870270288	11.590369117081082	-9.690392391027025
O	-3.4877633762972975	12.221113047081081	-9.053968291027026
O	-3.531174426297297	9.550568187081081	-6.3175832910270255
O	-0.5504226132972971	10.945500197081081	-4.488483171027025
O	0.8514359037027028	7.396478607081081	-4.171104761027025
O	4.637897583702703	7.035383177081081	-4.017593391027025
O	6.574202243702703	4.740120957081081	-6.295182351027025
O	7.382619543702703	1.3299559370810807	-4.842827731027025
O	2.417766223702703	-6.2478948129189185	-5.431655891027025
O	1.189840573702703	-2.737358202918919	-4.551062381027025
O	0.13435949270270292	-0.20217583291891916	-1.892169541027025
O	-2.8555467062972975	-1.2308926129189195	0.1514509589729749
O	-4.958322426297297	-1.4715760629189192	3.264889263972975
O	-7.009856216297297	-4.155852032918919	4.885153928972975
O	-8.966859646297298	-5.946919292918919	2.123780911972975
O	-7.778119706297296	-3.463607062918919	-0.4992634810270249
O	-5.096437276297297	-3.3986734229189195	-3.163742231027025
O	-4.314929706297297	-0.253902362918919	-5.088425221027025
O	-8.352105226297297	0.9255596270810811	-4.924516061027025
O	0.738649353702703	-4.57768853291892	0.651642718972975
O	-0.14766434129729708	-2.7667002429189194	3.888669978972975
O	-3.126934346297297	-4.294527412918919	5.784376228972975
O	-3.3217688862972974	-1.548537782918919	8.299022198972974
O	-1.316068974297297	0.847928597081081	10.428678228972975
O	-0.019323001297297082	-1.2303276129189196	13.211615908972975
O	3.6932088637027034	-1.6030431029189187	13.864839108972975
O	-0.4331965932972971	-9.838127602918918	9.758471288972974
O	-3.9026394262972968	-4.722384182918919	10.491607538972975
O	-0.12990646529729707	-4.240701822918918	10.096315528972976
O	2.103879423702703	-2.191327762918919	7.751434698972975
O	4.190542073702703	-4.1656479829189195	5.322563398972974
O	7.904722843702703	-3.682340722918919	4.771907938972975
O	13.872303083702702	-0.01962318291891929	-1.6504907810270248
