69

O	1.4070325785918367	-6.351473131122449	2.679290974077552
O	2.8075757885918367	-6.801909731122449	2.9201816440775517
O	3.4196213185918367	-5.7467565411224495	3.7990873240775516
O	4.429007388591836	-5.22250732112245	3.2385285340775516
O	2.6317184785918366	-4.783235271122449	4.458662394077551
O	1.3118563585918368	-5.086590531122449	1.8562701640775519
O	0.3199791155918368	-4.3743589011224495	2.1981045440775517
O	3.2524363285918367	-4.145846581122449	5.5323984140775515
O	2.6125571685918367	-4.565380591122449	1.4424141670775517
O	3.1019457585918366	-5.091333731122449	0.20369494007755184
O	5.582703028591837	-3.318370251122449	4.838972844077552
O	6.597668558591836	-2.922407181122449	5.725155144077552
O	6.351005978591838	-1.9524491111224491	6.699153104077552
O	5.146599598591838	-1.2715311511224492	6.531692264077551
O	4.137039048591836	-1.7794428311224493	5.697546884077552
O	2.6661134485918367	-3.170498841122449	1.7701046890775518
O	4.268504618591837	-3.0634346611224488	5.126231944077552
O	4.558918628591837	-5.050454881122449	0.00958085607755177
O	5.345526908591836	-4.208363611122449	0.4789297660775518
O	5.119323378591837	-6.065253391122449	-0.7732353859224481
O	2.565109708591837	5.090813918877551	-7.176773235922448
O	4.646367588591836	2.105878218877551	-8.263764005922447
O	8.236528718591837	3.094056408877551	-7.523233395922449
O	9.278636268591837	4.599532498877551	-4.2381960259224485
O	12.454416028591837	6.29217517887755	-3.067655525922448
O	15.073518828591837	3.8403907988775514	-1.7799914659224483
O	15.264795428591837	6.029386878877551	1.3207934820775518
O	11.776422128591838	4.888232868877551	2.3673311640775516
O	12.515946028591838	1.1812694788775508	2.080650324077552
O	9.167307288591838	0.6318819938775508	0.3665959910775518
O	8.965957648591838	-2.046356881122449	-2.3148892959224483
O	7.798622378591837	-1.4500536611224493	-5.872844975922448
O	4.132776508591837	-2.249676481122449	-6.4839521859224485
O	4.251484468591837	-4.59298303112245	-9.480273945922448
O	0.9830242585918367	-4.778526831122449	-11.378414045922447
O	-0.2071597204081632	-1.3178435311224492	-10.376901245922447
O	-5.2257646814081635	6.333841008877551	-4.9686242859224485
O	-2.965076171408163	3.348433798877551	-5.743319705922448
O	-0.1121294924081632	2.985194578877551	-3.312996035922448
O	1.190616888591837	1.5180074188775508	-0.08348434992244824
O	-0.7179461924081632	2.586873298877551	2.9914626840775522
O	-1.9972626914081633	2.054263588877551	6.508432524077552
O	-5.208881911408163	3.033446758877551	8.271844704077552
O	-2.694577391408163	6.987931038877551	5.3553751040775515
O	-1.5781707714081632	6.8208774488775505	1.731937444077552
O	2.1078472985918366	6.8089790988775505	0.8311818210775518
O	3.011872868591837	9.28556025887755	4.112953644077551
O	-2.9382721414081634	11.69658655887755	5.739097864077552
O	-6.047508181408164	10.84145145887755	3.736363804077552
O	-8.416178421408162	3.592328328877551	-2.3759884859224485
O	-6.201105041408162	0.5904547728775509	-3.0784229359224478
O	-3.8267831114081634	0.3104627018775509	-0.0777674349224482
O	-3.326114061408163	-1.5468446211224491	3.211523924077552
O	-5.389530701408162	-0.38347009812244914	6.224647874077552
O	-3.507530481408163	-2.489507391122449	8.741477004077552
O	-1.882932821408163	-5.84587856112245	9.359300764077553
O	-4.809978711408164	-8.148000631122448	9.920995554077553
O	-5.323975681408163	-11.190403441122449	7.710118384077552
O	-10.239731881408163	-3.820538241122449	2.187401444077552
O	-11.815306471408162	-3.821608371122449	5.643093724077551
O	-7.272520771408162	-2.842208911122449	9.866490194077553
O	-6.619836131408164	-5.3986396411224495	7.115896284077552
O	-3.9551178214081633	-5.89896217112245	4.446389644077552
O	-4.968675231408163	-5.35446211112245	0.8362918102775518
O	-3.825152501408163	-7.84961631112245	-1.8115755559224482
O	-2.4681609814081633	-7.20118292112245	-5.325081925922448
O	-1.4268198014081632	-9.71851288112245	-7.969881255922448
O	1.9984332085918366	-8.71872666112245	-9.287137445922447
O	-10.451483571408163	-9.88430698112245	1.3135216090775517
