110

O	3.479642338487097	-2.8219393507903217	0.7617981139677414
O	4.3258067284870965	0.28467831420967804	1.6167338029677414
O	4.160737138487097	-4.033777930790322	0.9912139129677415
O	5.044367088487097	1.195289149209678	2.336610482967741
O	3.687865238487097	-5.200965270790323	1.7975462529677413
O	3.0556293784870965	-6.112648520790322	0.7859088549677413
O	5.780792588487097	0.14871607020967803	3.2436280029677413
O	6.208621618487097	1.823968079209678	1.7826708629677415
O	2.2624049084870967	-7.021603920790322	1.0869431229677415
O	3.948206768487097	-6.400181900790322	-0.2525831506322586
O	3.0340965784870964	1.907725359209678	-0.6408377480322587
O	2.4639997584870965	-3.230611390790322	1.5631931829677415
O	3.935780988487097	2.669810199209678	-1.4069839470322585
O	5.156279088487097	-1.972359290790322	1.6916000329677414
O	3.638765708487097	1.891000509209678	-2.4640645470322586
O	3.4821567884870968	-0.777889541790322	1.9930268229677413
O	5.836352558487097	0.828487982209678	-0.008103962032258605
O	4.505319218487097	-0.660742771790322	-0.5169744780322586
O	4.234200798487096	-0.629193804790322	-1.8184109070322585
O	3.0012881984870967	2.2680468192096783	0.48714471296774137
O	2.524739128487097	0.740217560209678	-0.7334230850322585
O	5.585326028487097	0.866676368209678	-2.158252887032259
O	3.1487911384870966	-3.9701645807903216	-1.8892737670322586
O	1.5479614984870966	-2.652618430790322	-2.1909274470322586
O	4.746526758487097	3.4756731492096784	-0.8212302720322586
O	2.545607578487097	-3.099981420790322	2.861972712967741
O	3.6045614784870965	-3.021813290790322	3.4522768529677412
O	3.7560782284870964	-1.772141870790322	-2.379773967032259
O	-1.3351640815129033	-4.786399650790322	1.1405092929677414
O	1.5271306084870968	-0.19107184579032196	-0.2435695090322586
O	4.382905938487097	0.691977510209678	-2.2612882570322586
O	2.8163002984870964	-2.739340360790322	-1.7825050870322585
O	4.078424198487097	-1.729667410790322	1.2299185229677414
O	1.1781097394870967	-4.495923290790322	3.931333622967741
O	1.3088450634870967	-3.187538960790322	3.443822372967741
O	-0.04559101751290329	-4.831000380790322	1.1365311929677415
O	5.258643838487097	-0.049328488690321984	0.4704289059677414
O	-0.2554247885129033	-4.552203140790322	3.949963752967741
O	0.6006395595870967	-3.7527484207903217	0.5948225489677414
O	-1.1692334015129033	-3.601262140790322	4.138943562967741
O	0.3438524414870967	-2.378455130790322	0.7486661849677414
O	-2.5153662015129035	-3.9342073007903218	3.9969093829677416
O	-0.8229415415129033	-2.502718700790322	1.4978515229677414
O	-2.964450721512903	-5.175767680790322	3.6684094729677414
O	-1.7622299415129035	-3.5766857807903216	1.3776426629677414
O	-1.9701541715129032	-6.091447640790323	3.611188732967741
O	1.1206729074870967	-1.183929200790322	0.6397997279677414
O	-0.7106808015129034	-5.757006690790322	3.8599199829677415
O	18.062395078487096	1.6040238492096779	-2.2892656670322586
O	17.119033078487096	-1.763118590790322	-0.8700716580322585
O	13.492130378487095	-1.155558930790322	-1.9815905670322584
O	11.537928378487097	-4.280433960790322	-3.051757917032259
O	9.643412898487096	-4.806703450790322	-6.197568977032259
O	6.027264018487097	-3.8184368007903218	-6.329910667032259
O	4.217371948487097	-6.901465440790322	-7.638218377032259
O	0.8345149374870967	-6.067926600790322	-9.134580417032259
O	1.5813461884870967	-2.3821569607903217	-9.922464907032259
O	1.4919486134870967	-3.0644810807903218	-13.616616847032258
O	-2.1401692115129034	-4.152536590790322	-13.18994404703226
O	-2.794881091512903	-0.736190369790322	-11.603664247032258
O	2.612882778487097	4.522123359209678	-7.939147367032259
O	5.567575178487097	3.751594479209678	-5.698458957032258
O	7.010816428487097	3.3853141292096782	-2.280448187032259
O	6.479745098487097	6.406275829209678	-0.029938119032258598
O	6.102870848487097	8.087953879209678	3.3826132129677413
O	4.212135068487097	11.026951619209678	4.6692726629677415
O	7.259803648487097	11.773471919209678	0.05902007996774139
O	-3.594236321512903	10.464829719209678	-7.226877867032258
O	-1.1405814315129033	8.808753619209678	-4.866582707032259
O	-0.6100158115129033	5.128774029209678	-4.152567807032258
O	2.0552797784870966	5.143819719209678	-1.5082026770322585
O	2.4685171584870966	4.684257489209678	2.313286912967741
O	2.094390888487097	7.715996839209677	4.530853122967741
O	3.543140528487097	6.088786459209678	7.627036272967741
O	3.905116598487097	2.869186839209678	9.589843922967741
O	0.6273610254870967	2.544186089209678	11.28772535296774
O	-1.6154074315129032	-0.43949347479032197	10.82005005296774
O	-5.356133431512903	-0.422263494790322	11.03624725296774
O	-6.555509671512903	11.486125619209679	-3.7179626870322586
O	-4.492668291512903	9.556564349209678	-1.1724403030322585
O	-4.7753867715129035	5.7527892792096775	-0.9389208870322585
O	-4.566824011512903	5.761400929209678	2.833721412967741
O	-4.964298451512903	7.764370129209678	5.999995382967741
O	0.4690289304870967	7.923154069209677	8.98666372296774
O	-0.6790380515129033	4.544314489209678	7.697127082967741
O	0.6280037164870967	1.703336649209678	5.371869662967741
O	-1.0876565615129032	1.452579809209678	2.196394272967741
O	-2.3302484415129037	-1.461189420790322	0.5196978009677413
O	-1.763996071512903	-3.8336556707903218	-2.563439767032259
O	-2.1988744615129034	-7.153081220790322	-3.3849444470322587
O	0.5895065022870968	-8.691001210790322	-5.208142527032258
O	-1.6748545215129031	-10.084147780790323	-7.961813847032259
O	-4.671072911512903	-7.7980264607903225	-8.372554217032258
O	-3.042739221512903	-4.475850870790322	-7.727329187032259
O	-3.471512641512903	-1.978874800790322	-4.829656837032259
O	-6.850480691512903	-1.8359932007903221	-3.132454727032259
O	-7.118728121512903	1.871559439209678	-3.7473384770322586
O	-10.660790121512903	-5.182240940790322	1.7771169429677414
O	-8.661398081512903	-6.708066550790322	4.583114382967741
O	-5.2217174515129035	-7.922601980790322	4.471373632967741
O	-3.815869701512903	-11.422949180790322	4.556918812967742
O	-0.29463424751290324	-12.164638480790321	5.770106402967741
O	1.6320639384870967	-15.036737480790322	7.292052802967741
O	3.0826897384870966	-12.346559480790322	9.55880261296774
O	0.39989819348709676	-7.396419170790322	8.585754392967742
O	-5.473382091512903	-5.071329370790322	8.521153392967742
O	-7.718124861512902	-2.4141031807903217	7.070372992967741
O	-7.495410421512903	0.7862950152096779	5.065886202967741
O	-9.413188981512905	4.022653509209678	4.524937122967741
O	-8.498341981512905	6.336789049209678	1.5858680129677414
