26

O	34.98821742590815	35.254191150308564	28.273002427604013
O	35.743905710401734	36.392740584025205	28.62107992565812
O	34.21866714871479	35.3734500115628	27.106196971278678
O	35.43730181307057	33.90761038280316	28.468344220761203
O	36.70874613370174	33.88311359129011	28.179388581220206
O	35.07920488465156	35.929260219406636	26.015955740492853
O	35.65497658620338	37.0133157531257	26.260145431513855
O	35.825376899467415	34.98621506719753	25.300490251553732
O	34.9913934158183	33.10164648261819	29.663296523332377
O	35.795669830235504	33.87988986674945	30.60609666811979
O	35.02066270536598	35.043624274298594	30.899416979834154
O	35.50089288661696	35.95467153960268	31.59319508848794
O	33.74983899658956	35.110793969768935	30.49961340141703
O	32.893169809079744	36.08242069601451	31.132622989301986
O	33.555150333608346	36.320460789786	32.506583854415744
O	32.904191071567475	37.39968117723932	30.484345302068547
O	32.895746251136615	37.39924174281602	29.23868073347589
O	34.04628024314239	38.133920520172616	30.96115352843888
O	34.09529405055626	39.58815193314946	30.765384638617228
O	37.625765135314374	39.767854834912775	28.52907067133287
O	36.377904862515095	39.71052810110157	27.91857960359063
O	35.214486360228776	39.553458187861835	28.677357027425494
O	35.398938084235255	39.56660132151904	30.02951301104077
O	36.51883309640385	38.940615605040946	30.500241988901493
O	37.697897629343124	39.24220620483962	29.813169634514114
O	36.93144918836634	34.560532559825134	30.10573325870795
