73

O	0.0436247440576929	-3.8801052240980765	-4.098909057346154
O	0.8977960740576929	-3.8109724140980763	-5.1381052573461545
O	-2.826047525942307	-1.3621694640980766	-3.2859029373461546
O	0.7687852240576931	-4.553857254098077	-6.313393797346155
O	-0.42970371594230694	-3.2498233940980765	-1.9837861043461544
O	-0.41448789594230706	-5.277921634098077	-6.399155787346155
O	-0.19683636594230713	-1.2181369340980766	-3.1054878673461546
O	-1.224805373942307	-5.437492674098077	-5.307216007346154
O	-0.6659265169423071	-5.108933584098077	-4.072441787346154
O	-3.972297555942307	-2.8306183540980765	-2.0166582813461544
O	0.726203194057693	-3.6903528740980764	-2.7831779573461546
O	-3.841250895942307	-0.14558183109807657	-6.302928417346155
O	-1.7270258999423072	-0.6224633910980766	-5.721709127346155
O	-1.292530949942307	-1.0823683740980767	-1.1811422086461545
O	-2.448411734942307	-1.9286996740980766	-0.7533833723461545
O	-3.299896725942307	-1.7089005140980766	-1.9781334713461545
O	-3.564321875942307	-0.36622479309807654	-3.996936407346155
O	-2.985021705942307	-0.12488688609807658	-5.364687687346155
O	-1.2653228619423071	-4.393135494098077	-1.8608806023461546
O	-0.8361430759423071	-1.9459433240980768	-2.2826443273461545
O	-2.554430535942307	-2.5060180140980766	-4.070108737346154
O	3.658868774057693	8.632512505901923	-1.4128024933461545
O	1.692307554057693	8.767197675901922	-4.660176457346155
O	4.339295384057692	8.422045845901923	-7.389071077346155
O	7.042173574057694	5.759895575901923	-7.328779307346155
O	10.228110684057693	5.3501741359019235	-9.343862467346154
O	9.700321384057693	3.4060647459019235	-12.569154007346155
O	12.586998584057694	1.2025043659019234	-11.446189107346155
O	10.428580484057694	-0.25261382709807656	-8.641793007346154
O	7.517412814057693	-1.1914085640980767	-10.874416567346154
O	5.084966554057694	0.15694362210192342	-8.288479087346154
O	1.9004222140576927	1.8063833659019233	-9.530710467346156
O	0.8085730940576927	5.351859635901923	-8.680854937346155
O	-1.6339679009423071	5.505605195901923	-5.768009897346155
O	-4.519597925942307	7.500324035901923	-7.247310337346154
O	-6.698800265942307	9.128387185901923	-4.627675747346155
O	-3.9826476459423072	9.367490575901924	-1.9864452393461545
O	2.044762484057693	6.773223775901923	6.412453692653846
O	0.24398988405769284	6.5875297159019235	3.0552646826538457
O	1.8842398040576929	4.201246505901923	0.6015984426538454
O	2.3383268040576928	0.7762001379019234	-0.6884658423461545
O	3.332497664057693	-1.8663607540980767	1.8130774726538454
O	3.370090804057693	-5.3935241940980765	3.0599535726538454
O	3.417161244057693	-6.841449534098077	6.561418232653845
O	6.914564864057693	-2.6858200040980766	5.648641042653845
O	6.109924384057694	0.7097534989019234	4.136480792653845
O	7.4177386140576935	1.6739780159019233	0.7062590626538456
O	10.916820284057694	-0.5956731750980765	1.2956563126538454
O	10.920588684057693	-1.4779968240980768	7.861669392653845
O	8.242898784057694	0.03711821970192343	10.082574592653845
O	-0.8232633789423071	3.3293462659019237	8.502030132653845
O	-2.645570785942307	3.0493012659019234	5.1758343926538455
O	-0.904405111942307	0.19683561020192342	3.3843450226538456
O	-1.276834010942307	-3.5112463740980764	2.4289416626538456
O	-0.201872685942307	-6.058788324098077	5.097791572653845
O	-0.37981664594230713	-9.074649944098077	2.8229639426538453
O	-2.309651175942307	-10.680566524098078	-0.015605887346154423
O	-5.309404845942307	-12.147941824098076	1.7974891626538454
O	-8.821763315942308	-11.101785324098078	0.7754940126538454
O	-3.597349785942307	-0.10904281109807656	10.848257592653844
O	-6.008349765942308	0.18085707470192341	7.920173342653845
O	-6.4258875959423065	-3.5767883140980765	7.661160542653846
O	-6.003281225942308	-6.891241984098077	9.472880292653846
O	-1.902284567942307	-10.391914824098077	6.213697862653845
O	-4.681515275942306	-8.652797084098077	4.302996772653845
O	-4.860710165942307	-6.207764974098077	1.4329080226538455
O	-5.974138355942307	-2.6330702240980766	2.209872852653845
O	-8.422867715942306	-0.8512025680980766	-0.1269982073461544
O	-8.302936015942308	2.5768650159019235	-1.7449580023461544
O	-10.812392605942307	4.191904965901923	-4.075233897346155
O	-8.905724595942306	5.832609495901923	-6.917302067346155
O	-14.768201215942307	-3.4594754840980766	-3.187290247346154
O	-11.968400815942307	-4.821034574098077	5.269699882653845
