73

O	1.9881627684107146	-0.6970007879107147	-5.302540795180357
O	1.1240587884107145	-0.6465523189107147	-4.024427585180357
O	0.46803088141071447	0.4289917860892854	-4.262942185180357
O	1.9069719384107144	-0.5377851779107147	-2.8223322551803562
O	2.7863315684107146	0.45629862208928534	-3.7009790651803565
O	3.910413678410715	-0.5505421019107147	-3.9805590551803567
O	4.4811523184107145	-0.34581071791071466	-2.8125211951803566
O	4.165004558410715	-1.8356049269107146	-4.2487252251803564
O	5.360691318410714	-2.5188974769107144	-4.2916217651803565
O	2.5313600684107143	-1.6862775669107146	-2.8701847351803567
O	2.7236046784107146	-2.9144979669107145	-2.2085794591803567
O	3.3289668184107146	-2.5772786769107143	-1.1764317901803565
O	3.1540286484107143	-4.168070116910714	-2.601572845180357
O	3.6065973384107144	-5.3237099169107145	-2.0618946421803566
O	2.9803871384107143	-6.284293936910714	-1.0960509991803566
O	5.029269738410715	-5.448035786910714	-1.5203554481803565
O	3.8103253784107145	-6.320566176910715	-3.2653760251803563
O	-6.026866151589285	-3.8645487269107144	-8.156454425180357
O	-5.371452581589285	-4.123505786910714	-11.902507635180356
O	-3.6946546315892856	-1.3640927269107148	-13.902669735180357
O	2.1501061484107145	-0.6807598309107147	-12.907016635180357
O	1.8569693984107145	-4.171356616910715	-11.231636585180357
O	-1.3359311415892856	-5.822739006910714	-9.846327955180357
O	-2.0079841915892853	-5.284787336910714	-6.115977115180357
O	-2.4331695615892857	-8.708959976910714	-4.6653497451803565
O	-4.272393891589285	-8.660585066910715	-1.4045432880803566
O	-6.1551996115892855	-5.385604756910714	-2.0324804721803567
O	-9.468506581589285	-7.231367586910714	-2.4328450451803567
O	-9.050437501589284	-8.431448136910715	1.1258235948196433
O	-8.708127941589286	-4.7824779269107145	2.1744317148196433
O	-11.748062101589285	-3.6973189369107144	0.16242011481964336
O	-8.282717161589286	5.032039163089285	-1.7747584561803564
O	-6.394377471589285	1.7549249230892854	-2.3347262261803565
O	-3.7690848215892854	2.0056112230892853	-5.0183141851803565
O	-0.2589283365892856	2.9134619130892854	-5.991519605180356
O	0.8635261184107144	6.415550953089285	-5.074193585180357
O	3.4834099084107146	8.980346563089286	-4.147342825180356
O	-0.7414063405892856	11.414023173089285	-5.639324815180357
O	-2.9874187915892856	8.384621983089286	-6.075110165180357
O	-2.8338541615892856	6.284656953089286	-9.222108205180357
O	-8.368408971589286	7.006519013089285	4.095939324819643
O	-5.320477131589286	6.385317233089285	1.9189706348196434
O	-3.349269561589286	3.1691691430892854	1.3626748948196434
O	-0.5158928525892856	4.093149863089286	-0.9735917161803566
O	3.1050216184107144	5.189082493089286	-0.8569484341803566
O	4.124403308410715	8.835606573089285	0.05424745481964344
O	7.7497312784107155	8.410756403089286	-1.0461257571803566
O	10.730188598410715	6.030262663089285	-1.2249881911803566
O	12.062493298410715	6.152877153089285	2.3093120248196435
O	12.367732598410715	2.9922605430892855	4.378155544819643
O	-2.5399081315892857	7.985919283089286	5.735124294819643
O	-1.1029646775892856	4.472136143089285	5.867361544819643
O	2.4299288384107145	5.727308183089286	6.284322474819643
O	7.840678278410715	6.703723213089286	3.1629903048196435
O	6.7863641884107135	3.5108306530892857	1.3860460648196433
O	3.5845079284107144	1.7509785830892852	2.4852856248196433
O	3.4456692084107146	-2.0514224869107145	3.133783004819643
O	0.9027619384107144	-4.675697966910715	1.9483514248196436
O	0.8134164584107144	-8.430904466910714	2.5034032148196435
O	-0.048161210589285575	-10.143366826910714	-0.8242061551803566
O	-2.3855537615892857	-12.449453026910714	1.0927321448196436
O	-3.7770553115892858	-10.620336726910715	4.121654444819644
O	-3.9098526615892855	-7.1051285569107145	2.683514954819643
O	-2.2085967915892857	-3.8970234169107143	3.7569085248196434
O	-1.0128455065892856	-3.5518109369107145	7.356254614819642
O	-2.8353794815892854	-0.23121770391071467	7.615626854819643
O	7.742840248410715	-5.825265916910714	10.049600364819643
O	8.452052248410714	-6.580352996910714	6.423952664819643
O	13.357280098410715	-4.103886306910715	1.7225720748196434
O	8.774407868410714	-0.8085239889107148	9.664986264819643
O	5.780793668410714	1.4666675830892852	9.148639464819643
O	3.948783178410715	4.145587353089286	11.155117964819643
O	0.5618726024107145	5.4705548230892855	9.920863364819644
