22

O	35.96564292323007	39.12919493249986	31.802150797761577
O	36.54637646218725	37.85195313532613	31.444156743164687
O	35.59798022355147	40.16803000759349	30.90803373735159
O	36.28990072830798	39.238947067795586	33.23236736632444
O	35.84444201462733	38.320295783965165	33.917372087103026
O	36.059938104123546	41.51114063313077	30.571126633298924
O	35.67314022052875	42.687493051636736	31.23197523742442
O	36.47493437526343	41.83011436370897	29.259696727121895
O	35.932468656609615	43.96737760755792	30.78564646006805
O	37.13137693036923	43.03433783372492	29.00306358028699
O	36.85573058380704	44.11373243065903	29.790381787056543
O	38.246755659623446	38.30369138733714	31.492222857130436
O	38.399544714837425	38.46341594350282	32.948462348226975
O	38.97968997757201	37.2356944061656	30.79774239399366
O	40.237784885709814	42.08010120425584	30.100954678171597
O	39.51044346023707	42.17738047883074	31.252187360627516
O	39.04128513960694	40.96250175021172	31.74370924252689
O	38.64637674740114	39.911948812326095	30.907657449460366
O	39.23754290906847	39.93553118082049	29.65037212586519
O	40.160930857702134	40.950058308009766	29.340938762610246
O	40.41632753554154	43.37140487043277	29.359588989553995
O	36.19031547404587	40.602668930836586	33.8496272485174
