76

O	-0.7190805485625	4.063437176075	-0.2664131951666673
O	-0.7860117885625	3.8369618760750006	-1.7390446431666673
O	-0.7720019585625	5.314269086075	0.056193132833332715
O	-1.7861669645625	2.9558665160750004	-2.2512440671666676
O	-0.9101407985625001	5.0613645560750005	-2.4522981271666673
O	-1.8407597545624999	5.226307796075	-3.5594414271666674
O	-2.3097002715625	6.392824036075	-3.7469257971666674
O	-2.3238293065624998	4.242307546075001	-4.387854197166668
O	-1.9251398685624999	3.6407338960750004	0.4394152328333327
O	-2.8793933435625	4.075266286075	-0.7390589801666674
O	-2.7911514305625	5.371714466075001	-0.45835392316666734
O	-3.8490650885625	3.1339323160750006	-0.5172076811666674
O	-4.7676374685625	2.5761643760750004	-1.3949322221666673
O	-4.1472964985625005	2.9863610560750002	0.7322267628333328
O	-5.8215902985625	1.6449253394750003	-1.1205176781666673
O	-4.8066177485625	2.8399002360750005	-2.858769997166667
O	-6.1699847885625	2.9962488760750006	-3.3668110171666674
O	-6.7118471185625	4.255159786075001	-3.071311187166667
O	-7.7913104785625	4.794368216075	-3.8039598271666675
O	-8.743889048562501	3.9494207860750006	-4.395322007166667
O	-8.047359168562501	2.9171256760750004	-4.939774697166667
O	-6.7333097385625	2.5978584940750005	-4.567168817166667
O	-6.9098716885625	1.2411700840750004	-2.075442727166667
O	-6.9458478185625	-0.022470353924999742	-2.7137891771666673
O	-8.006728588562499	-0.3493455539249999	-3.5707031471666673
O	-9.2284126285625	0.25681762607500036	-3.5233852371666674
O	-9.3576953085625	1.2057783540750004	-2.568947717166667
O	-8.256813688562499	1.5837224380750003	-1.7978274481666672
O	5.9503283214375005	-4.593478713925	-5.739502337166667
O	6.337230251437499	-1.5575829539249997	-7.996137737166667
O	4.2009685114375	-2.355686913925	-11.033768857166667
O	0.6927826314374999	-3.745560773925	-10.733746657166666
O	-1.5740125095625	-5.397252273925	-13.279727017166667
O	-3.5860873485624998	-2.861090383925	-15.269280717166666
O	-6.6297662085625	-4.938471603925	-14.313051517166667
O	-6.2750704385625	-3.807389783925	-10.665714037166666
O	-5.9920752685625	-0.1173745039249996	-11.479015517166669
O	-3.1199040785625	0.2566570460750004	-8.877200497166667
O	-0.6686080285625	2.9648678960750003	-9.437412387166667
O	2.9971531914374996	2.2016991000750004	-9.814536637166668
O	4.9349438614375	2.815462026075	-6.660120547166668
O	10.7454638514375	5.208230606075	-5.645100677166667
O	10.201166151437501	1.7127842504750004	-4.250926467166668
O	6.836368011437499	-6.078709803925	2.177212912833333
O	6.845671641437501	-3.050005063925	-0.09650118616666736
O	3.4408150214375004	-2.516101373925	-1.7519768721666673
O	-0.12058797856249992	-0.9296883939249996	-1.7063380591666673
O	-2.1757337975625	-1.9161207739249997	1.2313190128333327
O	-4.7502644485625005	-1.3603762539249995	3.876026912833333
O	-4.8657278685625	-2.477871193925	7.6554615828333334
O	-3.7600490585625	-6.136476393925	7.872975852833332
O	-3.5176386485625	-6.418453913924999	4.0460827928333325
O	-0.7921721885624999	-6.249375963925	1.4341266228333325
O	-1.5147892695624998	-6.034885033925	-2.295899377166667
O	-4.9754889485625	-8.355197453925	-1.8426471111666674
O	-3.9792623585625	-11.118641853925	4.220770202833332
O	-0.8363597985625	-10.472270253925	6.2531976328333325
O	5.8918128914375005	-3.3677236439250002	6.187942092833333
O	5.7691896314375	-0.3249467439249998	3.9746742428333324
O	2.0169972914375	0.08343845607500033	2.9304957828333325
O	-1.1362059885625	2.0836799360750002	3.7653420928333325
O	-2.9201069635625	0.9606969150750003	6.908021632833333
O	-5.8949361585624995	3.130674886075	6.415920272833333
O	-7.0257860885625	6.558368786075	5.231429602833333
O	-6.3518768585625	8.747536296075001	8.213202752833332
O	-4.0395372485625	11.724956266075	7.721301962833333
O	2.7654456914375	4.1828382760750005	9.731270682833333
O	0.30594109143750003	4.176667996075	12.613667082833334
O	-2.7524779015625	1.9000407970750004	12.539628382833332
O	-5.4168319885625	3.3601686660750003	10.281355382833333
O	-3.1359789415625	5.906054006075	8.570398942833332
O	-1.9330196755625	6.398006076075	4.932185272833332
O	1.7109876914375	5.739333446075	4.359553002833333
O	3.5560685014375	8.260929696075001	2.259602512833333
O	6.199367371437501	7.638127966075	-0.3304634831666673
O	8.341654451437499	10.169512626075	-2.184097527166667
