13

O	0.26408012953580795	31.323229946686954	8.601587303960768
O	-0.788966716524573	31.223369046239657	9.323651377933796
O	-0.9541367552920565	30.067069624945706	10.139407626376787
O	1.3323976167516243	30.465124628471933	8.425266837404648
O	1.7049170185158422	28.18166807550288	9.12370838752547
O	0.9344603687032267	29.178382451391847	8.762987401622475
O	-0.093206029075944	29.184501796967652	9.712415329284896
O	-0.12172295031086544	27.92236683094644	10.370300729509573
O	0.8434983192360284	27.3081717056581	9.868557928680964
O	2.018362865676102	30.151554294676572	6.827398792451838
O	0.4444934020630955	32.97590379186359	7.826329702449662
O	-2.1109985554246675	32.444644660878765	9.159323829017358
O	-2.626379155694779	30.172015833793434	11.00549001133765
