20

O	-1.7505446451905686	28.28284471355113	9.814600874705523
O	-0.197098403725408	33.104362710585114	8.211103434734511
O	2.5815368383520734	30.059821340354784	6.8961315382065
O	4.670424043822711	27.796159588565118	5.108366605309017
O	-0.47671760931394047	30.367491171721753	9.080593326461884
O	0.5112598104538749	30.74770616246989	8.16013636699147
O	1.572783872460344	29.905092469633043	7.902964998654256
O	1.5632922599062853	28.678121864453384	8.501296220297665
O	0.4182808450852149	28.11422580611566	8.984390399415645
O	-0.5305417622142157	28.99729448700269	9.510795612525683
O	0.6075246754841439	32.10051470726825	7.634356158701609
O	3.8306557506528813	29.34589849707129	6.909782039682524
O	3.9422834472133297	28.02263728902749	6.203719322786413
O	4.883669880165188	26.513738242944356	4.702445375011966
O	4.391053642288043	25.42812810680129	5.3759632307246115
O	3.8710989807380742	25.64244241101659	6.643214109780225
O	3.8560925709362426	26.941468381835342	7.090905348429834
O	1.5575125715866323	32.469711567603795	6.917014523273408
O	-2.830595849659672	29.14586494013177	9.979625745472575
O	-1.8778177113579755	27.37231942537302	10.629390612145073
