73

O	0.4462324496326531	2.633147755277551	0.7732205129163252
O	4.039316741632653	1.477478318277551	-0.9306403260836749
O	1.6672967716326532	-1.331576204722449	-1.2425019460836748
O	2.1997995916326527	-0.057752774722448885	-0.9707307790836748
O	3.336445681632653	2.7600195752775507	-0.7751535570836747
O	-1.052042947367347	2.6723901752775507	1.1433114729163252
O	-1.584588598367347	1.6122890562775511	1.832464402916325
O	3.547985211632653	3.2520730852775515	0.6275403129163253
O	1.619603141632653	0.285455439277551	0.1637385619163252
O	0.5458920836326531	0.16384078527755097	0.9917912429163251
O	4.780193221632653	2.7097070452775514	1.1097188329163252
O	-0.2531103818673469	1.701213698277551	2.9722133229163252
O	-0.4154170203673469	-0.495428234722449	0.14468364891632524
O	0.7531288166326531	1.567363122277551	1.5654049929163252
O	5.670722691632653	2.946761855277551	-0.10556202008367477
O	0.3309501366326531	-1.3775841347224491	-0.7898110790836748
O	0.2511858006326531	1.8496501912775511	-0.5422677009836748
O	5.526249421632653	1.640315844277551	-0.8867006080836748
O	3.519207571632653	0.260080914277551	-1.2372813790836747
O	3.445380221632653	4.638976435277551	0.8878107429163251
O	4.682828111632653	5.118402325277551	1.0238074529163252
O	2.586996671632653	4.777943145277551	1.8753884829163252
O	-2.368874028367347	0.469516267277551	2.042937962916325
O	-0.820196073367347	0.876117476277551	-0.19057729708367477
O	8.895341711632652	-6.4681386347224485	8.581373102916324
O	10.567696341632653	-1.1176867447224488	6.713496902916325
O	7.876885461632653	1.373641641277551	7.694186612916325
O	5.938671081632654	2.290615235277551	4.838134452916325
O	3.9453588616326525	5.066078135277551	6.615304922916325
O	1.010447541632653	5.816187145277551	8.812686722916325
O	-5.700938668367346	4.120327075277551	10.445952782916326
O	-2.568370538367347	2.4391001952775513	11.720848582916325
O	1.0578849516326532	1.897085964277551	10.822475782916325
O	1.9991227216326533	0.1614120152775511	7.579074472916326
O	5.074439471632654	-1.9125387547224488	6.876066842916325
O	6.630890871632653	-3.4901544847224484	3.8244491629163253
O	6.918582711632653	-7.117521974722449	4.866041542916325
O	5.798737121632653	-12.81282628472245	-1.0239636300836747
O	6.447877171632653	-9.09686208472245	-0.4276110979836748
O	3.387628201632653	-7.331735874722448	0.9398595729163253
O	2.173254171632653	-4.212161894722449	2.6865443729163254
O	1.1817010916326531	-5.030116984722449	6.252226702916325
O	-1.2041460783673468	-2.6373253447224494	7.961478332916324
O	-13.664148158367347	-6.023101414722449	0.9997669029163252
O	-8.008781818367346	-1.6960362247224492	-6.5744693170836745
O	-5.060513008367346	-2.713891204722449	-4.349485777083675
O	-5.804950068367346	-6.356815204722449	-3.5582125970836747
O	-6.543165868367347	-7.2551294247224485	0.058301131916325244
O	-4.670667688367347	-10.54600208472245	0.33425272691632524
O	-2.208264718367347	-7.78774012472245	4.2593210529163255
O	-2.238776568367347	-5.877813834722449	0.9601936729163252
O	-0.5681343293673469	-6.518063774722449	-2.4207030570836747
O	2.5915677116326528	-4.340314974722449	-2.4827204970836747
O	6.307329221632654	0.690896768277551	-4.670850557083675
O	5.191683511632653	4.214224655277551	-5.063815337083675
O	2.2334044616326527	6.503668845277551	-4.466898547083675
O	0.9625141916326532	9.36130014527755	-6.557961927083674
O	2.021231941632653	11.990361415277551	-4.019726597083675
O	5.623763451632653	10.95737839527755	-4.421780587083674
O	-2.636605018367347	11.204045985277551	-3.675376087083675
O	-1.1830250783673468	9.24737870527755	-0.7668142760836748
O	-3.5648874683673473	6.303459615277551	-1.2564662400836748
O	-3.321614298367347	6.161710275277551	-5.094341357083675
O	-0.49356548036734693	3.6607898452775514	-5.868668077083675
O	1.415414401632653	3.184274685277551	-9.066515767083676
O	3.667925351632653	0.5755076012775511	-10.619262817083676
O	-1.094744725367347	1.0414970932775511	-13.662458717083673
O	-2.575134228367347	3.042374645277551	-10.802226017083676
O	-4.662606758367347	1.576047322277551	-7.974463617083675
O	-7.007882188367347	2.6733300152775508	-5.176860567083675
O	-5.6908275783673465	1.7874212112775512	-1.6502521370836747
O	-7.478314538367346	1.804135988277551	1.7063994829163254
O	-10.969288858367348	1.197726708677551	0.10346936291632525
