83

O	-0.23874984998039217	-0.7213731544901959	-0.9531737624313733
O	0.7216593730196078	-0.34948205449019587	-0.1804191324313733
O	0.45955650301960793	0.5047631585098041	0.9291667475686265
O	-0.7103308139803921	1.091862686509804	0.9545412975686265
O	-1.2746738109803921	1.0711387825098042	-0.3731381324313734
O	-1.3203125329803922	-0.1446080254901959	-1.3053706204313733
O	-1.7406925299803921	1.8251330255098042	1.504628227568627
O	-2.6530584669803923	2.1581750455098043	0.6998859275686269
O	-2.502722736980392	1.6514987025098042	-0.5039515894313733
O	-2.7997411469803923	1.8561003055098042	-1.9677753164313732
O	-1.994697696980392	2.633224765509804	-2.5671063924313735
O	-0.6981872079803921	2.0704185755098043	-2.7315476524313733
O	-1.1162759169803922	0.9030894735098042	-3.1682008024313735
O	-2.507992286980392	0.9935695385098041	-2.9146082824313733
O	0.5978765830196079	2.1561156755098043	-2.813640542431373
O	1.410646153019608	1.3528817635098043	-3.5329528324313735
O	0.9006594430196079	0.2474619365098042	-4.157745802431373
O	-0.3748018949803922	0.05992528050980417	-3.906494662431373
O	1.3768145830196077	-0.5361416144901959	-1.4050137765313733
O	-1.2628324499803922	0.03370944150980415	-5.103574982431374
O	-2.748319666980392	-0.06720092249019582	-4.983182312431373
O	-3.3905102669803924	1.2972247685098042	-5.210699052431373
O	-3.474987616980392	1.1072130935098041	-6.620006882431373
O	-2.204124966980392	0.7989490593098041	-7.139927302431373
O	-1.2491142369803923	1.0745522795098041	-6.083339612431374
O	-4.105872986980392	2.3050482455098043	-6.892163762431373
O	1.8910358730196077	-1.476627724490196	-2.1395326634313734
O	3.2937832530196074	-1.583111414490196	-2.2375917974313735
O	3.9617823630196076	-1.132800924490196	-1.0972744014313733
O	3.6432288730196074	0.15697820850980415	-0.9506423384313734
O	2.2693239430196077	0.42647421550980413	-1.1320570254313733
O	4.616695383019608	-1.869248094490196	-0.1017950024313734
O	-0.18610332198039214	11.348976335509803	-6.897821682431373
O	1.9749442630196077	8.435267225509804	-7.891180042431373
O	0.4419490630196078	5.206043885509804	-6.682867292431373
O	2.871088543019608	3.005833025509804	-8.458467822431373
O	6.334519823019607	1.527657266509804	-8.321615192431373
O	11.429113733019607	-1.339792064490196	-4.318280042431374
O	10.793797133019607	2.320609945509804	-4.826934252431373
O	8.127205813019607	4.749988575509804	-5.927332312431373
O	4.851749993019608	5.001490765509804	-3.9235997724313734
O	2.8048509530196077	8.137773405509805	-3.581975522431373
O	-0.5762115559803922	8.802337215509803	-2.1358227304313733
O	0.2394732830196079	11.621130535509804	0.29201339756862676
O	-3.9900039069803923	10.349268355509803	3.8201447775686264
O	-1.2605918799803921	7.740287425509804	3.4815451175686265
O	0.7232399730196079	5.627037285509804	0.9721078375686267
O	4.270487673019607	7.024274485509804	1.0358903075686268
O	6.996984943019608	4.766959045509804	-0.21839556243137337
O	7.654931473019607	-4.847983014490196	10.856483957568626
O	-5.304662726980392	-8.238454594490197	7.162826547568626
O	-1.8449682199803923	-6.655022354490196	7.006533927568627
O	-1.5009500159803921	-3.104156314490196	5.709713097568627
O	-0.3314994869803921	-1.122174444490196	8.734935857568626
O	3.147832683019608	0.3992544135098041	8.552160967568627
O	2.4689288230196076	3.744932585509804	10.264034357568626
O	5.960056423019608	5.182684505509804	10.371074357568627
O	7.8309976230196074	4.0608820055098045	4.6679110475686265
O	4.425394193019608	5.446628095509804	5.530855667568627
O	1.5848613730196077	2.973271525509804	5.109764977568627
O	-2.1290931669803923	3.131282865509804	5.9714419675686266
O	-3.965205106980392	4.099148865509804	2.6954003375686266
O	-7.482994906980392	2.564796495509804	-2.8540428524313732
O	-7.237061486980393	-0.4783175644901959	-4.759211622431373
O	-5.378095296980392	-3.597180514490196	-5.289834962431373
O	-6.5679930369803925	-7.046057534490196	-6.289503032431373
O	-4.9785289669803925	-6.864918334490196	-9.743315462431374
O	-7.075280816980392	-3.880821994490196	-10.628306282431373
O	-2.1844804769803923	-9.312946064490196	-6.859042822431373
O	-0.5556987719803921	-5.855906074490196	-6.961809532431373
O	0.20293530301960783	-5.773732824490196	-3.2943794324313735
O	-3.044961206980392	-7.308576914490196	-2.060485474431373
O	-5.1244605469803926	-4.235588414490196	-1.1668414664313733
O	-8.910504276980392	-4.075369894490196	-0.8127363344313733
O	-11.411953866980392	-1.6113867144901959	0.5857885775686267
O	-11.540916366980392	-6.453764824490196	3.6034167775686266
O	-8.325225066980392	-7.4454064944901965	1.8414394875686266
O	-4.831276636980392	-6.813030564490196	3.167850777568627
O	-1.2472676669803922	-7.972871414490196	2.570946287568627
O	1.1221870930196078	-5.114440354490196	1.5607813675686266
O	4.843463773019608	-4.739699514490196	1.2264960575686268
O	5.366898303019608	-7.530368624490196	3.918433297568627
O	10.518096533019607	-5.849848714490196	3.193810367568627
