79

O	-1.0068173637254905	0.12280744840980419	-0.04796996145097987
O	-1.0371597747254904	-3.606380202490196	-0.010501313450979877
O	-1.4320513817254903	-1.069158142490196	0.14166273654902012
O	-0.6613565937254904	-3.173567262490196	-1.60127443145098
O	-1.4580658487254903	0.9840899955098041	0.9503450185490201
O	-2.6035889257254903	1.2596711875098041	3.01144429854902
O	-2.3804440157254905	0.5474649835098042	2.0125641685490203
O	-0.5089400767254904	1.7751864975098042	1.5473407885490202
O	-1.1960564387254904	-1.2594225524901959	3.2622592385490203
O	2.0343825342745094	-1.798769692490196	-3.31630817145098
O	-0.1093469857254904	-1.2417116724901958	2.3359861285490204
O	1.5407775242745094	0.2734899585098042	-4.84075129145098
O	-0.050523529725490346	-2.413401722490196	1.58565113854902
O	-1.2850164157254904	-2.1223593324901957	-2.36867267145098
O	-1.3050154317254905	-2.869945172490196	1.29346300854902
O	-1.2872172097254904	-4.229181922490195	-2.5140084814509795
O	-2.0342653457254904	-1.6311006224901958	1.22287424854902
O	-2.25697719572549	-0.8440296294901959	2.3727876685490203
O	0.0407971182745096	0.31320258250980415	-0.9987486394509799
O	-0.2466315967254904	1.1022961345098041	-2.03612135145098
O	0.7598823642745096	1.4816981775098041	-2.9330523114509797
O	1.4075813842745095	0.4225717555098042	-3.47895315145098
O	1.5425303242745096	-0.6841241134901959	-2.6667819514509796
O	1.0943893442745096	-0.5427435444901958	-1.3466428034509799
O	1.1420683042745097	-0.5650707034901958	1.82345514854902
O	0.7823485742745095	-4.970620832490195	-1.1186483924509798
O	0.10912197027450965	-4.4626074924901955	0.0626574825490201
O	0.9572964442745096	-3.7761466024901957	-1.9343370214509799
O	-12.484833775725491	-3.8527277524901957	3.4204270885490202
O	-9.71215645572549	-5.8621590424901955	1.7918962485490202
O	-6.26117525572549	-4.542589352490196	2.7998900685490202
O	-4.52392906572549	-7.385669562490196	1.11006993854902
O	-3.4393431357254904	-8.960842872490195	-2.21193885145098
O	0.007734065274509594	-7.062828242490196	-8.38978869145098
O	-3.7325854157254903	-7.038200672490196	-7.69347246145098
O	-6.234438805725491	-6.790765322490196	-4.80029533145098
O	-6.167159485725491	-3.728418252490196	-2.5102246314509795
O	-9.05891919572549	-2.258281292490196	-0.6007617784509799
O	-9.56247937572549	0.44428255750980417	1.9941322585490202
O	-7.78684410572549	5.807679347509804	0.57578832854902
O	-6.17304390572549	2.511539567509804	-0.4242215174509799
O	-7.575812375725491	1.329472707509804	-3.73239072145098
O	-5.43314817572549	-1.081194132490196	-5.7402534814509805
O	-7.03120531572549	-2.9059991324901957	-8.70205207145098
O	6.92718929427451	7.4697811575098045	-0.1907175554509799
O	3.271725804274509	6.601785917509805	-0.07568491745097988
O	1.6006726042745094	9.204697877509805	-2.28746099145098
O	-0.04035467472549037	7.919742777509804	-5.47736633145098
O	-3.1486900757254905	10.138657477509804	-5.50949239145098
O	-4.6926257857254905	9.124283567509805	-8.80391102145098
O	-4.310952255725491	3.028533327509804	-8.34486961145098
O	-5.52605636572549	5.291376697509804	-5.58932371145098
O	-3.0157542657254903	5.733848437509804	-2.8075528714509796
O	-2.8775815457254903	7.791655757509805	0.4112008455490201
O	-3.9845143057254906	5.359109467509804	3.21165623854902
O	-3.2738483957254902	2.0606955875098043	8.937565378549019
O	-0.5115775957254904	-0.47144101449019576	9.47570997854902
O	2.4480668642745096	-2.113893122490196	7.79278215854902
O	5.824519994274509	-2.9903141524901957	9.36062594854902
O	5.13525759427451	-6.724350162490196	9.17181047854902
O	2.1510493842745095	-6.3265662524901956	11.42475607854902
O	9.55014152427451	-6.125523302490196	2.1871586385490205
O	8.00835904427451	-5.458927342490195	5.6137114685490195
O	4.586705384274509	-5.7668508624901955	4.00093511854902
O	5.175069154274509	-2.6705806824901956	1.7934742285490202
O	6.661513114274509	-0.4500889604901958	4.50486236854902
O	3.7450914242745093	1.4888058275098042	6.03971834854902
O	3.638049454274509	3.304633497509804	9.30506554854902
O	1.4503413742745095	5.885505217509804	10.96327337854902
O	7.328438854274509	5.125760567509805	7.847262878549019
O	6.80429775427451	5.098595257509805	4.073321708549019
O	7.77301489427451	3.0683799875098043	1.01732002854902
O	4.86679913427451	1.602564147509804	-0.8297893414509798
O	4.615434884274509	-0.008739725490195804	-4.28950174145098
O	7.354540854274509	1.9990126575098042	-5.71577579145098
O	8.59016941427451	1.3337027275098041	-9.282431371450981
O	5.3993873042745095	-0.41649995249019583	-10.30236593145098
O	7.650959684274509	-3.4372290324901957	-10.79243642145098
O	5.994500254274509	-14.293421922490195	-3.72033521145098
