69

O	3.467366917734694	-3.487642454154694	-0.25266677257347014
O	0.6306089177346939	-0.046523943154693936	1.5214184964265298
O	-0.9384430692653061	-0.028440600154693962	0.27157352742652985
O	-0.5278895088653062	0.552629708845306	1.25467799642653
O	4.114193527734694	-0.6660139941546941	2.79607554642653
O	4.462808507734694	-1.9518699741546939	2.3581763864265297
O	4.795899757734694	-0.20533081015469395	3.88432213642653
O	2.966059367734694	-0.10354930315469396	2.15340319642653
O	5.671968137734694	-2.539647304154694	2.72330488642653
O	5.549096697734694	-1.1470015841546939	4.58288906642653
O	2.893573307734694	-0.18721411015469397	0.9026654734265298
O	1.6607055977346936	0.23160296284530607	2.51295746642653
O	6.211768597734694	-2.1636092941546936	3.95168716642653
O	-0.40064377666530615	-1.242276594154694	-0.024676595073470156
O	0.46908198773469384	-1.278046614154694	1.01427778642653
O	1.2591592377346938	-2.3936946241546937	0.8979098174265299
O	1.4809555677346937	-2.4629703241546936	-0.4537349995734702
O	0.2668985607346938	-2.078704164154694	-0.9527319835734702
O	2.252409207734694	-3.691191044154694	-0.5545563515734702
O	1.4298759077346939	-4.663341454154693	-1.20967236357347
O	-3.810325702265306	-5.328154564154694	12.66114584642653
O	1.9703010777346937	-5.210616934154694	11.51342784642653
O	2.638864977734694	-7.358269984154694	8.44350529642653
O	3.3773834477346942	-5.2223034541546935	5.49910044642653
O	4.360853957734694	-8.060527774154695	3.23511376642653
O	3.058465837734694	-10.953194054154693	1.1385341264265298
O	-0.7864683872653062	-11.373107754154693	3.23357531642653
O	-1.0391576752653062	-7.598797074154694	3.71426650642653
O	-1.214051967265306	-5.832314054154693	7.04961068642653
O	-1.1489355772653063	-2.2595091941546936	8.20157787642653
O	-4.378367472265306	-1.9324974441546938	10.16567844642653
O	-8.415254932265306	5.2936442258453065	9.72750401642653
O	-5.083565762265306	3.587406735845306	9.04686566642653
O	-5.200122742265306	1.278028776845306	6.03720937642653
O	-3.425045282265306	-1.561607084154694	4.19535746642653
O	-5.496034452265306	-4.7316728141546935	4.68293819642653
O	-5.011155862265306	-7.498389394154694	2.15723152642653
O	-11.827727412265306	-1.7712946041546942	-9.48705384357347
O	-1.8720670922653062	7.8521168158453065	-9.06751626357347
O	-3.750726452265306	4.640870325845306	-8.29143904357347
O	-3.851293972265306	3.3910354658453064	-4.70507256357347
O	-7.478494882265306	3.729289645845306	-3.70489846357347
O	-9.447129572265306	0.5700316258453061	-2.99563083357347
O	-11.486507212265305	1.711399125845306	-0.0010404666734701584
O	-8.968007732265306	-2.479253804154694	2.24277383642653
O	-6.5813680122653055	-0.05429436815469396	0.5497088154265298
O	-5.481983562265306	3.5078854458453064	1.27697510642653
O	-2.1493825922653063	3.224549505845306	3.13989170642653
O	4.393886597734694	4.109016515845306	3.93026968642653
O	6.934015297734694	3.2225152658453062	1.42750157642653
O	7.404250787734694	1.484962485845306	-1.86058000357347
O	9.801571587734694	2.311649615845306	-4.63400903357347
O	11.929108587734694	-0.8072164441546941	-4.02057518357347
O	12.793079087734695	0.43256184242530604	-0.5944454505734702
O	9.064191667734693	-1.473097404154694	-7.74434227357347
O	7.393366637734694	-3.337706284154694	-4.90017189357347
O	3.9161027177346943	-2.1236720341546937	-5.90818833357347
O	4.738440817734694	1.443911725845306	-6.71594237357347
O	4.037980457734694	3.424167755845306	-3.5340325835734703
O	5.296168737734694	6.812288265845306	-2.57312686357347
O	4.405040557734694	9.432272105845307	0.001092262626529842
O	3.353583007734694	11.414756145845306	-5.2112008435734705
O	3.740433017734694	7.872982895845306	-6.50260418357347
O	0.8779058977346939	5.396752075845306	-6.97537065357347
O	0.1267704307346938	2.066273835845306	-8.68239960357347
O	-0.8640997062653062	-0.711552174154694	-6.17981826357347
O	-2.4601961122653058	-4.110112514154694	-6.78274145357347
O	-4.149664952265306	-2.977070414154694	-10.09149855357347
O	9.765369887734694	6.555863395845306	7.89284362642653
