27

O	0.9647457292746502	30.06748684562261	8.169902877992723
O	1.542854396692636	30.856691573910837	7.429472871310092
O	2.9124610236383788	30.598193832129585	7.318173382606032
O	1.1806630089835108	32.236253041506856	7.289833092317464
O	0.2755888863462319	32.67204377850675	8.075199095461905
O	-0.412955003398392	31.720163114877593	8.913311500023712
O	0.18498250769617597	30.411434451258973	9.070666881892347
O	-0.6480527186684975	29.39244696637945	9.47587463468395
O	-1.508484633719859	32.24506879268401	9.299290780154708
O	-1.414777248099079	33.60885517484336	8.992747297447105
O	-0.44894534483195736	33.86770881697644	8.15678879605107
O	-0.22874970418934648	28.083214519603118	9.190329097791924
O	0.36314109155725727	27.52861833405634	10.38747016726152
O	0.23841460601844133	26.081981044151743	10.674960898384722
O	-0.4839585582969286	25.753787654960963	11.938627514439764
O	-1.7785865504912057	26.451656867330776	12.153744123473107
O	-1.7587281747242116	27.841877727337984	11.528931137608009
O	-0.2741974432512104	28.19364375695928	11.54959322671394
O	3.40957209000603	29.280777112107423	7.304749705585996
O	3.507802835119943	28.41415359238709	8.353596141828703
O	4.323940688155927	27.304716216061294	8.13654972491366
O	5.214398182700531	27.277984258800107	7.06738229564823
O	5.098072701901673	28.20455109908118	6.077984453182519
O	4.003552160269319	28.998056502851526	6.11744636818119
O	6.020782097563508	26.081476382026636	6.779369550289739
O	6.632538053901898	26.036195940491726	5.677162142731917
O	5.219938961380976	24.93209813474352	6.917457376543526
