71

O	1.3254807577169814	-3.2590629961320756	0.1360743519999999
O	1.7758089677169815	-2.0594351061320757	0.38145502999999986
O	-0.9675847822830188	-5.113723196132075	-0.7295824390000001
O	0.7394310777169812	-1.1442152761320754	0.5615634399999999
O	-0.33986640028301873	-1.7472473361320753	0.14281500099999989
O	-0.002069094283018713	-3.0938068161320755	-0.1925545610000001
O	0.4455643597169813	0.20047607886792462	1.187935434
O	-0.9218763742830187	-0.01042137413207539	1.634453484
O	-2.110927792283019	-0.5788379061320753	1.0897416039999999
O	-1.6955028422830187	-1.1878490961320756	-0.1128051990000001
O	-2.9802655622830185	0.6146573118679246	0.8458566179999999
O	-1.1410497112830187	-3.955068186132076	0.012312890099999897
O	-1.8622667022830188	-5.851147226132076	-1.561219326
O	-2.7322510222830187	1.5847873838679245	1.999899274
O	-2.081927662283019	1.2911805208679246	-0.1495831520000001
O	-4.386425162283019	0.37874091076792465	0.49679331299999985
O	-4.4883243122830185	-1.0791052861320756	0.0557086493999999
O	-2.2267207422830184	-3.3226108361320756	-0.2036392520000001
O	-3.520394272283019	-11.242264296132076	7.1503534239999995
O	-5.974257602283019	-8.476701576132076	6.259100763999999
O	-5.024654442283018	-6.742965256132075	3.095679314
O	-8.117103762283019	-4.616773996132076	2.890534324
O	-9.953786602283019	-1.6052203861320753	4.284142374
O	-9.222308952283019	5.322650153867925	6.350609884
O	-8.70008740228302	2.1878318738679248	8.420421264
O	-7.869712132283018	-1.5015366261320753	8.125525264
O	-4.620638972283018	-2.6154096361320756	6.432963964
O	-2.7013942222830183	-5.761785526132075	7.315549984
O	0.2864775987169813	-7.599057606132076	5.985242973999999
O	2.6521033577169817	-7.759510646132075	8.876675874
O	7.346417597716981	-7.683178006132076	5.663358553999999
O	5.213137927716981	-4.554478186132076	5.525820484
O	1.6975807777169811	-3.1938121961320753	5.030474244
O	0.3924224527169813	-1.9595474761320757	8.374001414
O	-2.429826932283019	0.5360959498679246	8.316404184
O	4.877484247716981	12.502584803867924	3.8036718439999997
O	6.665999017716982	5.382729823867924	-7.945007306
O	5.3201824677169816	6.2739827938679245	-4.510324636
O	4.796130397716982	3.5363321838679247	-1.938095366
O	7.357400967716981	4.322246703867925	0.7452378559999999
O	6.0708271077169815	5.302484443867924	4.169727883999999
O	8.568226717716982	3.4739392138679244	6.3952973239999995
O	7.385972907716981	4.6343192538679245	9.802564044
O	1.3355288877169813	3.7527569438679245	9.296217114
O	3.9648411777169814	1.2611815628679246	8.202189753999999
O	4.369898327716982	1.0771289178679246	4.444771974
O	6.585320457716982	-0.8330086561320754	2.055966044
O	4.736653167716981	-3.986942206132076	0.9699341349999999
O	1.8611668377169812	-7.999016786132076	-3.5234310960000004
O	-0.8260296932830187	-6.870044916132075	-5.975030856
O	-2.9477998122830185	-3.8232670561320754	-6.834043116
O	-4.0518537422830185	-2.7104828661320757	-10.260370116
O	-7.698202842283019	-3.6111193361320755	-9.617486466
O	-6.780250012283019	-7.216415686132075	-9.180017216
O	5.310874617716982	5.7513186738679245	-14.287309016
O	-7.091115462283018	1.0528267468679247	-9.127958916
O	-7.162553512283019	-0.2721880571320754	-5.546105096000001
O	-4.433422542283019	2.0971299038679247	-4.470922886
O	-2.1079168822830185	1.6347542638679244	-7.437085716
O	0.27333196971698126	-1.1708717661320756	-6.459415206
O	2.4199155377169816	-3.2737953461320757	-8.771890096
O	5.390447437716982	-5.602851336132075	-8.434095896
O	6.878559087716981	-1.0713777261320754	-11.477142716
O	3.649820557716981	0.5793942278679246	-10.360682216
O	3.325327387716981	2.8293866738679245	-7.311069836000001
O	0.9275745177169812	5.387159733867924	-5.860586746
O	-0.3921274372830187	4.485505813867925	-2.4326513660000004
O	-2.2197603722830186	6.403488923867925	0.28680674499999986
O	-0.6891937132830187	9.739860963867924	-0.911648246
O	-1.8083803122830187	13.016810603867924	0.713638378
O	-3.316851882283019	11.209722003867924	3.6894887439999997
