28

O	-1.0298649321993838	30.927582959026033	9.388316207029122
O	-1.2397711544528733	27.331257333204043	10.353482756402153
O	-1.0136213217187533	29.653448175805348	9.270489217716412
O	-2.680615896685918	28.029723110807133	10.89682994847119
O	-0.09929797085366654	31.524462032869803	8.539878747869366
O	1.6790879262215153	31.25923548161739	6.989621726296795
O	0.7082914419102619	30.748866553688668	7.582808531137909
O	0.7382214714694824	32.4504813105372	9.109200130805398
O	2.065433650368796	29.158980448308927	8.946546580114736
O	-3.6808618721929216	30.226442469982224	13.401296075124518
O	1.3988423958578176	29.55674971909292	10.145157731176019
O	-5.139416055997097	32.276141882900546	12.671101030794107
O	0.6051525845585348	28.53429759201891	10.658936380736925
O	-3.4953628735708495	28.975769115295353	10.172900348664829
O	0.020162836630812198	27.81755985742528	9.65313830365414
O	-3.772943965168377	26.967494238416524	10.764178221903583
O	-0.12643718411712623	28.834932143894203	8.645673121221643
O	0.9964160986728143	29.399438361044016	8.003866744052026
O	-1.7176684862372094	31.48449458371168	10.50836183907607
O	-2.73968244909729	32.29444043374829	10.223930435492944
O	-3.3717439297000693	33.01638295591158	11.244125853223162
O	-3.831829268253138	32.224600185783345	12.244461822573838
O	-3.0825850845728926	31.098123716969617	12.513335286137085
O	-1.8841048748698666	30.965642430975166	11.79941647482887
O	1.2133059432248465	30.57978515659183	11.243131297706926
O	-2.0141686037495314	26.604957507635444	12.649686194954928
O	-0.9759843261422769	26.78525518148459	11.651457093598664
O	-2.6942603208230933	27.89344421627723	12.650486727853817
