65

O	1.836721581217021	-0.8517207672978726	-0.9838278140425534
O	0.9304747312170212	-0.5203101872978726	0.4532736579574467
O	-0.6563176855829789	-0.7332774672978726	-0.17441165804255332
O	-0.3967389087829789	-0.6419432072978726	-1.4760102440425533
O	0.8175983312170212	-1.0030095872978726	-1.8416886440425533
O	3.285844541217021	-0.7189547272978727	-0.8215193240425533
O	3.5200458712170213	0.7365516187021275	-0.3522396080425534
O	3.755464081217021	-1.2844174172978726	0.5353996859574466
O	-1.742485618782979	-0.3065005972978725	0.6197288669574467
O	-1.654761328782979	0.06894217270212732	2.0022335459574467
O	-0.5026982663829789	0.41619442270212736	2.4031849259574463
O	-2.799105838782979	0.4593234747021274	2.8354725959574463
O	-2.873513208782979	-0.03291343729787255	4.207506455957446
O	-2.096085648782979	0.3146931477021274	5.292236915957447
O	-2.306569168782979	-0.1595867072978725	6.5819496459574465
O	-3.0361382787829787	-1.3403115272978727	6.663836755957447
O	-4.035139708782979	-1.4126803372978727	5.7441913559574465
O	-4.073243488782978	-0.5996924472978726	4.624803335957447
O	-0.877124995782979	-13.454131457297873	3.1605200959574464
O	-4.043291898782979	-11.816322057297873	4.3886129859574465
O	-2.690902578782979	-9.317065257297871	6.9511124159574464
O	0.27343797221702104	-7.097334067297872	7.878160745957447
O	0.02440493021702106	-3.722332697297873	6.1644390459574465
O	2.997966011217021	-2.2449879472978727	7.965698065957447
O	6.778339041217022	-2.1106088972978725	8.231422595957447
O	7.507920341217021	-5.993611037297873	6.356856385957447
O	4.566817791217021	-5.573559257297873	4.021803375957447
O	1.493516101217021	-7.734365557297872	3.719881585957447
O	-1.795657968782979	-7.620789517297872	1.8984149059574467
O	-1.7762850187829788	-10.879944757297872	-0.10340640104255333
O	-5.268843728782979	-10.630837857297871	-7.615961434042553
O	-4.966354958782979	-8.750346437297873	-4.312374874042553
O	-1.554788395782979	-7.1630139472978716	-3.883342154042553
O	0.8588690312170211	-5.594998817297872	-1.3862505640425533
O	3.7376174712170207	-8.047273257297872	-0.7832021740425534
O	6.965155661217022	-6.560519717297872	0.5789522459574467
O	3.243602841217021	5.831513102702127	-9.052674164042553
O	2.242308681217021	2.6162420827021275	-7.2804405840425535
O	5.567194891217021	-2.6163953072978727	-9.186013444042555
O	4.796528981217021	-7.315624137297872	-5.425479544042553
O	2.9737415612170213	-3.9790480772978722	-5.6464469440425535
O	-0.4693419069829789	-2.9261365972978726	-6.827380184042553
O	-2.657711248782979	-2.6570693772978724	-3.705466944042553
O	-6.620307208782979	0.6290604507021273	0.49658790895744664
O	-5.439642858782978	3.7265714427021273	2.3935991359574462
O	-2.450338988782979	5.966595802702127	2.9539112159574463
O	-2.416701498782979	9.795541132702128	3.334353025957447
O	-1.3948399407829788	9.572551942702129	7.0000933159574465
O	-4.5584740887829795	7.710464662702128	7.804740675957447
O	-6.667196248782979	10.067527272702128	5.657510825957447
O	2.371743241217021	10.614883622702127	4.323490985957447
O	2.796761161217021	6.930671272702128	5.038634335957447
O	3.9790915112170215	6.1549686227021265	1.5253355859574467
O	1.439662161217021	8.318145302702128	-0.34479526004255334
O	-1.500121971782979	6.020102602702128	-1.1656097740425533
O	-5.037735798782979	6.996986742702127	-2.1196096940425537
O	-8.03745575878298	5.305915262702127	-3.7123462140425536
O	-6.17232718878298	9.401972022702127	-7.127883124042553
O	-3.023737428782979	9.548611542702128	-5.007800464042553
O	0.15889441121702108	7.612099722702128	-5.731781484042553
O	3.8383182112170213	7.591871142702127	-4.752261114042553
O	4.967734561217021	4.339594002702127	-3.0894267540425533
O	8.434254871217021	2.9140848727021273	-2.3600270440425533
O	10.04133402121702	4.884689712702127	-5.273777984042553
O	-12.636033778782979	1.2556516977021275	4.049626855957447
