28

O	1.0053030404588879	30.108953480813774	8.01520538981352
O	1.6609559705606962	30.901162538668526	7.3495981117966735
O	3.019869771358659	30.538805447305982	7.3113200525447795
O	1.3279240434539306	32.27283491921166	7.313070709697584
O	0.35975370558478037	32.676120263585915	8.033130936471268
O	-0.3080006228940735	31.726048207727107	8.89941413900763
O	0.27422420933943403	30.40664990812324	8.963526980554054
O	-0.4047343143036404	29.350309783898716	9.513887249336406
O	-1.4264997949279925	32.23978267238707	9.23976647889295
O	-1.3127446895110135	33.61557776801716	8.983219176075286
O	-0.3215322094338231	33.887963139681254	8.180289706585611
O	0.0837731248454936	28.071103530300014	9.077825062991149
O	-0.08955120393925808	27.1983806277648	10.190353767691041
O	-0.7816347399384029	27.652325632759364	11.4007802738032
O	-1.5870948994198697	26.576977780388553	12.075737498875881
O	-0.6152226818097315	25.462404094801702	12.440383178909029
O	0.2699010726805253	25.216855876977803	11.303576810229595
O	1.0246408994040377	26.309530247899744	10.632901393141134
O	3.514591006346893	29.238134156032597	7.565238160254627
O	3.4103892744344004	28.433445142551054	8.667129287102235
O	4.051100919306975	27.18151800189107	8.663971500579729
O	4.978761592869408	26.870177362730466	7.664747204369929
O	5.227159224015136	27.866885999780614	6.795902885465524
O	4.191273702384039	28.710428558334854	6.508744447002885
O	6.07368555452763	25.527077672592913	7.68072405564981
O	5.762891523751079	24.374275284839424	6.8048460310490775
O	7.4332021557697505	26.0037377301259	7.311289444552576
O	6.105992036932375	24.994851844319	9.28427883688223
