11

O	0.56020074918383	30.811557338921666	8.781499365132166
O	0.3648872679382384	31.97041971192664	8.133697910401487
O	1.2219769358305566	29.84516656827964	8.123073221682374
O	-0.49258631067499326	30.418586107273637	9.361990192861045
O	-0.7099378983978001	32.59301897135907	8.523652455895585
O	1.227416966650204	32.38237458942785	7.207663878838673
O	2.0152248711415788	30.2489144111707	7.06988743039274
O	1.6716516787036357	28.742298677586444	8.892686245564944
O	-1.2793400009437113	31.673673825152118	9.505577886991592
O	2.2770558900063858	31.545112959880434	6.9669693444985015
O	0.7412648297748422	28.308136151021028	9.89738131972768
