77

O	-5.614215045354167	1.4512894913125003	0.6634015383958334
O	-5.664712565354168	-0.6146520746874996	1.7245477583958333
O	-1.529663911354167	0.04288360731250035	-4.203491321604167
O	-0.10665385535416716	-1.4848202786874996	-5.246902741604167
O	-2.485960379354167	-0.2750329646874996	-5.108332831604167
O	-1.0076311323541671	-1.7183016186874995	-6.289818481604167
O	-2.461321575354167	0.5464883603125004	0.2808177283958333
O	-1.4225889963541671	0.12643482331250036	1.2351485983958332
O	-2.097282912354167	-1.1899918286874998	-0.8907434766041666
O	-6.2711790653541675	-0.5581758316874996	-0.7244862966041666
O	-4.130052455354167	0.05056751231250034	-1.3329476576041666
O	-0.263235775354167	-0.41238739068749963	-4.4016456416041665
O	-2.755185165354167	0.05853059531250038	-0.8676591976041665
O	-2.211313643354167	-1.1184369586874996	-6.120506331604166
O	1.535691334645833	-1.0013099586874996	-0.4926013996041666
O	0.5101487446458328	-1.2819130686874995	-1.3939546354041665
O	-0.39578999535416703	-0.5868834776874996	0.5807205583958335
O	-4.083472195354167	-0.2765268166874997	-2.526545171604167
O	2.3953185746458328	-0.16768640068749963	-0.7225326456041666
O	-3.203147105354167	-1.9599819586874998	-8.385335601604167
O	-3.9905421053541668	0.09528280831250036	-7.7839263316041665
O	-4.875002865354167	-0.9016446886874996	-0.6623604246041666
O	-0.7050148433541671	-0.7365235386874995	-0.8546469136041666
O	-6.3145191653541675	0.17464659631250035	0.5874090383958335
O	0.28798857464583305	-1.4314697186874996	-2.5542603016041667
O	-3.611707185354167	-1.1979758986874995	-7.199274171604166
O	0.4524836446458329	-0.26699737768749965	-3.140160231604167
O	-5.028062215354167	-1.4250834586874996	-6.311236561604167
O	1.031737154645833	-0.6680226986874997	0.8296061383958333
O	-2.087207589354167	-11.5648299886875	-5.462039921604166
O	-4.831581485354167	-9.4127991886875	-3.981504711604167
O	-3.753519655354167	-5.7032879686874995	-4.044754311604167
O	-7.148120635354167	-4.4541291286875	-3.0761941916041664
O	-9.557013785354167	-4.001821888687499	-0.13513373160416653
O	-9.798980185354166	-1.7132593786874997	6.754816098395833
O	-9.080960395354166	-5.1653618486875	5.381221808395834
O	-7.774788165354167	-7.0981354386875	2.3935031583958333
O	-4.265073035354167	-6.3785546286875	1.0606865783958332
O	-2.006832371354167	-8.7771989186875	-0.7451863076041666
O	1.2560674046458329	-8.4690853286875	-2.584799001604167
O	3.342848324645833	-11.1316106886875	-0.7924809066041666
O	8.278383944645833	-8.5015674886875	-1.7036460176041666
O	5.8129765146458325	-6.6747358586875	0.5406037983958334
O	2.187663384645833	-5.4511907686875	0.8481635883958336
O	0.4096258946458329	-7.550887018687499	3.4319692383958333
O	-2.654274145354167	-6.018768348687499	4.994288418395834
O	5.6312332246458325	7.658044011312501	4.124733478395834
O	5.173032564645832	4.009443981312501	3.1121568383958333
O	5.584817814645833	-0.18127959168749963	8.088619858395832
O	6.388021794645833	-5.288809028687499	10.797062578395833
O	0.5579722146458328	-5.2196322486875	8.835128878395833
O	3.567254624645833	-5.7230771186875	6.598133888395834
O	4.334779344645833	-2.6631201086875	4.447945648395834
O	7.051631264645832	-1.7621179086874996	1.9672818583958336
O	5.719224204645832	-2.5529980286875	-1.5190451566041667
O	3.5459086846458323	-0.8559715186874997	-7.637315371604166
O	1.008129744645833	1.7941713913125004	-8.179712391604166
O	-1.1861782933541671	4.3399845113125	-6.661139781604167
O	-2.071863800354167	7.8410067713125	-7.790031451604166
O	-5.647315795354167	6.8920066313125	-8.748578841604166
O	-4.3058942553541675	4.6160738813125	-11.363474321604167
O	-5.6373440053541675	8.937427291312499	-4.545570851604166
O	-5.937158885354167	5.2467052013125	-3.7861842116041666
O	-3.514642095354167	5.630105751312501	-0.8572508446041667
O	-0.9369366333541671	7.765900371312501	-2.3955884816041664
O	1.642392734645833	5.428278581312501	-3.860077011604167
O	4.236201794645833	6.1269571513125	-6.541459421604166
O	7.383797374645833	4.503578811312501	-7.895323761604167
O	8.667372964645834	9.5039490513125	-5.507799871604166
O	5.179390814645832	9.562166421312499	-3.9994053716041664
O	4.318106754645833	8.2567629713125	-0.5239766696041666
O	1.499282844645833	8.3244522313125	2.005380878395833
O	-0.03676126535416713	4.9088169913125	2.783387698395834
O	-2.325695826354167	3.7945983713125004	5.584387888395834
O	-1.099980126354167	6.5801221913125	7.976758178395834
O	-2.762065275354167	7.016088481312501	11.394131278395832
O	-4.355928525354167	3.5775883813125002	11.217311278395833
