30

O	3.016031612314938	24.958707877485235	10.070478930350804
O	3.7872708793767433	25.392683158692687	8.999876716545947
O	3.423745434231728	26.473864181741497	8.243440416337004
O	4.204134851602509	27.472320994663768	7.734095787951342
O	3.5192990382583504	28.676862822637812	7.4398769718628674
O	2.3920051540604184	28.78116822366764	6.847496616630467
O	1.6760005874997037	27.692923169652435	7.330388284163336
O	2.1602025897523625	26.44345155960991	7.756975130485513
O	1.751141111466226	29.989139609917995	7.448328817384603
O	1.9092107106024	31.141202376163374	7.466297887694445
O	0.8525923980317222	31.39289590233919	8.091419682599895
O	0.5353098467202808	30.51638381884954	9.127894268811591
O	1.5268186694547978	29.751367222053634	8.922540876945686
O	-0.7355225215071003	30.14330646015632	9.409073811939784
O	-1.3855283475720854	31.16061627836301	8.950129380394847
O	-0.9788614040537498	32.465645811187635	8.602227145493051
O	0.16787753485869575	32.45413543154404	7.79465872048468
O	-1.1073641991409353	28.80372492532171	9.64461608592151
O	-0.214259575291968	27.64421695927589	9.73719726769771
O	1.021951007910654	27.642813800232247	10.536213298236234
O	0.5128649130067627	27.915782983990113	11.869140611510964
O	-0.5279377639172244	28.86098636704818	11.73553434910869
O	-1.8319668499320059	28.842342542837834	12.197378066181523
O	-2.5434400912483777	29.75131625542929	12.599515799458093
O	-2.097150869030605	27.4915112736564	12.851631144045239
O	-2.879017506759606	26.877162423411583	11.648736143229135
O	-3.481514651478969	27.154868986592835	12.936237129653595
O	-0.9372194993339332	26.60844623295038	13.217531437205615
O	-0.7256275478505152	25.566876662854295	12.296404984642946
O	-3.120803112992842	31.36818938596016	9.809847864428338
