76

O	1.0923554082830191	-0.7383113199999992	-1.328657255226415
O	0.564508298283019	0.29471164600000077	-2.054454955226415
O	-0.42771846171698114	0.9872860910000008	-1.479578165226415
O	-1.175733563716981	0.13378608190000074	-0.611436666226415
O	-0.7540963047169811	-1.1354027959999993	-0.22511505352641503
O	0.5686146682830191	-1.5568744859999994	-0.33573120532641504
O	-2.430248052716981	0.047321418900000745	-1.0577144992264151
O	-3.269673851716981	-0.5791411839999993	-0.22862172772641504
O	-2.800518681716981	-1.5773268159999994	0.540494505773585
O	-1.499298615916981	-1.9398331259999995	0.5480001847735849
O	-0.6338574107169811	-2.828051205999999	1.279862904773585
O	0.582452068283019	-2.6247701859999992	0.621452833773585
O	-1.1275920667169812	-3.7356801659999994	1.9840837147735848
O	-3.534710871716981	-1.6980603559999994	1.7203974347735849
O	-4.846109281716981	-1.2264446859999993	1.994866544773585
O	-5.504898491716981	-2.1187946159999993	2.8393893747735848
O	-5.048441281716981	-3.278051955999999	2.215852674773585
O	-3.695696601716981	-3.0109329959999993	2.106497104773585
O	-3.027933601716981	1.2007097540000007	-1.422998625226415
O	-4.361587281716981	1.5820559940000007	-1.6152143052264152
O	-5.242290161716981	2.3490499240000005	-0.764040272226415
O	-5.525414851716981	1.5854339040000007	0.45153784977358496
O	-1.059908765716981	1.8496668740000006	-2.366359655226415
O	-9.76922502171698	-9.479817326	-2.825709605226415
O	-9.571567461716981	-5.916933395999999	-4.111540515226415
O	-7.738754551716982	-3.707179085999999	-1.634731335226415
O	-8.54698387171698	-0.6218757009999992	-3.6888201252264152
O	-7.591844291716981	1.6471813940000006	-6.623536015226415
O	-2.005730394716981	4.301344194	-10.413931825226415
O	-3.7950904417169813	0.9969345350000007	-10.857734425226415
O	-5.874082641716981	-1.5704545059999993	-9.007075605226413
O	-4.468566121716981	-3.2684464759999994	-5.895161065226415
O	-5.321596301716981	-6.742336665999999	-4.694806615226415
O	-4.525205841716981	-8.897050735999999	-1.723324055226415
O	1.0281134382830188	-9.665733665999998	-0.45757260822641505
O	-0.4991821017169811	-6.5017538859999995	-1.936164075226415
O	-0.4245328117169811	-6.821041275999999	-5.718145465226415
O	-0.607575085716981	-3.6309965959999992	-7.685718155226415
O	-1.325557304716981	-3.764083195999999	-11.421935625226414
O	8.552732538283019	2.1490131640000008	4.179337614773585
O	6.329065438283019	-0.5939728409999993	2.821489034773585
O	8.721147138283019	-3.080350825999999	1.252626104773585
O	8.68204893828302	-3.595937535999999	-2.508589725226415
O	9.118127038283019	-7.365803495999999	-2.7213362952264153
O	9.239225138283018	-7.786644775999999	-6.493576975226415
O	4.367003938283019	-4.514106876	-8.227646215226414
O	4.367211718283019	-6.930767405999999	-5.305758285226415
O	4.419982968283018	-5.272353635999999	-1.910169275226415
O	4.540695498283019	-6.416482695999999	1.685941824773585
O	0.9888580882830189	-6.621847955999999	2.9871325547735847
O	-3.999748931716981	-4.968379895999999	7.159449974773585
O	-5.145457241716981	-1.3553356259999993	7.738312394773585
O	-4.458994541716981	2.155200624000001	6.405286414773585
O	-4.580223001716981	5.349350954000001	8.509694814773585
O	-7.762497711716981	6.573624674	6.799593664773585
O	-9.659540661716981	3.5878905040000006	8.049292574773586
O	7.871547578283019	7.101604434	12.576185474773586
O	-2.357041089716981	10.902552124000001	2.269893544773585
O	-4.007280691716981	8.800664384000001	4.983305804773585
O	-4.875995281716981	6.183574744	2.399124374773585
O	-1.2133149727169812	5.377398984000001	1.747719014773585
O	-0.058127731716981046	5.296627654000001	5.328785554773585
O	-0.35541734171698103	1.6622881740000006	6.435479954773585
O	-0.4005917017169811	0.3841543680000007	10.027493474773586
O	0.06549719828301903	-2.939483375999999	11.803725974773586
O	4.222769768283019	0.5463632270000007	13.293672574773586
O	3.1403574182830187	2.832693644000001	10.459471274773586
O	4.627128138283019	2.7777217040000006	6.975469584773585
O	4.763440568283019	4.897900334000001	3.849567694773585
O	3.257636348283019	3.2797253940000006	0.791312904773585
O	3.5337557682830187	4.155420194	-2.931926305226415
O	6.889204118283018	5.834964034	-2.508563705226415
O	8.521235038283018	7.611125934	-5.524416355226415
O	6.221555028283019	5.804704244000001	-7.969953135226415
O	4.9991693682830185	9.311961514000002	-8.787491565226414
O	-7.527783071716981	12.507184324	-6.944029225226415
