77

O	-1.8320013088541665	0.9055315304375	-1.5073321458333337
O	2.9236682811458334	-0.3340384595625	1.6822024141666663
O	-0.5570726578541663	0.8651149574375	-1.5278368058333338
O	0.25098389914583363	1.7714108704374998	-2.1273976658333336
O	1.4580026411458336	1.1085311304375	-2.3209019858333337
O	1.9334109611458337	0.3986056734375	-1.2862388598333336
O	1.1483060011458337	-0.5133006195625	-0.7590337888333336
O	-0.17423173685416632	-0.21739668956250002	-0.8529493958333336
O	-1.2071827688541663	-0.9979726695625001	-0.34716734203333366
O	-2.2539072688541664	-0.22306838556250008	-0.8677756178333337
O	0.2566214921458337	2.9663667204374997	-2.7855372058333336
O	1.4338429211458337	3.8381569304375	-2.8194348958333335
O	2.8648838611458336	3.5707094104375	-2.8192356158333336
O	3.4533862611458335	2.4938183804375	-3.4096511658333335
O	4.504508981145834	1.6829551204375002	-2.9450708558333334
O	5.596268041145834	2.4325615704375	-2.6503130358333333
O	5.077987521145834	3.1654521904374997	-1.6672216358333336
O	3.9084798111458334	3.9351440904375	-1.9474636958333338
O	2.4167244911458337	1.6033878414374998	-0.5401027748333337
O	-1.0368137988541664	-2.1454809195625	0.5583117801666664
O	0.08534704674583365	-1.9147895795625	1.6055412441666663
O	-0.33636120785416634	-3.3986940395625003	0.019835391166666327
O	3.4710524211458336	1.0691575674375	-0.01841887983333368
O	3.9031808011458335	-0.3776839395625001	-0.33716883063333364
O	3.8190192711458337	-1.0904429895624999	0.9638042941666662
O	5.084773161145834	-0.8827870795625	1.6345261641666664
O	6.191213111145834	-0.08980556956250008	1.3607966541666663
O	5.894313461145834	1.0002477844375	0.40018500616666636
O	5.236346231145834	0.1292247314374999	-0.5430272338333336
O	3.2404512711458335	-0.4453440795625	-12.471098795833333
O	5.629329061145834	-1.4789835295625	-9.763196925833332
O	4.532485111145834	0.30631102543749994	-6.6237050858333335
O	7.670101121145834	-0.6577242995625	-4.793077175833334
O	9.490577061145833	-3.4384165595625	-3.0624295258333336
O	8.403990201145835	-8.9479607095625	1.933579984166666
O	8.035538451145834	-8.9190935995625	-1.8426132358333338
O	7.306200791145834	-6.725347299562499	-4.847274975833334
O	4.089645511145834	-4.7426701295625	-4.965363445833334
O	2.2568524311458336	-3.7600127195625004	-8.117480645833334
O	-0.5948491458541663	-1.4081935995625003	-8.799862835833332
O	-2.9617791988541664	-3.6890792795625003	-10.706091395833333
O	-7.600930478854166	-0.9139986595625001	-9.071504855833332
O	-5.680654278854166	-2.6494422495625	-6.314407405833334
O	-2.207020968854166	-3.0498324695625003	-4.823288765833334
O	-0.9395608688541662	-6.5790426895625	-5.531821495833334
O	1.7909063411458337	-7.936816079562499	-3.2760453758333337
O	-6.295186958854166	-0.04182239356250006	8.190612214166666
O	-5.619203878854166	-0.7483180595625	4.516720894166666
O	-6.934097328854166	-6.8467718195625	2.6535082441666664
O	-8.166826128854167	-11.1867152895625	-0.9950122178333336
O	-2.0876300588541663	-10.431215789562499	-1.2250736808333336
O	-4.608430358854166	-8.0731149695625	-2.8162440658333336
O	-4.945655978854166	-4.7586894295625	-0.9557290028333336
O	-7.235515298854166	-1.7322453995625002	-1.3808053678333336
O	-5.176536728854166	0.8926868324374999	-3.3470067858333334
O	-1.5768410188541664	6.5540822904375	-4.094684235833333
O	0.8328034951458337	7.8142938404375	-1.7667268558333338
O	2.4877576111458337	7.1124081204375	1.3688585041666663
O	3.4580201411458336	9.4886409304375	4.121216884166666
O	7.173660171145834	9.3418719004375	3.2149038041666667
O	6.492993761145834	10.7940353104375	-0.16921298583333366
O	-3.0765715188541662	11.932149510437501	10.943782904166667
O	6.224146231145834	6.5504567404375	6.937586844166666
O	6.5316767511458345	4.3244056504375	4.078945494166666
O	3.5547948711458335	2.1095560504375	5.087770674166666
O	1.2667803111458336	4.8118386304375	6.248106444166666
O	-0.9123221308541662	5.5333931704375	3.2043393941666665
O	-2.9037729188541666	8.6553821304375	2.5180295041666665
O	-5.623155778854166	9.7007811304375	0.14701600016666633
O	-7.529148298854166	9.8875726804375	5.529425784166666
O	-4.435376808854166	7.9559575704375005	6.551545534166666
O	-4.191431618854166	4.1622130704375	6.886242694166666
O	-1.8813090788541664	1.4680694264374998	8.308061474166667
O	-0.4870299188541664	-0.9667204395625001	5.716611234166666
O	1.2792594111458335	-4.3531116795625	5.995118554166666
O	-0.35075602885416635	-5.0899403995625	9.375315824166666
O	2.2736226711458336	-9.8254823895625	8.232458254166668
