66

O	-1.693281201638298	4.04563144360851	-0.4374226242553195
O	-1.228887775638298	2.7398474136085103	-0.9413841292553194
O	-1.606250441638298	2.35635489460851	-2.065008179255319
O	0.05845353936170189	2.3955071436085102	-0.5834318092553196
O	0.7042698083617018	1.18577997860851	-0.8768637192553196
O	0.8316593883617018	0.35613514360851006	-1.8695164892553193
O	1.6297786283617017	-0.6929666063914899	-1.3585677992553196
O	1.5020258883617017	-0.8583869863914899	-0.11815353825531949
O	1.2929382483617018	0.4793303836085101	0.3286290767446805
O	0.46212692436170183	0.6739186986085101	1.5129253247446806
O	-0.6890275446382981	1.17542764760851	1.2619344477446806
O	0.9931017483617017	0.99356652460851	2.7739328707446806
O	0.1898648823617019	1.73903784260851	3.6623244507446806
O	0.15589839836170188	1.54867385110851	5.01385078074468
O	-0.6033189536382981	2.48300501860851	5.71158074074468
O	-1.0891114186382982	3.6348140136085103	5.1648034907446805
O	-1.2685961356382982	3.67584129360851	3.8081762307446807
O	-0.5648798506382982	2.76482749360851	3.0693580007446806
O	-0.9926217266382982	4.75073786360851	5.93290979074468
O	9.781046428361702	6.02936866360851	6.36347898074468
O	6.695734478361702	8.01012987360851	5.39447112074468
O	3.723281328361702	5.65083271360851	4.95329931074468
O	1.2648782083617018	8.51110879360851	4.500647710744681
O	-0.18020338963829813	11.08114908360851	2.1261521507446806
O	3.4146690583617016	11.45857398360851	-0.3578674982553195
O	4.0746647683617025	7.71196937360851	0.00405302974468047
O	7.194516448361703	6.1554357536085105	1.4628737617446805
O	8.3277026683617	2.6829342936085103	2.3848139607446805
O	11.543363128361701	2.28418340860851	0.39940579674468046
O	10.9577773283617	-3.3523096763914895	-0.1637398052553195
O	8.347132818361702	-1.2664625563914897	-1.9109680492553194
O	5.905807498361702	1.57990594500851	-1.4425597292553194
O	7.070435478361702	4.64065924360851	-3.3219188992553192
O	4.511487738361702	7.26452958360851	-4.24476207925532
O	-2.7082351916382983	0.26348554360850995	-14.93831099925532
O	-6.599458351638297	-8.47728986639149	-4.93063800925532
O	-5.110876561638298	-5.388282306391489	-6.562754699255319
O	-1.8994936216382983	-3.93659687639149	-5.22367152925532
O	0.6339426583617018	-4.5029736563914895	-7.9717846092553195
O	2.077092658361702	-1.45847766639149	-9.71073149925532
O	5.694803698361702	-2.56401172639149	-10.12409879925532
O	6.474331168361703	1.95517300460851	-7.28120942925532
O	3.9726995783617016	-0.4140838963914899	-5.66484861925532
O	4.253113538361703	-3.8640501863914896	-4.05711652925532
O	4.415647388361703	-3.18526725639149	-0.2765236832553195
O	2.2979701683617018	-3.72257092639149	5.99179568074468
O	-1.1064775446382982	-2.6331043163914893	7.15977876074468
O	-4.277064221638298	-0.9894773463914899	5.89772471074468
O	-7.8581874416382975	-1.81866573639149	6.91498559074468
O	-8.301830791638299	1.4443774836085101	8.82784153074468
O	-5.5176794716382975	0.50654098360851	11.173105200744681
O	-10.360956671638299	1.7849799306085101	4.5717625807446804
O	-7.0419270416382975	3.63710455360851	4.14591355074468
O	-6.555361431638298	2.2241422916085103	0.6830999137446805
O	-7.528760031638297	-1.37692862639149	1.3904052687446806
O	-4.306598711638298	-3.2032336463914897	2.3422668207446806
O	-3.9760585316382984	-6.501317086391489	4.19472923074468
O	-1.2465851736382982	-9.06499516639149	4.76483102074468
O	-5.453726761638298	-11.395438166391491	1.7546568407446803
O	-6.818202611638298	-7.89240943639149	1.2092274477446805
O	-6.003154981638298	-5.68652772639149	-1.7883533592553196
O	-7.238036791638298	-2.5406326063914895	-3.5198907992553194
O	-4.7069755716382975	0.3050147636085101	-3.655051149255319
O	-4.587529961638298	3.5150290636085098	-5.69673255925532
O	-6.732253351638298	2.00191086160851	-8.51015273925532
O	3.4835359783617017	-5.46343273639149	12.74236510074468
