26

O	3.671790502080767	26.466730228025515	6.8658500363359005
O	4.660381438672055	28.14332220049197	5.5079538379549104
O	4.208562831565376	25.489790155461996	6.0192582625738495
O	5.252886173951316	27.250801024077603	4.660285781049578
O	0.2702928233944726	30.85743779805277	8.652672674172768
O	5.78931079654759	22.425612674778467	2.667400074350141
O	6.957267588811055	23.349316207898866	2.594104378208205
O	6.775636568512918	24.943933622054438	5.4807372686775135
O	-1.8464429734947831	31.748482566978993	10.50471240181604
O	-2.505559570710121	31.150456853852745	9.384329588870203
O	5.415787426100401	22.222554006179397	4.096638915501999
O	7.420095734704674	23.31122403150153	4.010985592979823
O	6.028668747597166	23.65871968977401	5.964152943451832
O	4.292908695677738	28.471835121760456	7.812103505152038
O	3.3749522931230493	29.49846089073366	7.223455462636968
O	4.536773541968108	27.572207972926886	6.785715519844488
O	4.992083730666501	25.96047392516943	5.009378653682822
O	1.4839272582060188	30.96905134033271	7.870885350092998
O	-0.2957034206945841	32.19199068624026	8.49693877239557
O	-1.6187844434208247	32.423326232472306	9.105145839594982
O	3.7425030101849126	30.48489538977965	6.494922027553449
O	5.898904256956245	25.119516821014912	4.350708303210418
O	0.5228176951500252	32.88179221487804	7.829807304685586
O	1.6054385616009932	32.10880077609025	7.367263784050455
O	2.2015652996365334	29.81403023996047	7.806488554323532
O	6.393353916669838	22.813665081621647	4.881095675871415
