26

O	-0.11185118292695183	29.759258902203143	8.395279293897262
O	0.7757560827723454	30.944287314651326	8.35738768963706
O	-0.10291434374614386	31.974092159554345	8.70053352133832
O	0.26847558700017693	32.94328512915713	7.863000546106446
O	1.3608988179084862	32.70624964420043	7.183251026884722
O	1.506066401452044	31.392567407134752	7.243950485671936
O	2.664470099362207	30.734351523991243	6.6698745131114485
O	3.2401582383975636	29.812595048012565	7.509479058051048
O	4.217297461997911	28.72800826578316	7.418731964880642
O	3.2143361335139886	27.73840444035504	7.051283549191748
O	2.0170994717703405	28.016611435178866	6.433305137521941
O	4.030897744982399	26.6534080540196	6.466692624540482
O	3.2901047572061377	30.394150085234777	8.619236908120012
O	1.2487409161557455	28.468442848167566	10.023696205993275
O	0.8629181243314191	27.350270458511613	9.210962401115111
O	1.6264369274772086	26.2166797698953	9.938917502995016
O	2.9013183567593033	26.19532846948772	9.39734629544227
O	3.805964173854861	25.180654141530013	9.446683080097557
O	3.408684948561413	27.320266949821715	10.021441532273126
O	2.5125945429531367	28.467696909854414	10.214338100348385
O	-0.9801178981059113	31.32149331494061	9.742999299186021
O	-0.9682745937702217	32.079305164407984	11.009160483520214
O	-2.3977409355512447	31.457846563956434	9.169339917533012
O	-0.6888324710030854	29.925524948344755	9.757341771524988
O	0.04528528778163289	28.970124189309068	10.579082799462709
O	-0.7751908906247015	28.12995960527227	11.094346177079625
