20

O	5.318871194742414	26.181996688975897	6.994181251162298
O	4.2195848759781995	26.820639442637155	5.232425841838553
O	4.626582205616192	27.052196320448537	7.890007262128504
O	3.2403167105502564	27.347455498860196	6.156946553218756
O	0.6816204991709727	30.801015126304158	7.254958538640171
O	0.05797645616870151	30.47031705947411	10.115480499107049
O	-1.088646341004306	30.2448472855369	9.310825196745967
O	6.508219680358541	27.21801351984135	4.861523229364071
O	3.910088674331607	29.428941088105336	7.119522194723258
O	5.466510863568379	26.672312032112636	5.754478828613251
O	3.8909175086620325	27.965901619227438	7.246349107590456
O	2.1044398257065806	30.951050802513226	7.009577754418794
O	0.6252018139916857	31.926360103765276	8.225373043517635
O	-0.4437918638510645	31.66610378019953	9.184050956261444
O	6.620690530244163	26.331969032870262	4.021784366712491
O	4.533374924736017	30.327821333965673	6.521333202784197
O	2.687553444376895	29.77340924273832	7.6027806212838165
O	6.284072428314794	28.521847826110214	4.249700605069168
O	1.3051942216813595	32.789491647145695	7.569580741707278
O	2.512521526212785	32.13588404999721	7.115965383141119
