32

O	1.9286194752898165	28.1309025026432	10.646118225447067
O	0.5647264692351103	26.83886137471631	9.724079834430173
O	2.905028911920063	27.150261129968392	10.406348346195129
O	1.3472784635683481	25.77383988313111	10.035734762448815
O	3.294221510959025	29.977325794026292	6.40584958957812
O	2.3625197093617056	31.12483362935149	6.562038817866965
O	5.282290824883647	23.73173655705539	5.894677648524384
O	4.57730950150929	25.782660262942382	5.404961552764175
O	2.839115981794191	29.671621109783754	8.456855336365138
O	2.0522974736580606	26.765883845950828	7.209553459571066
O	2.9561325368650015	25.66708090802654	7.464539313561699
O	4.163569731837057	27.90171247946577	7.213420809701976
O	0.5679145745551495	27.834879829775556	10.678074241769158
O	3.6080870194752013	29.236690428227007	7.4861382290288745
O	4.1290115857326395	25.344549677867	6.655620206021593
O	4.482808103067154	27.24691236138041	8.185872200436553
O	-1.3055055322367564	31.68088990838412	9.627937620671664
O	4.970034862807762	24.65441021543268	9.769769568164667
O	3.2877981723370375	23.27241691457138	9.12980484001633
O	2.6753972361702054	25.871703932753118	10.066772789134625
O	-0.21732162072922717	31.42037568380944	8.985137191766292
O	0.5431176151481626	30.09907563154512	9.049919117202268
O	1.3500280934092723	31.29766215625315	7.450146299156924
O	1.608381689669497	30.228178947864645	8.229902428755308
O	5.520441064643885	24.83140606420166	5.12574802478102
O	3.5865909354761007	24.40489946244254	10.107643090106158
O	4.01266710332308	24.025491489450534	6.332720103937071
O	3.2422081205903632	27.261420287843062	6.3949708560813425
O	0.39118534234785	32.217181067647026	7.953750010188148
O	-0.2542088815243889	29.21751006919802	9.265025915794032
O	2.9009030521168233	23.50837556724846	11.320254769082686
O	-0.5037826118533401	28.881539237367804	10.545304510554665
