72

O	-0.7927184712020409	-0.24347289007346973	-0.6774275642448983
O	-0.6490998891020409	1.3894153379265302	1.1491111397551017
O	-5.0541100301020405	-0.6241012200734697	1.6254616797551016
O	-0.2319172341020409	0.9819176505265302	-0.13486757424489823
O	1.534368809897959	2.41851732992653	1.4478448697551016
O	-5.2085624701020405	0.12331290892653024	3.731813299755102
O	0.3961032698979591	1.7894686349265303	2.024833939755102
O	-0.19047307710204087	2.45266979992653	3.146964379755102
O	2.162800239897959	1.5351597159265302	0.5119384447551018
O	-4.356633700102041	-0.35858810007346986	2.768519149755102
O	1.1991988998979592	1.1057457819265302	-0.5338426342448982
O	-1.950844160102041	-0.9733081200734699	-2.687892740244898
O	-1.462649601102041	1.9263545299265301	3.4405702297551017
O	-2.014174030102041	0.6753528889265302	2.8686788097551017
O	-3.447768090102041	0.6792653529265302	2.491118609755102
O	-4.037721540102041	1.9785452749265302	2.765797389755102
O	-3.7499962101020405	2.0798274699265304	4.2803506697551015
O	-2.2838874301020406	2.42925007992653	4.553868279755101
O	-0.8033366805020409	-0.49394193007346976	-2.108017680244898
O	-3.106237400102041	-0.7378538800734697	-1.8149395302448983
O	-3.9485701501020407	-1.9168412600734699	-2.149024210244898
O	0.31433569989795906	0.00973607992653025	-2.9462915902448983
O	-2.330949800102041	-0.9822690500734697	-0.18184276824489823
O	-5.34829427010204	11.89779400992653	1.7975960797551016
O	-7.3504368501020405	8.80475051992653	0.8562142227551018
O	-5.554306390102041	5.7792176299265305	2.055274749755102
O	-8.355828830102041	3.3980768899265303	1.1630800497551017
O	-10.139682940102041	1.5098714709265302	-1.5847405202448983
O	-9.279525780102041	-2.31262000007347	-7.533053680244898
O	-9.513555030102042	1.4541694039265303	-7.301990820244899
O	-8.980695410102042	4.2586110599265306	-4.814099750244899
O	-5.55513087010204	4.74049078992653	-3.2176093702448982
O	-4.141830450102041	8.06135082992653	-2.035043940244898
O	-1.101592461102041	9.15838989992653	-0.10176875424489823
O	0.5307186098979592	11.65810150992653	-2.455891150244898
O	5.791061729897959	10.587835349926529	-0.6143350032448982
O	4.053374209897959	7.703225679926531	-2.336605780244898
O	0.8649976598979591	5.647277719926531	-2.493038840244898
O	-1.0341390491020408	6.51356154992653	-5.666999340244899
O	-3.5474446401020407	4.00645392992653	-6.9422570702448985
O	7.433248509897958	-6.67782932007347	-1.8211587702448984
O	6.07465049989796	-3.1134633400734693	-1.9039225702448983
O	6.08870957989796	-0.39981079007346976	-7.798784510244898
O	6.035903459897959	3.8459431999265306	-11.768383320244897
O	0.19817229989795904	2.92078446992653	-10.178386220244898
O	2.7556872198979594	4.66702534992653	-7.9867109102448985
O	3.937506999897959	2.57338539992653	-5.042421190244898
O	6.5197991898979595	3.06836426992653	-2.287059710244898
O	4.517154669897959	4.29375001992653	0.7856172267551018
O	2.4552068198979593	3.9914778499265307	7.053151179755101
O	0.4992726398979591	1.0917498285265301	8.422228169755103
O	-0.9920514471020409	-2.2332205800734695	7.437095959755101
O	-1.218666379102041	-5.41890834007347	9.440694369755102
O	-4.987211830102041	-5.11611285007347	9.935451469755103
O	-4.571036370102041	-1.8396633700734697	11.711953379755103
O	6.540892909897959	-11.28236879007347	10.009306979755102
O	-4.044200250102041	-8.25399305007347	6.507992559755102
O	-5.0756630201020405	-5.15952333007347	4.637728899755102
O	-2.426417780102041	-5.663207970073469	1.9914329797551016
O	0.4510009598979591	-6.5705658700734695	4.2603467897551015
O	2.2996624498979594	-3.3576851100734695	5.095516389755102
O	4.679740419897959	-2.6819329000734697	7.940036939755101
O	7.2492993098979595	-0.057968950073469694	8.850045489755102
O	9.822261469897958	-5.04216111007347	8.043945559755102
O	6.598463259897959	-6.31138175007347	6.492477799755101
O	5.823381049897959	-6.24186488007347	2.767223229755102
O	3.3966205598979595	-7.76754840007347	0.2832100787551018
O	1.2076124298979591	-5.20247176007347	-1.5355016202448983
O	-1.0407251031020408	-5.38145505007347	-4.610708220244899
O	1.028843149897959	-8.319532630073471	-6.0679724402448985
O	-0.1293438761020409	-10.04970209007347	-9.289302530244898
O	-2.465463040102041	-7.1766664000734695	-10.149874520244898
