68

O	-1.8141606967822224	2.0389577342444447	-1.0828824981111111
O	-1.5869405967822223	1.432411482244445	0.1502405708888888
O	-0.1995159947822223	1.644211791244445	0.2963513615888888
O	1.6886125132177776	2.7726263842444445	-0.8979512181111113
O	2.5682561532177774	1.9973049942444447	-1.7496673281111113
O	1.8227137732177776	2.175482594244445	-2.921528988111111
O	0.3672128482177777	2.2138696642444446	-2.920160788111111
O	-0.5657137997822222	2.306452584244445	-1.8353216181111112
O	0.25485109321777777	2.4502707042444447	-0.8301640681111113
O	-2.1755852867822223	0.9178653302444448	1.1182250418888888
O	0.5899142902177777	1.2796752552444448	1.2633805848888888
O	0.6956452862177778	0.003152175244444777	1.6433509618888889
O	2.0471949832177776	-0.09521876675555518	2.012322541888889
O	3.1249998732177775	0.03905838024444486	1.2135866108888889
O	4.130045893217778	-0.8652470657555552	1.5916047518888887
O	4.427752403217778	-0.8918171657555553	2.904012281888889
O	3.4723336432177776	-0.6768451257555551	3.857986081888889
O	2.2492131932177775	-0.2828992157555551	3.3433866918888886
O	5.921883853217778	-1.6366171157555551	3.342138361888889
O	5.6107206132177785	-2.6199906457555553	4.383515041888889
O	6.619495713217778	-0.5892279257555552	4.087571881888889
O	6.945751193217778	-2.0509522957555553	2.058304861888889
O	8.256982713217777	-1.4066305457555552	2.123041481888889
O	4.135740483217778	8.077386194244445	9.16692725188889
O	5.913190033217778	7.931381294244445	5.8091965318888885
O	4.9569144132177785	4.704175894244445	3.985277621888889
O	7.4100910032177785	5.314010494244445	1.1531286448888889
O	8.182500533217777	7.131575064244445	-2.024778568111111
O	5.666336513217778	10.601463184244444	-1.1626833281111113
O	3.1000656132177777	8.422251184244445	0.5648426178888888
O	1.9210245132177777	8.671881494244445	4.147008201888889
O	-0.2538438387822223	6.559694504244445	6.383721651888889
O	-2.891690926782222	9.044581464244445	7.526536201888889
O	-6.9314446467822215	5.105270154244445	8.14928701188889
O	-5.710257666782222	5.625010254244446	4.602602051888889
O	-2.6533903467822224	5.915533634244445	2.4053392118888888
O	-2.1874418767822226	9.504928464244443	1.3220734148888889
O	-0.11216223858222227	10.053431394244445	-1.7862016381111112
O	-7.317804646782222	-3.460063235755555	-6.846715118111112
O	-6.345541406782222	-1.018553805755555	-4.0503235881111115
O	-8.970033896782223	4.920218234244445	-4.751801288111111
O	-6.414580106782222	8.919951584244444	-0.9444207281111112
O	-6.067331356782222	5.140058964244445	-1.1696167381111113
O	-7.425750726782222	2.322509944244445	0.8948490478888889
O	-4.7297426367822215	1.3216390092444448	3.274348661888889
O	-0.20706617878222228	-2.9460467857555552	6.012211711888889
O	2.310702043217778	-4.630237015755555	3.879582131888889
O	3.6144538232177776	-5.129646835755555	0.4138002948888888
O	4.928055083217778	-8.185165645755555	-1.3112859881111112
O	8.541389453217777	-6.998998625755555	-1.2977741081111112
O	8.529468573217777	-6.8964025657555545	2.4132500818888887
O	6.731584233217778	-10.236051445755555	2.696776011888889
O	-1.3540248167822224	-14.577040045755556	-4.996359678111111
O	6.639916483217778	-6.155920465755555	-5.491260308111111
O	6.501830633217778	-2.7730659657555554	-3.812981968111111
O	3.1000670832177777	-1.9828280657555553	-5.249713088111111
O	1.4803957232177776	-5.3977812757555546	-4.678171838111111
O	-0.18776646678222228	-5.100365565755554	-1.2527176481111113
O	-1.3178620867822224	-7.913282665755555	1.051175000888889
O	-3.6336587967822225	-8.202492125755557	4.044204211888889
O	-5.773824956782222	-11.136823945755555	-0.27429529311111117
O	-3.2839847367822226	-9.370438545755556	-2.5346299881111114
O	-4.057331886782222	-6.160691745755555	-4.427016838111111
O	-2.6804720867822223	-4.139088755755555	-7.322908018111111
O	-1.6963045067822224	-0.6032640757555551	-6.390775668111111
O	-0.7705197857822222	2.5577414042444446	-8.36147830811111
O	-2.9844746467822225	1.3674287782444448	-11.35414506811111
O	2.294581033217778	-6.197873385755555	11.59591723188889
