71

O	-0.17080345582222206	-0.13591953959999992	-1.1101053196555557
O	-2.575645172822222	-0.8964564695999997	-2.480293104655556
O	-3.334026342822222	-0.6657711495999998	-3.6166365846555557
O	1.3269339571777778	1.4897101494	0.8783208153444442
O	2.503402687177778	0.6108421424000001	1.0891169653444444
O	2.0370787671777784	4.9671939304	0.45157767534444426
O	-2.947772042822222	1.3334295166	-2.147599254655556
O	-5.598461272822222	0.2794641024000001	-4.355993144655556
O	-5.449357322822222	2.1192758974	-2.454474464655556
O	-2.355198452822222	0.2099446104	-1.6917461526555557
O	-4.445509672822222	0.1558277304000002	-3.3898624646555557
O	-4.218923072822222	1.2380089594	-2.6337439146555557
O	1.838761307177778	-1.0047431995999998	-1.5916153426555557
O	1.0944008271777779	0.29177686840000006	-1.7360868086555556
O	2.080860097177778	2.7343022204	0.8700024453444442
O	2.918447437177778	0.3776113044000001	-0.22326787465555575
O	2.1807100471777776	2.5181789004	-0.5105041876555558
O	1.988040567177778	1.2080133400000002	-0.9102086507555558
O	1.4163200271777778	-2.0419889596000003	-2.2103293646555557
O	-7.854107052822222	1.7591046154	-3.7227261546555557
O	-6.927586772822222	0.005080310400000121	-2.187905864655556
O	1.227591157177778	4.0367925104	-0.7983152906555557
O	-6.704583962822222	1.0686059604000002	-3.1908461846555554
O	2.459183977177778	3.9530715004	1.212584195344444
O	-1.079998676822222	0.7068024164000001	-1.1990136206555557
O	2.9081723871777783	-0.9290841895999999	-0.6945848086555557
O	-0.7801109148222221	2.9680146804	-12.431493844655556
O	-1.203168553822222	5.678363640400001	-9.818281134655557
O	-1.9380112928222222	4.0789413404	-6.462143104655556
O	-2.5798615028222223	7.446491200400001	-4.811749294655556
O	-1.0827327828222222	10.482036940399999	-3.226682804655556
O	2.6607996871777777	10.4257331104	-5.510856404655556
O	2.742205107177778	6.6528282204	-5.439081574655556
O	2.6826995171777783	4.2696692304	-8.355688674655555
O	2.340275797177778	0.5454708244	-8.748235634655556
O	5.481881697177777	-0.2982343695999998	-10.786521594655555
O	5.839249727177778	-5.5693268196	-8.709918084655556
O	6.326638337177778	-2.7765378895999993	-6.195281594655556
O	4.921538487177778	0.45471684340000007	-4.898197864655556
O	7.064382687177778	3.3945315304	-5.997718114655556
O	6.745377097177777	6.5698155404000005	-3.960401764655556
O	5.257976297177778	-3.4083016095999996	8.545325665344444
O	5.302490177177778	-2.8182771395999993	4.792515975344444
O	10.94828151717778	-0.7351635995999999	2.418836685344444
O	10.467771217177779	1.3671268524000002	-3.250499524655556
O	7.992197067177778	-0.5503865395999998	-1.0751622103555558
O	6.663889307177778	-4.0982297096	-1.1055076676555557
O	3.283432557177778	-4.0493018696	-2.942905184655556
O	-3.3552118328222225	-4.7554407396	-3.3422424546555556
O	-5.627603362822223	-3.0412537696	-0.9877032664555557
O	-5.9002227828222225	-0.7334807795999998	1.9222427053444442
O	-8.245733302822222	-0.9031700095999999	4.891918235344444
O	-10.256230162822222	2.1219246834	3.7310805453444438
O	-11.342095782822222	0.30171746040000014	0.6758533953444443
O	-11.973817982822222	-2.9317405895999995	2.5101456053444444
O	-6.394682192822223	-6.9077478196	12.252031255344445
O	-7.179444132822223	3.4108360404000004	7.0486365453444435
O	-5.524744182822222	4.5276819004	3.858079605344444
O	-2.0517991028222218	3.4727988604	5.045775395344444
O	-3.0774879828222224	0.1302629904000001	6.619532015344444
O	-2.551934072822222	-2.4166257896000003	3.817283235344444
O	-4.043441322822222	-5.9008201996	3.6032221853444444
O	-3.435986072822222	-9.0312409396	1.575538815344444
O	-2.365292522822222	-10.0766498396	7.044916555344445
O	-2.4947263128222223	-6.3289739596	7.647993755344444
O	0.531241747177778	-4.0274215096	7.601039335344444
O	1.548211727177778	-0.5199078395999999	8.631392715344443
O	2.6827904071777775	1.7279357404	5.759736315344444
O	4.540686287177778	5.0347381404	5.590417195344444
O	6.267587177177778	4.3778310104000004	9.023407355344444
O	-8.887265472822222	-7.5612334496	-6.550649294655556
