23

O	-0.43092734532044896	32.242642330560145	9.030315508799527
O	0.6501530464914707	31.92993961962168	8.10455278034671
O	1.3417844322352437	30.776854625133854	8.566079442543082
O	0.08532581633146585	28.687938880087575	9.396333856348448
O	-0.08384628745194722	28.225741586847644	10.701269547110117
O	-1.0969175869837742	29.123586196296117	11.193129497519159
O	-1.3887179090959891	30.463937257953642	10.651738626275488
O	-0.5530877716327913	31.058519989676608	9.762882619519885
O	0.04602023777865294	30.092316807431814	9.059432619569678
O	1.0091230547152543	32.88454603581434	7.405503201110938
O	1.7576401642987776	29.933373717458608	7.6467493292313495
O	2.0574814330538747	28.93622069982588	8.396693049839243
O	2.9122141654938294	27.964338063241826	7.8323953834784685
O	3.7070963122727214	28.41383997773892	6.753271546740043
O	4.967905909084155	27.938262546223804	6.572422075153261
O	5.32410691365902	26.949228448996514	7.404583133774731
O	4.645644218109607	26.72475269136337	8.55576198122847
O	3.51994892547593	27.36423061160586	8.932501275508496
O	6.375590807381729	25.589422508004706	7.00063181087122
O	7.560479023572529	25.762222715570324	7.833923141170364
O	6.713931563205778	25.67494488312129	5.591236730141642
O	5.614166537822685	24.125634782089815	7.327044716438188
O	-0.47026426908801855	26.364905287552443	10.967394665669246
