67

O	-1.1125020852999998	2.8592355345531915	-1.3771058276382981
O	-1.0976768103999999	4.2967641045531915	-1.493574385638298
O	-1.2288737138999999	4.529685094553192	-2.870266523638298
O	-0.41364111699999984	5.520102344553192	-3.4134622836382977
O	-0.5143240899999998	6.630479704553191	-2.5516478736382977
O	0.07518519000000023	6.249818194553192	-1.337915257638298
O	-0.3413422019999999	5.108877684553192	-0.705513025638298
O	-0.1495090499999998	2.3145593065531913	-0.8389261996382981
O	-0.7107866809999999	1.0126147735531914	-1.066702277638298
O	-1.0996309350999998	0.15875539455319143	-0.03824403863829806
O	-1.1569654796799997	-1.2273300654468084	-0.2621105016382981
O	-1.4999602719999998	-1.6297954754468085	-1.562677613638298
O	-1.2597192709999998	-0.8169043254468085	-2.6964599236382982
O	-0.9202031389999998	0.43671665455319153	-2.326600893638298
O	-0.5053406389999998	1.3246278655531913	-3.346169813638298
O	-1.1051269357999998	1.2967737725531914	-4.602051273638298
O	-1.357513512	-0.0036096454468086403	-5.022851533638298
O	-1.6600079529999998	-0.8796865654468087	-4.035347113638298
O	-0.49655165499999987	7.923931424553191	-3.009113123638298
O	-0.8080336009999998	0.7333531085531915	1.194835796361702
O	-10.38611725	7.795601984553191	-1.042872616638298
O	-9.150383119999999	5.9766554745531915	-4.142298503638298
O	-5.5077392199999995	4.849078154553191	-3.5920326736382977
O	-5.08771596	3.7482120845531917	-7.198186163638298
O	-5.723511589999999	0.9886472615531915	-9.671052963638298
O	-9.3296482	-0.5116356954468084	-7.715130303638298
O	-7.87743201	0.19032230455319143	-4.279487823638298
O	-9.295894500000001	2.4096018985531913	-1.6167964236382981
O	-8.15382298	3.7187886345531913	1.7097319563617022
O	-10.97423841	2.6734922445531915	4.033720986361702
O	-7.59308948	2.2260571215531915	8.577526946361703
O	-6.88595849	-0.20480113544680845	5.764259796361702
O	-6.3929252000000005	-0.6128953854468084	2.064260626361702
O	-9.34587642	-2.2042628554468084	0.41779625136170195
O	-8.78885497	-3.8376463254468085	-2.9390597736382977
O	5.38214382	-8.09055225544681	3.3137153363617022
O	2.2306091400000003	-5.959886905446809	3.4626035263617023
O	-0.09278596999999977	-7.909890475446808	5.670670986361702
O	-3.2538783	-9.41887234544681	4.235876996361702
O	-5.70125777	-8.785770545446809	7.088069716361702
O	-8.25613062	-6.063846785446809	3.1378850963617015
O	-4.6507187299999995	-5.114655225446809	3.711594056361702
O	-2.58624887	-3.227617855446809	6.171226336361702
O	-2.36443242	0.41140132455319156	5.204553026361702
O	0.8847528000000002	5.845919764553191	3.2094462163617017
O	3.44584865	6.028953744553191	0.525440466361702
O	4.98831026	3.956718434553191	-2.229471853638298
O	8.53341931	3.9387238045531916	-3.5563582136382976
O	7.50520888	5.545561094553191	-6.869205253638298
O	6.305418040000001	8.597213764553192	-5.095178313638298
O	9.26134736	8.684698374553191	-2.7483731236382978
O	15.495781159999998	-0.6953308354468086	1.370893566361702
O	8.08814914	0.8701325815531914	-7.4378892136382975
O	4.33017197	1.3520992575531914	-7.2595408136382975
O	3.77943436	-1.6867034354468087	-5.089786553638298
O	6.8016535000000005	-1.2737988554468085	-2.783498533638298
O	5.413214399999999	0.5803737025531914	0.23161371136170195
O	7.2202191	2.6050043045531917	2.865613896361702
O	6.413135930000001	4.028153174553191	6.273157666361702
O	10.50657676	0.1460518145531915	6.668948556361702
O	9.697564159999999	-0.9649706454468083	3.1364533363617015
O	7.25681623	-3.736573585446809	2.226400596361702
O	6.23418141	-5.870126625446809	-0.7440937396382981
O	2.64762758	-5.519743215446809	-1.822826493638298
O	0.3358971700000002	-7.49141902544681	-4.112840293638298
O	2.32956486	-10.72836294544681	-3.433883773638298
O	2.31161449	12.741900654553191	4.308403766361702
