16

O	-0.22259697154399793	33.04489273148781	8.670628619819787
O	2.0285924663443584	27.055116514021563	9.202779428973816
O	2.8927627829389784	25.741582233600724	7.492150087000808
O	2.9919409283529945	27.93303103611449	8.800647893162829
O	3.579785222610326	26.76041761284473	6.910430333406198
O	0.9157435613298839	31.065333071759063	7.807009253422107
O	3.805130518527713	29.095233162705433	6.766641648960327
O	1.0642793747646166	32.46317166240888	8.13311052725409
O	1.8846179007991581	26.023178128813157	8.343531125219561
O	3.792350961316415	27.883761392284043	7.627008662557786
O	2.2085037623845065	30.983225397300526	7.044522463210111
O	4.613306562140605	29.948957504313384	6.439390638132849
O	2.8674386405943286	32.039381109776734	6.92530144777267
O	2.5978509569091415	29.72325123958873	6.685001506227108
O	1.8652778608289857	32.9857464879208	7.284555949813553
O	0.7171693441326976	24.656501414314043	8.668336439715583
