17

O	-1.6370343078513931	31.273462707843457	9.46317577859126
O	2.032656548606179	32.59177638915427	6.7224412455670155
O	2.3939572272044978	31.35204856795604	7.233574436402546
O	-0.7037426278181761	31.230958233384143	10.490648357000865
O	-0.6599176837977206	29.79425285847064	10.649608985642331
O	1.8752203162698702	30.864575130583894	8.45052886218456
O	0.6129509352978592	31.37476461318098	8.650037408389025
O	-0.394808047200614	28.959483310675672	9.126067149130499
O	0.325334056001154	32.82705511725842	8.511830031803648
O	-0.5836824595075994	30.645415048908525	8.540640461220665
O	0.8219354990802206	33.20930792433959	7.1787162217260185
O	-1.986472403152875	32.69121359829964	9.15113927537669
O	-2.1554299800197834	29.701215063085375	10.989827809641813
O	2.788665474184572	30.25280135505401	6.486661826964978
O	2.3905762661754912	29.04400090334082	7.1457920658707
O	3.4110196520634677	28.079488376334098	6.827429719351904
O	3.303249129897335	27.17352622557866	7.807669064066272
