73

O	-0.6780424969465118	2.2563880844139534	-0.16012681948837204
O	-2.0107213983465115	2.3039951334139537	0.10514449351162791
O	-2.653362908346512	1.1552702414139535	-0.26453228448837207
O	-1.9265309583465116	0.0628061714139534	-0.852540337488372
O	-0.6131062203465117	0.2958914014139533	-1.310628536488372
O	0.05138597265348832	1.4076816914139534	-0.9195294154883721
O	0.23948621165348827	-0.7313480685860463	-1.8612693714883721
O	-0.3081679143465117	-2.0234599285860466	-1.9460589914883721
O	1.4605317316534885	-0.6237558485860464	-2.074865271488372
O	-4.0351897883465115	1.1712051114139534	-0.0320700694883721
O	-4.817495578346512	0.018481121413953527	0.1539040085116279
O	-4.959209418346512	1.9914191044139535	-0.35937434748837205
O	1.3298889716534883	1.9742945014139535	-1.069289192488372
O	1.9028818116534882	3.1239900024139535	-0.492121244488372
O	-2.3118740583465116	3.4953694544139537	0.8469712185116279
O	-1.1559184273465117	4.398932571413954	1.2646895685116277
O	-1.4024439633465118	5.8087993514139535	1.5464759285116276
O	-0.3961752163465117	6.808311161413954	1.8540055085116278
O	-0.3931788173465117	10.515290771413953	1.6127620385116277
O	-0.5311788753465116	9.213235051413953	2.3418039885116277
O	-0.07188837934651171	8.109489911413954	1.4829209085116277
O	1.3644883416534883	8.413720041413953	1.506566028511628
O	1.5564309116534885	9.750817731413953	0.848433248511628
O	0.3893537116534883	10.387034301413953	0.4815338185116279
O	1.4951407016534883	7.396570931413953	-1.594379205488372
O	2.5633254816534885	6.668266921413954	-2.008556091488372
O	2.7827879516534884	5.387545741413954	-1.4704342764883722
O	1.8058532416534883	4.524810101413953	-0.9005594024883721
O	0.6917574616534884	5.311481421413953	-0.909883054488372
O	0.4537446216534883	6.623799671413954	-1.205532443488372
O	-0.7162664599465117	8.257097851413954	-9.854366151488371
O	-3.4232157183465115	8.156094241413953	-7.100933861488373
O	-2.2320630083465116	6.259406551413953	-4.068773181488372
O	-5.272223438346512	7.104437391413953	-1.9307106914883723
O	-8.775082078346513	6.102090991413954	-0.994712326488372
O	-9.617799448346512	4.530082701413953	-4.995230441488372
O	-6.114554238346512	3.0901145134139534	-5.294091341488373
O	-3.5493295983465116	3.8933634914139534	-8.030542511488372
O	0.0799898306534883	3.0257520914139535	-8.703516481488371
O	-0.004140155346511687	1.3860849814139535	-12.07547495148837
O	4.483266501653488	-1.959418658586047	-11.067121851488372
O	1.4741313516534884	-2.4850952885860464	-8.833936551488371
O	-1.1423231743465116	-0.9095386385860467	-6.597200981488372
O	-4.503195078346512	-0.9373792585860463	-8.368037641488371
O	-7.619959998346512	-0.7177244485860466	-6.220633301488372
O	0.3577186116534884	-7.852456148586047	0.600126728511628
O	-4.231518388346512	-5.649892188586048	-8.202288521488372
O	-1.8507901783465117	-5.6715844685860475	-5.301977101488372
O	1.8889513016534885	-6.008975068586047	-5.0256887714883725
O	3.3045499416534887	-2.4918077985860463	-4.652619501488372
O	6.724517501653488	1.9499871554139534	-1.323950895488372
O	5.810334701653488	3.0507495424139535	2.2470760085116277
O	3.2124442516534883	2.6645185124139537	4.9900192485116275
O	3.676480311653488	2.5065298456139535	8.75229668851163
O	1.8148810416534884	5.761815691413954	9.373196348511629
O	4.357724031653488	7.614919231413953	7.2955597885116275
O	7.2946649416534886	5.778370881413954	8.81802337851163
O	7.388276951653488	-5.407025078586047	12.866670848511628
O	-0.9645193173465116	2.0742889514139535	10.379727548511628
O	-2.248286128346512	3.0775669684139535	7.057022958511628
O	-2.678467218346512	-0.3512234485860466	5.669577918511628
O	0.5696877816534883	-1.7068799885860462	7.053882398511628
O	3.1507907416534886	-1.4509613585860466	4.309430218511628
O	6.930438321653488	-1.6656724585860467	4.667484428511628
O	9.873710291653488	-2.2847424885860463	2.3366944885116276
O	6.092338911653488	-5.242617868586047	6.9373981985116275
O	2.8748466416534884	-6.4400783985860475	5.350464428511628
O	-0.8542653348465117	-6.392585398586046	6.006923838511628
O	-2.9368844483465115	-4.738914288586047	3.328283258511628
O	-6.686080148346512	-4.821074788586046	2.6365176785116278
O	-7.114040988346512	-8.256504148586046	4.303694928511628
O	-10.650486908346512	-9.655205048586048	4.687094358511628
O	11.825747491653487	6.814085141413953	-1.025358628488372
