18

O	0.43847662193761194	29.252733883934237	8.894716559620118
O	0.6522340189728578	28.252873736715646	9.905823768738172
O	-0.8212815317728371	29.882260622321894	9.124658816766681
O	1.3769572332488882	29.951823301688385	8.06535864723425
O	2.0538232551428317	27.842084342879566	9.699459165611641
O	0.10005351289630837	26.957827260956517	9.78890987959857
O	-0.4798616930521863	31.31346304268104	9.466379703718433
O	-1.795685535084079	29.247298644063328	9.644016285852372
O	1.0910955835200877	31.30420348156448	7.645052461091733
O	2.377540799468504	29.258219889472898	7.774810243596745
O	2.649211545666758	26.655131977849656	10.032646413215714
O	0.5182645675957581	25.809771843898567	10.392038661252387
O	-0.05738996805861374	31.96107518367292	8.247099796669186
O	-1.6590187537098449	31.749821456329432	10.22850123452522
O	1.8501022639951783	25.805412290469672	10.795547861189117
O	-0.16633055565262844	33.2121219979425	8.097867329128993
O	-2.4169324482646597	32.924922524658626	10.242424676782896
O	-2.102573678740449	30.90285449638447	11.091445938636857
