76

O	-0.9049789380000004	-1.9241122075957435	-1.5376062257170213
O	0.8590286729999996	2.8676448224042566	2.7104584342829785
O	-1.4023800290000004	-0.9793804075957435	-0.8096974257170213
O	-2.6542756670000003	-0.5302874575957435	-0.8171778957170213
O	-2.8837330170000004	0.1564510014042566	0.3753477492829786
O	-1.9054779280000003	0.9040415066742565	0.9548000052829786
O	-0.7231590960000004	0.32265367740425654	1.0019347632829785
O	-0.44843265700000035	-0.5801506175957434	0.022693918282978592
O	0.7377864229999997	-1.2803431975957433	-0.08723147271702142
O	0.39010298299999957	-2.1102597675957435	-1.1583805257170214
O	-3.8401757270000005	-0.7929330675957433	-1.4834756057170213
O	-4.886954117	0.2638604164042566	-1.5115447857170214
O	-5.1751509570000005	1.1662388104042565	-0.3862436527170214
O	-5.331633167000001	2.5646584824042566	-0.37460360271702137
O	-5.345873967	3.3817991424042564	0.7762263112829786
O	-5.870594757	2.7973321324042564	1.8902205842829787
O	-5.130047747000001	1.6207419924042565	1.9843828142829787
O	-5.499087537	0.7900038114042566	0.8893318172829785
O	-2.2599290010000006	2.2646551824042565	0.5786613682829786
O	1.9865931829999997	-0.8439076475957434	0.5569887162829785
O	1.9851377329999997	0.6969564854042566	0.6314042352829785
O	2.065600273	-0.8941425175957434	2.0856830242829787
O	-1.0986388670000005	2.937013692404257	1.2112567532829785
O	-1.5313418713000004	2.8113076024042565	2.7016579942829786
O	-0.2847437970000004	3.3797347024042566	3.2859198042829783
O	-0.36602605700000024	4.814191402404257	3.0346916842829783
O	-1.5241479038000003	5.565966242404257	3.3704275942829782
O	-2.824760297	5.033491062404257	3.0560760242829783
O	-2.6712615270000004	3.724196342404257	2.5003704242829783
O	-9.635563677	-6.161505447595744	5.566735614282979
O	-8.235460937	-2.8544061475957436	6.778730074282978
O	-6.735756197000001	-1.1080441175957436	3.8901928442829785
O	-6.085272837000001	2.1563350424042564	5.722598554282978
O	-4.064331017000001	3.8140977324042566	8.398127734282978
O	2.897580153	4.980827852404257	10.510609314282979
O	0.5872799029999998	2.1058892924042567	11.551482914282978
O	-2.4776873970000004	0.21570700640425655	10.291735514282978
O	-2.3622156700000003	-1.5318963475957432	6.918433494282978
O	-4.304549827000001	-4.679052897595743	6.112688804282978
O	-4.909265647	-6.616870337595743	2.9584385442829784
O	-3.8088196270000005	-10.123087657595745	3.9381597342829786
O	-2.3006937090000004	-11.568501157595744	-1.3307251857170213
O	-0.27746319700000033	-8.791428047595744	0.2272183249829786
O	-0.5346306870000004	-5.510194537595743	2.0753278942829785
O	0.5271076129999996	-5.998456517595743	5.718046424282979
O	1.6655619429999997	-2.8953702775957435	7.584305984282978
O	5.886822942999999	-0.9727460175957434	-4.4745650257170215
O	8.830271553	-4.663108687595743	-0.003410694717021434
O	9.506697252999999	-9.089255237595744	3.6957630642829784
O	6.233796093	-4.847295837595743	6.6652097042829785
O	4.857921703	-7.075612947595743	3.9140226542829786
O	4.3080718629999994	-5.2720189175957435	0.6124782872829786
O	3.1788303429999996	-6.2793947475957435	-2.8416438657170215
O	-0.5853477160000004	-5.525036357595743	-3.0555035157170214
O	-5.964260997	-2.3398452375957435	-5.327102365717022
O	-6.2797220970000005	1.2808629634042565	-5.701956535717022
O	-4.464907087	4.456747352404257	-4.952516405717022
O	-4.435891547000001	7.607040992404257	-7.038050345717021
O	-6.617942657	9.530933922404255	-4.566032515717022
O	-9.445859417000001	7.121137002404256	-5.066558855717021
O	-2.0445437870000003	10.710814722404256	-4.039386665717021
O	-2.7646433870000005	8.362923322404257	-1.3071071957170213
O	0.6875336729999995	6.652262152404257	-1.6636316557170214
O	0.7169242429999998	6.3693595924042565	-5.361867445717022
O	-0.7722204950000003	2.972628252404257	-6.224215055717021
O	-2.1702881360000004	1.8908851314042565	-9.569295075717022
O	-3.1319131270000002	-1.3537659875957433	-11.234447685717022
O	1.2145857029999996	1.0357398254042565	-14.026558485717022
O	1.6321665029999997	3.4000428624042565	-11.09268298571702
O	3.9684415129999993	2.8454873724042566	-8.12433591571702
O	5.490853713	4.728502302404257	-5.178166035717021
O	4.516159892999999	3.375735882404257	-1.7254127157170214
O	5.906163212999999	3.9637402224042564	1.7818882242829786
O	9.385671153	4.863600472404257	0.3944804182829786
O	12.137604752999998	6.0673286724042566	2.7824279542829786
O	10.273205153	4.748263522404256	5.816070154282978
