30

O	-1.3153510651334277	26.34414024512245	12.281243453351529
O	-2.3260962192983152	27.41835695084911	12.259609068194901
O	-1.812497223156528	28.542495232251653	11.559705617579958
O	-2.38914052876273	29.804256999250153	11.64596905624334
O	-2.0943411418560265	30.719400552976357	10.62485670277118
O	-2.9579236959784776	31.91296833251672	10.470568798594613
O	-1.4967236181192556	30.099796399884912	9.45638664455625
O	-0.4064892821192093	30.60285467359265	8.635737288025025
O	0.7438158545488385	30.163034584998716	8.13904595168577
O	1.936091331287863	30.8065138992725	7.813454063230332
O	2.728682412580464	30.282071879219426	6.754008978471217
O	3.6769243140512122	29.280350076547627	7.001139803352989
O	3.630387290145085	28.030680093591762	6.19886244655506
O	2.438699674055888	27.204937271459908	6.564869521512755
O	1.8882132748028508	27.128617580401297	7.949024970462483
O	3.205008698675314	27.46531890607031	8.492165155856988
O	4.149703141271077	26.488728435776494	8.107394311900956
O	3.949999433948733	25.964881279897654	9.42441669576077
O	2.410959863277818	25.692110421861763	9.710275950944483
O	2.8943840191341925	24.225377232513292	9.85988931286508
O	3.1048565279936957	24.025290149288903	8.50452326203627
O	4.498367103351495	24.136041107019835	7.981736655444971
O	4.110980185346568	25.453670277296766	7.241552467248207
O	3.4454936023926943	28.848887285385228	8.403303721419576
O	1.4680953765365163	32.14798107077907	7.424777500731161
O	0.661743312715446	32.53698058454249	8.478112415765297
O	-0.17487654464471689	31.79593154711258	9.472915654156983
O	0.21460923027954634	30.685810476164352	10.463637305820766
O	0.7187604956792722	29.312959747072213	10.114173085918464
O	-1.4697321207736105	28.350640732133414	9.846734126989201
