70

O	1.9343423473148147	-2.725604358775926	-3.116435845888889
O	3.019570157314815	1.7139962462240739	-1.7118523058888886
O	3.5925033973148146	3.784153171224074	-0.7941998548888887
O	1.6305665673148146	2.771903261224074	-0.27655093458888863
O	5.1040710473148145	2.488825941224074	-1.7964782058888886
O	2.7654482073148148	4.304101061224074	1.1831285841111112
O	0.9569685173148149	-1.4334085887759263	-2.524377735888889
O	-0.3260933456851851	-1.4792117987759261	-1.9287662858888888
O	-0.9145652376851852	-0.3312219787759262	-1.3425491358888888
O	-0.16170486668518508	0.7720107512240739	-0.9277651788888885
O	0.9557040173148149	0.8082321070240739	-1.6135009358888888
O	1.2745431073148148	-0.0736278327759261	-2.6804939558888887
O	1.8115860073148147	1.9255856212240738	-1.2730380838888886
O	3.863125667314815	2.5343493212240737	-1.2447605048888886
O	2.5611876273148146	3.621222491224074	0.08966120811111133
O	-0.3253375346851851	1.724163281224074	0.024462607111111367
O	3.635083917314815	10.848735391224075	-7.9865295858888885
O	4.202623117314815	7.252540751224074	-9.10146437588889
O	4.665211177314815	5.0576595512240745	-6.089017215888888
O	5.5589136773148144	1.946399631224074	-8.107948075888888
O	4.268473177314815	-0.902909268775926	-10.27245510588889
O	-0.967865282685185	-5.822511358775926	-11.11046181588889
O	-0.9205212176851851	-2.221835538775926	-12.30792121588889
O	0.651213137314815	1.1559385452240738	-11.590949515888889
O	0.24431964131481487	2.806682031224074	-8.17643425588889
O	0.17328049031481496	6.549079351224075	-7.532619325888888
O	0.10125897131481487	8.773022021224074	-4.490039825888888
O	-2.999693292685185	10.849333331224074	-5.007686875888888
O	-4.1818037926851845	11.515135061224074	0.5031676851111113
O	-4.346337792685185	7.944173401224075	-0.7989925598888886
O	-2.4822122526851853	5.262762721224075	-2.796103235888889
O	-4.325168402685185	4.844126911224074	-6.115458855888888
O	-3.854487032685185	1.575645566224074	-7.961665245888888
O	-11.812358212685185	-7.402896678775926	0.5026902321111113
O	-2.299255812685185	-4.675671948775926	10.19449078411111
O	-3.9782293426851854	-4.812901348775926	6.809308614111112
O	-3.794672772685185	-1.767411348775926	4.551192774111112
O	-7.356910642685185	-0.48164917877592617	4.349507854111112
O	-9.091286422685185	-0.6617843287759261	0.9662888641111114
O	-10.997484412685184	2.632254651224074	1.0186508241111114
O	-12.905335812685184	2.361799611224074	-2.2408079858888885
O	-8.445515792685185	0.628022953224074	-6.059000225888888
O	-8.092554542685185	3.392345581224074	-3.4937254858888886
O	-6.030678772685185	2.428470321224074	-0.47060833288888865
O	-4.977296872685185	4.053289421224074	2.7445389441111114
O	-1.739127422685185	5.786048461224074	2.3325938341111114
O	4.918602317314815	6.536101371224074	3.5787982041111115
O	7.416501177314815	3.663662261224074	3.4154074841111113
O	7.747062437314814	-0.060113153775926076	2.6839679741111113
O	9.888606287314815	-2.6631475687759263	4.454842434111112
O	12.239639287314816	-3.0498946487759264	1.4748257641111113
O	13.261063587314815	0.559453326224074	1.7465571341111112
O	7.013033657314815	-6.361453098775926	12.94164828411111
O	2.118953857314815	-7.693568238775926	13.857238484111111
O	9.127176007314816	-6.624979558775926	1.5518975241111113
O	7.765512257314815	-4.319983848775926	-1.1207104778888886
O	4.166050127314815	-4.887525028775926	-0.03333850088888862
O	4.737037937314815	-4.613300368775926	3.708960774111111
O	4.143591217314815	-0.9834468887759261	4.638694214111112
O	5.288715837314815	0.819288374124074	7.805211764111111
O	4.4249618373148145	4.067535441224074	9.594267984111111
O	2.9574649273148146	-0.2881656287759261	12.827559484111111
O	3.456132387314815	-2.5262521187759264	9.793704084111111
O	0.6995783673148149	-3.544964508775926	7.396256934111112
O	0.020818445314814915	-6.200477278775926	4.755353574111112
O	-0.7214618816851851	-4.777127108775926	1.3299343241111112
O	-2.214944372685185	-6.131548088775926	-1.8975303158888888
O	-4.163246152685185	-8.817887328775926	0.07938616111111135
O	-6.136306682685185	-11.497195438775925	-1.8054909558888887
O	-6.056124272685185	-9.518905138775926	-5.039983625888889
