73

O	-0.874899479082609	-3.073731329484783	2.5815085489956524
O	-1.883125175082609	-5.445670339484783	4.192292248995652
O	1.343216804917391	-4.218600839484783	1.9310776289956526
O	0.49685834491739095	-3.1773554294847832	1.5610798889956525
O	2.1910351349173913	-4.3872321794847835	0.6523034389956526
O	2.7202067749173913	-3.111264779484783	0.4573138709956525
O	1.123243354917391	-4.6229189594847835	-0.4192696678043475
O	1.1266843849173909	-5.913721499484783	-0.9078265680043476
O	1.400899224917391	-3.5729781894847834	-1.4467688510043475
O	1.996577674917391	-4.203994409484783	-2.5238836010043473
O	2.274334494917391	-2.6144280794847834	-0.7234983660043475
O	2.5681926449173913	1.5348934005152168	-3.5990069710043473
O	-1.993239665082609	-2.623663179484783	1.6917519589956527
O	-3.370065745082609	-5.385565289484783	4.249038298995652
O	3.1229260949173914	0.33468742051521694	-3.7692149410043476
O	-0.563087976082609	-1.6563024894847833	3.4724236589956528
O	-1.5439776250826092	-7.046460119484784	3.6853237889956527
O	3.0926848449173914	-0.6239078254847831	-2.8440583810043476
O	-0.9676797900826091	-4.4450187894847835	3.3716338989956527
O	-1.457971045082609	-5.397777859484783	5.848350468995652
O	2.2365447249173913	-0.4519529124847831	-1.8077050310043474
O	1.600949984917391	0.7463600605152169	-1.6460439510043474
O	1.6938550749173908	1.6998258305152167	-2.6141247610043474
O	1.003950704917391	2.9068600805152167	-2.4617373310043473
O	0.8368152849173909	0.7257721225152169	-0.5551475390043475
O	1.071254964917391	-0.4911538704847831	-0.006222650004347519
O	1.8678112449173911	-1.2424044354847832	-0.7671046380043476
O	13.17077748491739	-1.3581788894847833	-0.6871778710043475
O	10.56681308491739	-3.107850089484783	1.4516425289956525
O	7.2459038149173915	-3.3099441594847834	-0.3908503395043475
O	5.681355144917391	-5.453385349484783	2.2779855989956523
O	4.2026058049173916	-5.589447379484783	5.776657268995652
O	-0.532066026282609	-2.183819689484783	10.131920758995651
O	3.198149784917391	-1.5636533594847832	9.794111758995651
O	6.013437634917391	-1.9590940694847832	7.2930990789956525
O	5.808591774917391	-0.3207384311847831	3.862212168995652
O	8.77453608491739	0.873030530515217	1.8239188989956525
O	9.26189900491739	2.214212250515217	-1.6586451010043475
O	6.265801804917391	7.031575650515217	-3.0436385110043473
O	5.167310694917391	4.245044210515217	-0.7601625920043475
O	6.060008584917391	5.006744400515217	2.8271078489956527
O	4.088747434917392	3.2339285605152166	5.532137668995652
O	5.405742164917391	3.3284340905152168	9.102983588995652
O	-4.6068145150826085	5.250006750515217	-3.8506856010043475
O	-2.696001165082609	9.650853360515217	0.5422236709956525
O	0.9272869749173909	13.241354780515218	3.3156117989956524
O	1.7514156149173907	7.709424360515217	5.796743948995652
O	3.033632234917391	8.732191390515217	2.3753859889956526
O	1.051162614917391	7.189777590515217	-0.4724405413043475
O	1.154391364917391	7.470511660515217	-4.239753621004348
O	3.2473812749173914	4.568364920515217	-5.5453501810043475
O	4.224555784917391	-0.933124546484783	-9.162713741004348
O	2.1339003249173913	-4.075108249484783	-8.707566101004348
O	-0.7241935900826091	-5.477935369484783	-6.674691291004348
O	-3.512435905082609	-7.759872339484783	-7.923215201004348
O	-2.195846535082609	-10.776870819484783	-6.024043481004348
O	-7.968391175082608	-8.355065219484782	-0.5741780910043475
O	-5.835552695082609	-8.837542449484783	-3.6798535510043475
O	-2.767795395082609	-7.571173649484783	-1.8034350510043475
O	-4.271771025082609	-4.114044569484783	-1.3362356990043476
O	-5.663278445082609	-3.669859329484783	-4.840825851004348
O	-2.9685890050826087	-1.9377848094847832	-6.893767221004348
O	-2.6570237250826088	-1.7651099094847833	-10.669880241004348
O	-6.813912675082609	-0.4815743414847831	-10.453200041004347
O	-6.969313885082609	1.256642750515217	-7.066854621004348
O	-8.03635766508261	0.5931814485152169	-3.4830644010043477
O	-5.211026935082609	0.8469166205152169	-0.9085389690043475
O	-5.285328185082609	1.1570049805152167	2.8911608389956527
O	-8.774459635082609	2.662803100515217	2.9135562189956525
O	-10.51993791508261	3.324438170515217	6.2584686389956525
O	-7.2762926250826085	3.0131886705152167	8.201980028995653
O	-9.04368407508261	0.08768898951521689	9.875994658995651
O	-4.105333695082609	-12.086142219484783	8.805864948995652
