78

O	-4.035629162659575	3.247795112659574	-2.771001571710638
O	-4.426648462659575	-1.2920048673404256	-2.409262731710638
O	-3.132312352659575	-1.3674874973404259	-1.8933169417106381
O	-2.3375616026595747	-2.485325377340426	-1.788157261710638
O	-1.0222352046595748	-2.008113747340426	-0.8874137987106381
O	-0.9932650456595749	-0.9951043073404257	-2.093931111710638
O	-2.239418114659575	-0.34376410734042573	-2.0125058117106382
O	-3.4697999226595746	-2.763535167340426	-1.080121087710638
O	-2.861921642659575	-2.308009947340426	0.10346248528936197
O	-1.9597691996595747	-3.506588087340426	0.16856832528936194
O	-0.6976322626595748	-3.3353058573404257	0.793200958289362
O	-0.4140610576595748	-1.9351030973404257	1.271201468289362
O	-1.190225188659575	-0.7414256473404258	0.8384480482893619
O	-2.494756202659575	-0.9459348073404258	0.180279481289362
O	-0.5847109746595749	0.5876121976595743	0.6183113482893619
O	-0.40037255165957486	1.4148867396595741	-0.569107344610638
O	-0.6766887906595749	2.802393022659574	-0.573555216810638
O	-0.05133526265957489	3.5672361326595743	0.43350174828936194
O	0.5823283473404253	2.562341752659574	1.314265588289362
O	0.6575751973404251	2.9938391426595743	2.6191156982893617
O	-0.6436935586595749	1.686709482659574	1.5886722382893619
O	-1.0246241866595749	4.047026332659574	1.3359385682893619
O	-0.7812532456595749	5.550162212659575	1.467039798289362
O	-0.4169677596595749	5.977063792659575	0.2179142562893619
O	-2.2710343516595746	4.105304792659575	0.5948876182893619
O	-1.951475365659575	4.710264152659574	-0.779905254710638
O	-3.4114672226595752	4.902372432659575	-0.8442159607106381
O	-4.064017072659575	3.6372683326595743	-1.124154262710638
O	-3.267926262659575	2.478082482659574	-0.755282513710638
O	-2.890725892659575	2.7849273926595743	0.5888663082893619
O	-3.898960622659575	1.4163812546595742	-1.159705946710638
O	-12.779419212659574	-3.5643725273404256	2.767790928289362
O	-11.045434242659574	-0.19370624734042574	2.9423022382893618
O	-8.285432102659575	-0.19173231734042584	0.580541608289362
O	-7.617463602659575	3.4464481826595743	1.121555868289362
O	-5.723672892659574	6.069943342659575	3.128101918289362
O	-0.15241721265957486	7.765489642659575	7.322096008289362
O	-3.344382302659575	5.974755302659575	8.301069588289362
O	-6.203976062659574	3.921250712659574	6.912737698289362
O	-5.5902607426595745	0.5916353566595742	5.245744608289362
O	-7.8344108026595745	-2.365482977340426	4.985839088289362
O	-7.812934762659575	-5.640418667340425	3.043823638289362
O	-3.165629092659575	-9.071596237340426	3.782272648289362
O	-3.218631302659575	-5.351974667340426	3.8648450082893624
O	-3.6721263726595748	-3.9429682673404263	7.342620648289362
O	-2.495315502659575	-0.40079620734042576	7.984241488289362
O	-3.5112681126595753	1.3654413766595743	11.16250849828936
O	6.140334877340425	-5.1155234673404255	-0.629429473310638
O	6.131125827340425	-6.178550487340425	5.737617198289362
O	1.468632787340425	-2.769753107340426	9.911651598289362
O	0.6025104073404253	-5.983609237340425	8.135782178289361
O	1.7236912573404253	-6.060833437340426	4.505267058289363
O	1.659212367340425	-8.681514517340426	1.7671678182893618
O	-1.430683984659575	-7.835260237340425	-0.346550322710638
O	-4.485299372659575	-6.259749337340425	-5.975786641710638
O	-3.7083707126595744	-3.275663637340426	-8.244679551710638
O	-1.577368880659575	-0.029878555340425716	-8.075690281710639
O	0.0832754173404251	1.7724622926595743	-10.861176201710638
O	-2.274727515659575	4.785437932659574	-10.62289020171064
O	-5.251586052659575	2.647346662659574	-11.367028601710638
O	11.642950787340425	-0.31519573734042583	-9.482641471710638
O	3.9393582773404257	7.948613162659575	-6.2123677017106385
O	1.9319360073404253	5.757227472659575	-8.617084461710638
O	-0.34713209365957487	5.001288552659575	-5.713081401710639
O	2.364131837340425	3.188511142659574	-3.788068611710638
O	3.7068213673404253	1.1968301446595744	-6.6577104617106375
O	1.869268337340425	-2.114318607340426	-6.714987731710638
O	1.539820597340425	-4.647031687340426	-9.466733861710638
O	5.878266697340425	-4.2464698773404255	-9.600715491710638
O	6.7487149273404246	-3.418243887340426	-5.9816676117106375
O	7.544683157340426	-0.43208723734042576	-3.788592051710638
O	5.1523387373404255	0.053410815659574284	-0.913566438710638
O	5.210335067340425	2.2987103126595745	2.159947828289362
O	9.085417687340426	2.1441726226595743	2.2569317582893618
O	11.145389287340425	4.150974422659575	4.816239918289362
O	8.065010367340426	4.647210692659574	6.986922868289362
O	8.630512297340426	8.343125702659574	6.2620486782893625
O	-0.7357954436595748	15.016445322659573	0.03278018828936191
