15

O	2.191142918647147	28.836726013932335	8.42224824767562
O	3.0146849718364397	28.146843319247274	7.666925000419845
O	3.1709096465729454	28.540013333672988	6.425901905937396
O	3.162419560570723	29.88358669536183	6.334323878092235
O	2.101864626721647	30.418359771936924	6.9250901472857205
O	1.7856765686155154	30.11007496351246	8.146713140122776
O	3.2298879323746066	26.829191960995274	7.766826257177226
O	4.149963593349408	30.213888397995223	5.544422347405499
O	0.31516757458417677	30.305970854921544	8.581604258303228
O	0.20267489211882905	31.108192830397506	9.566790505715767
O	-0.7424146287809852	30.708847396788414	10.580524269820723
O	-1.0581662682160902	29.37648794365311	10.909032244646724
O	-0.7598831626072475	28.4304777489439	9.980799341534427
O	-0.45381860022060705	29.13277009750024	8.771803037340144
O	0.18635448155541784	32.39482771242706	9.00403803876372
