77

O	1.9556617929215687	-0.2665192638313725	1.4407850548431367
O	1.7282265129215686	-0.12202394714137244	-0.015569663956863239
O	0.49112501492156857	0.5249574611686275	-0.051677000956863235
O	0.6739570279215685	1.4140949411686277	-1.0287818951568632
O	1.7850237329215686	1.2793247611686276	-1.7062784051568631
O	2.5642439329215683	0.5573426071686276	-0.9175600011568632
O	3.8768890829215685	0.11764619716862756	-1.3515418851568632
O	4.118149212921568	-1.2107027488313724	-1.1000060951568633
O	5.265150152921569	-2.1181796788313725	-1.0845448351568632
O	5.596353532921569	-1.8154885488313723	0.3007161138431368
O	5.277760232921569	-0.6472003738313724	0.9536120648431368
O	6.996435882921569	-2.278521658831372	0.4061026648431368
O	3.0692102129215684	-1.7905322588313723	-1.4685004851568633
O	2.2563612829215685	-2.731868798831372	1.4126768348431369
O	3.2530808229215684	-2.457345788831373	2.4081125348431365
O	3.7796072629215685	-3.8917268788313724	2.6595647948431367
O	4.762449682921569	-4.118070778831372	1.7098979448431368
O	5.741386792921569	-5.062116428831373	1.7389170748431368
O	3.9458396229215684	-4.308372898831372	0.6102000678431367
O	2.7335009029215684	-3.487066218831372	0.4985184688431368
O	-0.2510173360784314	-0.12475210489137244	1.0925294648431367
O	-1.5232204270784313	-0.7208623428313724	0.6411592318431368
O	-0.6234766280784314	1.0520821011686277	2.0055835148431367
O	0.6759651559215686	-0.9212028618313725	1.8274786048431368
O	1.0240712739215685	-2.3286973788313725	1.9848289348431367
O	0.7680157119215686	-2.7010412788313722	3.1849745948431365
O	11.500983502921567	4.351209011168628	5.167441294843137
O	9.304540792921568	1.8121776911686276	6.941855374843137
O	7.380245522921569	-0.17415339643137245	4.394990394843137
O	5.987951042921569	-2.5659964388313723	6.957250854843137
O	3.3660706529215685	-3.111865008831373	9.696388244843137
O	-3.469368307078432	-1.9744590388313725	11.609008794843136
O	-0.5404759980784315	0.38045500316862757	12.150306194843136
O	2.8930244529215683	1.1320128411686277	10.698196994843135
O	3.2891624729215683	1.9979679411686277	6.949645184843137
O	5.977084582921568	4.291406021168627	5.573745704843137
O	7.094314512921569	5.408529861168628	2.1796232848431365
O	6.872178202921569	9.174978631168628	2.3134377248431366
O	5.760677302921569	9.712937461168627	-3.2486408751568634
O	3.1264150829215684	7.890237381168628	-1.2171876051568633
O	2.5174969529215683	5.162557211168627	1.3123891048431369
O	1.6510934629215686	6.624522841168627	4.668366054843137
O	-0.23349471307843145	4.5278773711686275	7.188973714843137
O	-13.490536297078432	4.312694381168627	0.8560828938431367
O	-7.130784337078431	-2.5423837888313727	-9.394220785156865
O	-7.685458667078431	-0.9324145028313724	-5.999461405156863
O	-4.813907277078431	0.9765356111686276	-4.350973105156863
O	-6.084865457078431	4.569924721168627	-4.380973845156863
O	-6.715969077078431	6.221880451168627	-1.0218568051568633
O	-5.387685607078431	9.718413791168627	-1.7195882751568632
O	-6.230813857078431	11.410009821168627	1.5691523848431368
O	-4.121238607078431	7.265221911168627	5.561808804843137
O	-2.2530214870784318	8.407386351168627	2.4815658748431364
O	-2.2176841870784316	5.807613711168627	-0.29267768615686324
O	-0.8717430070784313	5.688196091168627	-3.8309507851568636
O	2.5379427329215685	4.081024441168627	-3.7453112551568633
O	6.884792672921569	-0.9609880868313725	-4.657814735156863
O	6.300823992921569	-4.511598238831373	-4.339568035156863
O	3.7414168629215685	-6.919447588831373	-3.1352672951568636
O	2.7687113929215683	-10.353357278831373	-4.417971175156863
O	4.343500822921569	-12.204787378831373	-1.4837966451568632
O	7.745867762921569	-10.722113178831373	-2.2338944751568635
O	-0.3263466470784315	-11.844177478831373	-0.7871477921568633
O	1.0452729789215687	-9.099220758831372	1.4212004248431367
O	-1.6781869270784313	-6.635791388831373	0.5119156718431368
O	-1.7485122770784314	-7.354746278831373	-3.2154312851568636
O	0.5517694149215686	-4.786717338831373	-4.859873585156863
O	2.1920977429215687	-4.926068398831372	-8.256349075156864
O	3.9646638129215686	-2.4861641988313723	-10.519498505156864
O	-0.8851402270784314	-4.276765518831373	-12.945016405156863
O	-1.8853968570784312	-5.726061418831373	-9.582797445156864
O	-3.925859417078432	-3.900210538831373	-6.921183955156863
O	-5.946466297078431	-4.640963828831373	-3.7763241451568637
O	-4.760087117078431	-2.7964008488313725	-0.6968651201568632
O	-6.125667067078431	-2.1586519488313725	2.7849323148431364
O	-9.711064617078431	-2.4728644288313726	1.4273154348431367
O	-10.558324397078431	-0.8474022508313724	6.615049374843137
