22

O	-0.7991171905478583	26.88525974024627	9.412467652669942
O	2.326420335792878	30.784153600267405	8.354863359972136
O	-0.29534264973418106	33.47047333169198	8.176396390621935
O	2.5349316474845276	27.862707267655423	6.117339813508369
O	2.9079390356067805	29.633489297382226	5.17995439478534
O	-2.4641391774558956	29.044258789615792	10.250367862907778
O	4.312356076542871	27.67645529162903	4.33441800179447
O	-1.1138324831204665	30.78467233361267	9.009195304645845
O	0.06768626691634407	31.063086625933945	8.314263849437562
O	1.1083490990185387	30.1323892653152	8.178100273951149
O	0.819191087830044	28.892029866135175	8.72153942082632
O	-0.42235224013534217	28.579555667386806	9.177333573163754
O	-1.3321374882242951	29.53957559512123	9.563196270630968
O	0.3672318840383531	32.34479567116653	7.660017976945095
O	3.452649760507133	29.814497820461664	8.588644415154558
O	3.406841991974769	29.32763902964347	7.275317487678305
O	3.136433389618214	28.009984607817334	7.265943446757566
O	3.2719134926136	28.295881283239638	5.043517952146866
O	3.4950205106610235	30.19399855544936	6.219817863197569
O	1.4031123726774464	32.547087038642786	7.003158861212422
O	-3.7468633647502205	29.450005521210304	10.111614341280577
O	-2.4249434043306626	27.910943973090593	10.830495842159893
