28

O	0.13714148696492887	31.188510641396196	8.605187551249157
O	0.5036856211659694	32.229804956562646	7.8361723868717394
O	1.6040762051860042	32.10656275419158	7.12568152523711
O	2.051886089046203	30.90293548751921	6.931007357660533
O	1.151091484247068	29.953295441415296	7.973630441709798
O	-0.6757025664898295	30.995257246989976	9.781739617058944
O	-0.22956071402974113	33.40644710161651	8.010507595011033
O	3.1664405007851677	30.332238311848492	6.335664311942632
O	-1.8197118055482209	31.42398472795514	9.747519842050542
O	2.9106217657121904	26.95526594490465	8.450531251555379
O	3.695177943410971	26.850338388420823	7.268982370039636
O	3.907472503320301	27.946885075812023	6.430582898070689
O	3.5988623147702636	29.138276016423468	6.941884460905475
O	3.4348691484550593	29.174583309646057	8.313428189210628
O	3.1050943517069984	28.0930111383215	9.10991823877408
O	3.0338448985746496	25.521542765799502	9.467515823185403
O	4.481424266299466	25.3660778069991	9.590373357006971
O	1.8621917147501958	25.5988190807217	10.612989913862332
O	3.19243720700456	24.11456351502733	9.085179904848495
O	-0.41321409341522264	29.74382776513734	10.336727156725187
O	-2.427922116791968	26.55039734291646	11.760832686937592
O	-2.5951312117255005	27.82123252368648	12.305010409909126
O	-2.3633315588184756	28.85606864063493	11.40370626061983
O	-1.304852399291564	28.6917111780472	10.576399896437843
O	-0.8501843677602242	27.422748145032887	10.252105205086902
O	-1.281292407936126	26.379232044724272	11.025023124282281
O	-0.17664691322198248	27.284421575952223	9.10360674150376
O	-2.4596019626541277	30.136056982670535	11.762701619250713
