22

O	-1.4060551102690462	26.109710267622333	12.158606134024886
O	0.37529693128193703	30.879773737704564	8.69266839357926
O	1.9914780707304423	30.42585490183318	7.197914066977929
O	0.8263018408166491	28.71145619569652	8.205845574116623
O	1.1378021744272961	32.48338813177489	7.191038606389418
O	2.996411462664723	28.30162455354641	8.078662647075365
O	-0.7850027208781565	27.791926134046534	12.102573812009194
O	-1.8757661554490759	28.66078645515739	12.650315109403701
O	-2.168440895657925	29.780334790792974	11.72185764907135
O	-1.1876343414675061	30.309869458319522	10.76484203335968
O	-0.024572690157720123	29.43870945416143	10.356399357380507
O	-0.6577544740658359	28.164101786380918	10.657861564135906
O	1.0286232031220262	29.636549957769436	9.236581570265297
O	0.7385880218924312	31.08366363361238	7.3255934007546
O	2.0022596739552654	29.004511361940338	7.3324003108377696
O	2.490657951589081	27.10945196274608	8.762376407994351
O	2.5087635368590244	27.251070081203856	10.254291259544006
O	1.8949615151663102	26.14755103314343	11.033870256838357
O	2.162818277282775	24.77130528247278	10.592931568753507
O	2.899471930752753	24.758910610452368	9.33687965262526
O	3.349529300175275	25.89772775220532	8.525946192489094
O	-1.6938123127084768	31.098799922979694	9.786267071607476
