29

O	-1.6091050459095713	31.56126412438691	10.64699234428274
O	-1.475501081342435	32.412331940561074	9.39251001482072
O	-0.16732138520216466	32.08554392727754	8.764824837617262
O	0.6493203530421563	32.88806054684186	7.975554812114691
O	1.5194186579379272	32.11349813625311	7.31542155520608
O	1.3283828293966748	30.893980943601445	7.751869330838944
O	0.41223761813122173	30.846845576064215	8.720917999510682
O	0.16199129349316865	29.64322000452048	9.2384677600674
O	1.1543016169343971	28.70227074065953	9.313125471809398
O	2.0805495096378728	28.7344951122049	8.330346075841433
O	2.1772390088945817	29.871342701652765	7.545050267717809
O	3.341631594782984	29.721341824221753	6.772172016778107
O	4.489372296226039	28.94271133417769	7.0817480029599515
O	4.728553501141798	27.58312280189373	6.618329779622638
O	5.253046979646344	26.739614289929175	7.613844035615641
O	5.6892541017806995	25.49044425594202	7.266263100786861
O	6.359762508328901	25.326399173541162	6.050398886707853
O	6.288923669923793	26.33216630061564	5.189762178618317
O	5.319023973274519	27.257995573209048	5.390151002724139
O	6.444449262300662	25.961056578320832	3.859515508167817
O	0.5208149441702892	27.40893665531008	9.628410231128086
O	-0.06974346971319756	27.03540587501118	10.889088899235805
O	0.4548718509933858	25.823183759421287	11.558175660400318
O	1.4373927165622997	24.855940334065703	11.01391333893459
O	1.2392378668836006	24.967526276650318	9.534324602236646
O	1.4188475204015232	26.366039237768792	9.233514241677115
O	2.783239102472936	26.68756337239605	9.747550236223672
O	3.5530639562367656	25.61456804029041	10.42785095680745
O	3.8961207137831666	24.492359842193032	9.727871338099392
