72

O	2.9603606248388887	-0.6246337993518514	0.8934546042092593
O	1.7297203148388887	-0.15288873235185135	0.9991464442092595
O	1.4348631548388886	1.2236121056481486	1.2605319142092595
O	0.7442868918388886	-0.7967591723518512	0.3502557292092594
O	-0.7375316601611114	-0.5442884263518515	0.2354808602092594
O	-1.3176241151611114	-1.9247708023518513	0.34259277120925935
O	-0.49242137316111134	-2.7867673423518515	0.9421768342092594
O	0.09573140183888865	-3.969561232351851	0.4218708462092594
O	-0.7268761831611114	-4.676517782351851	-0.32291429499074065
O	-1.5167154551611115	-3.8297554423518516	-1.0072357877907407
O	-2.0605113951611114	-2.6321735323518514	-0.5176476207907406
O	-1.2239434551611115	0.3326848315481486	1.1642802542092594
O	1.6218369248388886	-2.2806218323518515	0.028632859209259398
O	3.0975871248388884	-1.9408264823518513	0.7289421042092594
O	4.140774104838889	-2.8162041523518515	0.4752306482092594
O	4.007252224838889	-4.229727532351851	0.2759418832092594
O	3.5051745548388884	-4.622569492351851	-1.0803424987907406
O	2.6044682548388884	-5.825077742351851	-1.0117682227907405
O	5.058137714838889	-9.135402052351852	8.78721152420926
O	1.8797662448388885	-9.698761862351851	6.76986997420926
O	2.0288594748388884	-7.842474652351851	3.468680814209259
O	-1.2333956151611114	-9.342688682351852	2.2154452942092595
O	-5.039821215161111	-9.298511012351852	2.4165400842092595
O	-10.829007835161113	-4.954684972351851	2.6301908942092593
O	-8.761311315161112	-6.257081562351852	5.52187460420926
O	-5.331525185161111	-7.584111172351851	6.4668031142092595
O	-2.2373895151611114	-5.416007632351851	5.7840169342092596
O	0.9957788648388887	-5.516699232351852	7.77070266420926
O	4.406636904838889	-3.948418362351851	7.421736824209259
O	4.771717864838889	-2.1307636823518514	10.69171121420926
O	8.089542404838888	1.9625193076481486	8.60385156420926
O	4.544701824838889	1.8344614576481486	7.22857210420926
O	1.8410436648388886	-0.3966446323518514	5.70194500420926
O	-0.8643069961611113	-0.8715828223518514	8.31165158420926
O	-4.279456625161111	-1.8726992723518512	7.090278264209259
O	-6.878586665161111	-3.1546304023518514	9.55754729420926
O	-8.692843835161112	10.747943237648148	1.0489891542092593
O	1.7476636048388885	8.765343997648149	-7.824591215790741
O	-0.7668323251611113	8.029774757648148	-5.082357545790741
O	0.3257451958388886	6.090539467648148	-2.0283349757907407
O	0.09949201183888864	8.582382067648147	0.8151362742092594
O	-2.4621050351611116	7.913048157648149	3.538807004209259
O	-0.4623327741611114	8.983147627648147	6.6071945642092595
O	-3.0946467951611116	8.558099717648147	9.29666543420926
O	-5.275029205161111	3.0105356876481486	7.894564554209259
O	-1.5898490751611114	3.884038557648149	8.00769884420926
O	-0.01976244146111135	4.192603907648149	4.5684128042092595
O	3.4233989148388884	5.165085447648148	3.2957800842092597
O	5.338490754838889	1.8859830176481487	2.6960296342092596
O	8.687313574838889	-2.5272129323518513	-1.0367273497907408
O	7.157810294838889	-4.168820802351851	-4.096323225790741
O	3.9674637048388885	-4.3220956823518515	-6.13452067579074
O	3.6697080348388886	-4.576306592351852	-9.92689232579074
O	2.3578252648388887	-8.146069592351852	-9.81195966579074
O	5.539492434838889	-9.305516232351852	-8.173918635790741
O	2.8461536348388887	7.967000157648148	-14.17963398579074
O	-1.2416570351611114	-5.134576182351851	-10.46408368579074
O	-1.4319809051611114	-5.987900402351851	-6.7695204057907405
O	-2.2871650651611115	-2.3987190723518514	-5.81046919579074
O	0.23258760183888863	-0.6598801023518512	-8.04727293579074
O	3.3705784148388886	-0.1645867533518514	-5.96340497579074
O	6.884299594838889	0.5671347856481486	-7.1723877857907405
O	10.103024464838889	1.8314450576481487	-5.62605884579074
O	8.204749814838888	5.585473897648149	-9.42043643579074
O	4.903833384838889	3.712699177648149	-9.44450818579074
O	1.9314725048388888	4.573011537648148	-7.20946862579074
O	-1.7884311251611114	3.847160467648149	-6.92991334579074
O	-2.8225253651611113	2.1611055276481483	-3.679961705790741
O	-6.1629753651611106	1.5649455876481486	-1.9901004857907407
O	-7.709307185161111	4.711236317648149	-3.743141115790741
O	-11.433212735161112	5.492040617648149	-3.324322865790741
O	-11.711830935161112	3.194086807648149	-0.31759790909074065
