21

O	4.901494271040438	23.69961362330315	5.2035968509128026
O	2.6296379179852134	30.092356522342225	7.009332576352211
O	-0.2094596138146001	33.158265449502004	8.151822687115562
O	4.601484791947032	26.410477509796678	4.868254616103005
O	-1.757905017599751	28.250948728519525	9.820584023906168
O	-0.4887686866671568	30.34014322507135	9.090945281554502
O	0.49508841021186567	30.73018879042655	8.173346559808316
O	1.5490011368410426	29.87837182323432	7.899591601877557
O	1.5410134085104592	28.652975592653544	8.501535236207747
O	0.4004050283664906	28.082026138287624	8.979455274024417
O	-0.5407693200000174	28.96868071598676	9.514824685083308
O	0.5938378935198211	32.08385520216952	7.648716576665803
O	3.8636990879019635	29.356347614088868	7.073851366196724
O	3.905179315454946	27.97171179391133	6.573049999507273
O	4.5068395421571985	27.693597557418126	5.341655816858251
O	4.170302313183944	25.309610510042397	5.531834207706955
O	3.7481018014741014	25.64313493908255	6.82215902135888
O	4.139468897775313	26.86222584792124	7.406626448433588
O	1.5411923620736656	32.437724074543524	6.907852945643981
O	-2.8374064424565795	29.11008759842782	9.998768678088386
O	-1.8562602299361024	27.324968757862948	10.621362864316056
