29

O	1.694930865602163	26.94189935838381	8.921606570224917
O	4.378943949055401	29.22324839521652	5.240641104109386
O	6.023932087628405	24.08466081966134	8.628862307097037
O	-1.3865870821134147	29.838384950134	11.613981782365105
O	-1.5752190009123654	31.188006476150658	10.992608735681145
O	-1.6200789425267899	29.23569471297513	9.649256617297942
O	1.2487239515477135	29.564119322016623	8.827862164125495
O	2.0862020719711527	27.89368620610134	7.7506861977582435
O	3.9229578836152355	28.955019015100895	6.667392828576958
O	-1.6332294433183514	28.756253089559223	10.898571277957206
O	-1.0685726316223771	31.57326181918148	9.692715653774773
O	-0.8767082170428875	30.363124026762733	9.126672938105754
O	2.420821315036256	29.136355953886707	8.185771912259563
O	3.323403136375937	27.624156648678905	6.858443535020279
O	0.39311479923510295	30.407735952770928	8.306102608761345
O	0.7443675765390203	31.78699307232557	8.171260807889624
O	4.071826753481516	26.917046204196268	7.847731787807494
O	3.1793141842349417	29.815728443611775	7.238279387177048
O	-0.3355674532307664	32.47594401764056	8.826051246059043
O	4.394874223864713	25.576489699571418	7.57013285071937
O	1.7893971437017393	32.040221642291584	7.549129471039047
O	3.9312915924993352	27.340368055561658	9.008709843387166
O	3.763526259801665	24.558659602600393	8.443101444937433
O	4.8063051661681175	24.293455031702276	9.411689559218239
O	5.830202653319825	23.80389174374973	7.2430249169776015
O	6.670667936967206	22.97235414250408	9.235289324223402
O	5.633847360579901	21.967279861429148	9.639569608338977
O	6.103958731537591	22.359684403580196	6.946728863901862
O	-1.0780687552157069	27.570863659107182	11.399448860210512
