36

O	-0.9617798085946448	27.351200485463654	8.2681100593659
O	0.5399147420715215	33.349505964327975	7.464291802441404
O	-2.125160433165358	28.04589305330263	8.61399233916147
O	-0.581043887345114	28.931776634994918	10.877674088819766
O	-2.095865878063699	29.323387522139825	8.228416381139272
O	1.1231464305628256	28.12034237547403	9.139966681855721
O	-0.9070972286969036	29.665182490527258	7.349062977230986
O	2.2141676359512377	26.05046177809635	11.684129826023721
O	0.2580476569411386	26.531717521904923	10.136459232305379
O	0.4917130779425125	29.16573828706737	7.452486337892045
O	2.3510759305089093	31.954877307041674	6.367863385467224
O	1.501530657755144	29.924942275763637	8.068866154556366
O	1.4722312869070242	29.085171609118085	11.787731213768932
O	1.2318098502669201	31.322935175731466	8.173344980283138
O	1.3551401701939105	32.27406924289567	7.098347606288371
O	-0.2892760640871615	33.10804531337653	8.546881383919326
O	0.2721264629366762	31.843365358310884	9.060029129936707
O	-0.3388847133294315	31.006561298321834	9.914409003168997
O	-1.559366914487725	30.780993344079533	10.485596820760827
O	-2.664847162934619	31.54474203787325	10.430085574966807
O	-3.840552919629393	30.900132170367435	10.967672152052973
O	-3.846623881379849	29.47731022729173	11.149606552008978
O	-2.6993034769976707	29.18501465240524	11.879515820678705
O	-1.6091005259687479	29.65693750258689	11.25174065144116
O	0.2827906954220458	29.86010093756075	10.192637680317642
O	1.456159191482271	29.382123844011225	9.390325715905066
O	0.30655656093841277	27.97218773078072	8.175584638424345
O	-0.17371299120340494	27.576211869176287	10.954372842728514
O	1.2110843420909876	27.849564257061115	11.366563936017018
O	2.43296459352834	27.203719777163833	10.99143070166501
O	2.853883046345032	26.896960009467154	9.656600804848175
O	1.4581253662186944	26.67206265335167	9.38924470070951
O	-1.213437043164129	26.77969583489294	11.673358057837978
O	0.5295671900250245	29.44183433526686	12.711336374753904
O	2.3868501772572066	24.898392531131943	10.84361320756184
O	-1.44596469325767	32.53293255941503	8.24283520527044
