23

O	-0.32952592746256354	29.337889791374963	9.721960833849305
O	-1.07376402127997	30.190959985752052	10.433915007012683
O	-1.2575884810016225	31.22683739874496	9.636722557921651
O	0.36172042975792235	29.5554765242632	8.58147064241636
O	0.020903409406354545	32.869514631323824	8.10904530914142
O	1.0322905902840562	32.60318805430763	7.259789505850845
O	1.5887562638015822	31.449122646024193	7.5652581720514345
O	0.7169013020792392	30.873927037698852	8.510803516037635
O	-0.23897574710997008	31.82752545349827	8.897548256830236
O	-0.16621147032521094	28.027805651028523	10.275224532905497
O	-1.0673652572314654	27.517183010446423	11.152309038382704
O	-1.019100807044794	26.168513704033913	11.361810608926348
O	0.15345401871485093	25.51595782080956	11.122145780361219
O	1.2117278185679219	26.046293640675202	10.434344171534528
O	1.0998492651676253	27.426177932108402	10.2920206771813
O	2.567625929893549	30.73672527216927	6.79058711463232
O	2.9615504757000837	29.42668367844111	7.221083262018134
O	4.064376701069385	28.638738156966276	6.579496440687974
O	2.942030587742443	29.340719974096977	8.48780899201368
O	3.6832763284906354	27.175569709190054	6.597487627306304
O	3.5825456034530614	26.772461072645406	8.063591019109882
O	-2.1067555693991142	29.642832719875532	11.13925217770571
O	-2.3547914414440787	31.977407383269323	9.980201875622928
