25

O	-1.6366091020487066	26.78254917694796	12.194678681198765
O	1.4781753208330628	31.309078090498044	7.673705426452457
O	-1.540542360397155	31.34845638842735	10.631528776545776
O	0.17245780884536024	29.171713714759722	8.348417880818921
O	-1.0249579235791704	26.82807551508281	10.981709835149532
O	2.6187968027987902	29.620963302167738	6.9753705606577245
O	-0.4158983479281445	28.029721018176065	10.615543269311036
O	-0.10229252082328896	33.045487216632075	8.134882428575875
O	-1.2579450720639749	29.0742995746603	10.867752445991854
O	-2.4791272223178145	28.937294525911884	11.522646116043909
O	-2.5465983376291654	27.83496742848738	12.389347903441141
O	-0.13152210594027033	25.70051674214985	10.549393575055284
O	-0.8339233382271777	30.322021448928975	10.220871360298327
O	-0.2323745001524191	30.692462402238217	9.123181973504096
O	1.6100540468427658	30.02978394221074	7.964883282994172
O	0.31055951321917996	31.754191834147456	8.377151637886906
O	3.4252630774162323	28.67784025197534	7.550320599756139
O	3.3779431938616877	28.02354175809575	8.804894521700534
O	3.0526740923727487	26.677454230716886	9.033023586189666
O	2.909164904335827	25.834140585962235	7.972259993531154
O	3.8395957317728557	26.3029499376268	6.976316869813017
O	3.931069893739566	27.676522094438003	6.689742125231339
O	0.006523916588049211	25.824144050014855	9.206907328123227
O	1.002976000824549	25.918627589680735	11.249423574305506
O	-0.7155218175653675	24.56778384878667	10.88292673137391
