26

O	1.3058530266739663	32.19871396939532	7.433580932088088
O	2.965241581680371	30.393727972704053	6.961050337926881
O	-0.3490310416159792	33.6931440223842	8.248312004892423
O	5.292805589653412	24.858925610408313	9.72153890175389
O	-0.3183827130146988	31.334984861134195	8.787366181184339
O	0.22671266669621737	32.41111774840585	8.173660979528862
O	1.816335557251239	30.989655158210404	7.39659338320254
O	3.3900231337846733	29.11570628999948	7.370089939492438
O	-1.3242004160163388	31.054496064385994	9.813293085987233
O	-1.1778027844921317	29.739512314320706	10.451780088557545
O	-1.799718522396158	29.242979545788224	11.550403275182214
O	-1.3911180879010978	28.180702947749072	12.299766459962605
O	-0.2321168599318495	27.539363803926296	11.873027862773979
O	-0.033005843376833766	27.549603029345445	10.49701490801456
O	-0.4330808833157296	28.694697696515487	9.840880605976652
O	4.10964144997531	28.472302495983705	6.4337147171048805
O	5.031665087784928	27.557622336266174	6.852669863036295
O	4.64355383081239	26.678447321379807	7.808046069348785
O	3.7334482695498377	27.232274796094888	8.701703876562071
O	2.9286518574929756	28.325667829748987	8.378337851724723
O	-3.208216933912266	29.777879643453403	11.607919472845794
O	-2.0588837393005432	32.03716213372854	9.8762276493088
O	5.743476977340059	24.225168459290042	7.244911737663305
O	7.176720695731359	25.83002012621407	8.217654273638777
O	0.7506138965879876	30.10026159891902	8.347627877639765
O	5.7516255558381015	25.389875989781032	8.172241503157544
