30

O	-0.5330767681580391	33.2974429505285	8.273334232390948
O	-0.45002804678814184	27.045724185184035	10.377228363490946
O	2.2940851467143024	30.62595380861786	8.411773653682854
O	2.2376456238565754	27.224793168013896	8.948858953417918
O	1.5016847034804781	27.354622260629846	7.338461567964385
O	3.2279510766391155	25.329590162489303	7.729755971253911
O	1.0580217272442365	23.472907686800347	10.549606527223279
O	1.8594632000407305	20.987358715567694	10.249606395026223
O	-2.5179324631378637	29.00176795940834	10.76458236735968
O	-1.1398456877008667	30.624101170339788	9.450514123032479
O	-0.026685304344050545	30.816347107816664	8.604252250273452
O	1.0590234072286402	29.906887516459417	8.616876024680433
O	0.8329293571720273	29.088451795540177	9.734724863339974
O	-0.29496519846837105	28.45368128977856	10.168283918084962
O	-1.3442781886706174	29.374762587085762	10.082382983680517
O	0.2092597537376249	32.13878726772292	7.987700195538103
O	3.4654692182444204	30.114495975141818	7.686407978312903
O	3.2285042235439416	28.747459917473627	7.463887905220515
O	3.189446727841421	28.17399771788557	8.694535722826597
O	2.31037380638252	26.38166805393948	7.9000914392003345
O	2.273662572136367	28.31139557106743	6.668240307651427
O	0.1889627541399202	25.98058611653311	11.023543053567145
O	0.8576060052790313	24.845440667121878	10.510140859159659
O	2.3659983534990294	23.19901451680657	9.993441465918117
O	2.965401312351725	21.859971612075377	9.926637095207248
O	1.526244841979065	21.34047834397371	11.588040867221803
O	0.8321476767315883	22.641455909602318	11.65522614296142
O	1.1885542054680105	32.299935827125736	7.213177463223529
O	-3.783423754093443	29.55677314991621	10.650912446692553
O	-2.643056325813154	27.931689169048056	11.431147400020544
