27

O	1.3865913208604517	30.468264399883207	7.920504987049716
O	1.0755060100958849	31.6710379285062	8.30797988303828
O	0.68418287222232	29.297063405085513	8.129283932603396
O	0.35998186835897505	29.214655936392862	9.544457158185939
O	0.05969585169405178	31.58421030206676	9.25241138521645
O	-0.12901014256257826	30.35446077036131	9.884115183787292
O	1.223275718311898	32.86242634880973	7.786509417481037
O	-0.6926106496282158	32.71815616284653	8.93222819621836
O	2.4564525815599763	30.27850460298867	6.989798702158203
O	1.2201132245392914	28.162547930695855	9.806272223890087
O	0.16847491277952042	33.53772759033402	8.206173283557066
O	0.6226552932044682	25.63308475746802	12.055937402805666
O	3.474292538691066	29.276403442212846	7.126871322983331
O	-0.5694790857436569	30.08428332349991	7.909946507112295
O	0.3423103055629353	26.97869245804165	9.985400232306933
O	4.356787130768044	26.572431212715205	7.499896353450127
O	3.8079253191183184	28.759594293760735	8.322835656043422
O	4.034209966075898	28.53250928880353	6.130010939954215
O	4.5976349438196	27.26334790410131	6.316679606784387
O	4.1179744488821	27.44101007570316	8.52218469631122
O	3.8702038263060574	25.316264674707472	7.5958529125684535
O	0.6453727731327166	26.936353367354812	11.481156926321972
O	1.5862833351948478	24.67887113411564	11.503226000425206
O	3.964038492886501	24.12072017445105	8.163841537222108
O	1.2883225032761767	25.910152139785822	9.434813086286978
O	2.273939662796823	25.449092210076838	10.41804075749774
O	4.9219702078345176	23.778227309589717	9.231043338772027
