27

O	0.37987783170298717	27.488832919026102	10.173233633039178
O	-0.7438901467410977	30.461735522364446	9.350343409655792
O	-0.5527658665541975	27.999470247729718	9.195903417038473
O	5.849056083796386	25.38416475219548	7.5221897116612855
O	0.1813467976129115	26.101700045510576	10.5415903132116
O	0.7790741009816562	31.542164028665137	7.971614891334594
O	7.114893231390143	25.403241475069976	8.299018300083906
O	-0.4966085105111413	25.90785818725739	11.846993640493416
O	1.1392711771801833	32.70535508069851	7.544420196466769
O	5.05155559092205	24.24955913785892	8.056948218711447
O	-1.6865790193313093	26.73802951142695	12.17100889337577
O	-0.6362190074247371	32.90830258923241	8.766996851572948
O	-1.658658894826366	28.009366863213398	11.388771641748482
O	2.7840337145528706	30.40264716613074	7.205894060941291
O	-0.1664831424239155	28.354361635195065	11.333080677060654
O	6.287923069175752	24.98842157832761	5.927472198561546
O	-0.17939958953794632	29.333594910267376	8.943127871969867
O	1.135413941573263	29.395828301909564	8.568704810152465
O	1.5088492999590262	30.43887227210015	7.779481092578582
O	-0.3189246646757298	31.610111270673904	8.756209158133315
O	0.11202375499075368	33.54814985356799	7.833383974144135
O	3.5850507502063023	29.223880945103275	7.369105655592123
O	3.131217250542056	28.228824456044002	8.18945309046305
O	3.8233700198018497	27.049719121593597	8.24238412128321
O	4.986712334782782	26.89989011599381	7.491027233918034
O	5.030742032161226	27.705760401990553	6.391369620023066
O	4.120688892125137	28.748882424682694	6.207760183054544
