23

O	1.6057027686265006	26.043858273022074	3.786869072820608
O	2.4053644284966893	30.101864163117597	7.372981856696594
O	2.3888788855421197	24.93440896429859	4.326696039272546
O	3.1027228981400023	25.513287931983747	5.317186192073509
O	1.3066012889372673	32.24403310528913	7.37031062840001
O	3.5303961085619004	31.305815735855532	6.048364412080064
O	4.222399823209554	26.041306985309063	4.619128249409124
O	0.19383760350779244	32.84441126572114	7.943604597278395
O	5.042033119853297	27.096832729181486	5.083500876190233
O	4.441710216722021	27.93398943709123	5.9421226158952924
O	3.5631609047488384	27.338931074509286	6.8194301591697535
O	2.653924477165753	26.411031825761047	6.204167573683286
O	4.585440612804396	29.360356016706216	5.9600399041011665
O	3.5272262024459966	30.13747006294825	6.610280524229953
O	1.4493176138371366	31.045348639285614	7.716128338054078
O	-0.5021555596757707	31.94413975942325	8.50847617103827
O	0.35391540770301977	30.759041924031266	8.631725805222867
O	-1.779688821368114	32.09056333631604	9.240162523947877
O	-1.6717692487483944	31.49804443452645	10.676915170478743
O	-2.4668066402052897	30.772255920922056	9.705441915152425
O	2.2460972125186967	27.277069568598378	3.9091933358824145
O	0.8025119562014398	26.328556185810115	4.800754631646408
O	1.711380117763544	25.765216919408637	2.5555674949967093
