23

O	3.6664750338568197	31.415160065498593	5.993185637811755
O	-0.8150281947307694	26.86560337284576	8.26335948604663
O	2.6627220953780393	30.225384735416444	7.395170588313269
O	0.27959044135776434	26.464519548238194	8.928120477707782
O	1.4972607334675332	32.286566446351166	7.422532891517499
O	1.3619955803610966	27.130149851607364	8.526144568158546
O	0.36512533105880185	32.83503780708944	7.990820304972878
O	1.4186498865531099	27.50842346229921	7.222219821208242
O	2.5685372298393236	27.16608097459713	6.420148106646766
O	2.749145422210227	27.19672698715726	5.040810896763517
O	3.965807736078064	27.587761225958015	4.4540914550885
O	4.791677025649186	28.189921368214172	5.392247547022873
O	4.938294046436239	27.24984537694097	6.449858681074593
O	3.74766700729508	26.622017667924002	6.9245155982300535
O	4.817395840909382	29.588654588696457	5.7669174852587695
O	3.6809793314521357	30.219711759800823	6.516409687160005
O	1.6243857104336603	31.063538364937042	7.704901658773451
O	-0.3046295179352809	31.88357443443993	8.507401484915254
O	0.6619843695935683	30.80597780647162	8.759877231268685
O	-1.5558302984519565	31.97548261747982	9.282304592492586
O	-1.4312416058729427	31.386696014074342	10.723154283185792
O	-2.1726446281846137	30.619184029752248	9.744007020807885
O	-0.16385333595507356	28.113339286201683	7.2320173516691355
