24

O	0.06430304841531403	31.610864238783662	8.375660919171521
O	-3.4222306094749313	32.548682395025466	10.676671374638364
O	-0.7994637663813677	29.877263040228467	10.326469595417652
O	0.895324095570232	32.45707964065792	7.822375382144898
O	-3.0703115990983267	30.320393901801157	11.188587616158129
O	0.5840043899737772	30.434991946744233	8.32716678833339
O	4.785745316252263	25.478372121418158	8.375885068941043
O	1.9835012688389728	31.69824977540956	7.352767291844357
O	-2.471584390704824	28.0746859284386	11.452118746249889
O	5.589956036323045	25.22457940810274	7.19943199904203
O	1.8534707887964952	30.481729637269098	7.956181585437467
O	5.79231258752831	26.05418978532606	9.305440149306877
O	-1.1665393753331188	32.16555890205708	8.923839522282682
O	4.046082958206918	24.348941044283695	9.37387228300858
O	-1.4045924379397225	31.58092159176704	10.059858843520937
O	-2.7463671298096832	31.509127032783024	10.576954017034288
O	-2.325827625946092	29.324100306203565	10.903936492378445
O	2.6516626385936393	29.294951167777345	8.123872801381097
O	2.329803507602858	28.369235170743618	9.077018739362025
O	3.030028652249795	27.210204855970684	9.252373435933364
O	3.7170593926030597	26.817480906513847	8.098341170706842
O	4.365313070147671	27.88103960932867	7.452570267207564
O	3.5127202815956204	28.904634328877712	7.145144666254049
O	4.650314996268003	23.10740227109955	9.076969582502686
