29

O	-2.492168232804069	31.779587827809333	9.91577894210177
O	-1.518757533240414	32.665336909141935	9.232882581297211
O	-0.2927602412004138	32.159814777808414	8.660206167870783
O	0.5036652593180188	32.85742077411226	7.804881500974369
O	1.442000176702313	31.99606527095389	7.328336864703633
O	1.3063323622752971	30.85766364164936	7.938708587268465
O	0.20919446948512233	30.871638769171657	8.687511409461626
O	-0.0388450101948985	29.709266329421894	9.320351773888426
O	0.9427335707282616	28.698844363598685	9.557353514256889
O	2.0133119645841404	28.85244910414336	8.860869803178064
O	2.0471978989395345	29.763461125321502	7.820079364938281
O	3.2000553658921436	29.489995912387815	7.037465743440848
O	4.224427378589986	28.530039425175016	7.137339122837581
O	4.089944588825786	27.13460846084705	7.432836626154762
O	2.738809486613461	26.643021700620835	7.742585675431469
O	2.4736566077322344	25.800950433518235	8.72214208165281
O	3.7256036774105428	24.85474225355629	8.859605626139947
O	4.298596368780625	24.775086271179084	7.562941323984422
O	4.922228231254715	26.083958655291113	7.2289821401818495
O	5.15623597668176	23.740217029223782	7.318181243667475
O	0.1243524314388158	27.875493208453427	10.362115445901143
O	-0.6514182399354063	28.244955168697075	11.57141986534678
O	-1.4609157408547122	27.117580849634304	12.117924597386072
O	-0.9853459909140061	25.750289820508016	12.27868511023392
O	-0.4518867735185663	25.441342958756188	10.923068299996102
O	0.34474364737757757	26.54370517907111	10.461008617822866
O	1.4344628671480373	26.569149727361086	11.533707473767679
O	2.132282796993123	25.256459605317918	11.41944318005013
O	1.3616487752513886	24.132593412171186	11.190357599021556
