33

O	-1.2509041434394117	27.81530725916649	8.293618138628327
O	0.06464538202907288	32.36430294194791	8.146920608842258
O	-0.45791645122317615	31.506184205714302	9.060924706428386
O	-0.19523662435239753	30.227507466099127	9.114652972703851
O	0.9749314606389357	29.77147159552156	8.494765549297643
O	1.6490383820043415	30.71928425880961	7.734624853087837
O	1.2677524617180285	31.99527765323871	7.64343225599984
O	-0.6830486716498343	29.639512300305043	10.291729977904346
O	-0.21995618303602882	28.325813131191254	10.514158787576385
O	0.9591686306621825	27.677954785388696	10.912995479583753
O	1.0910422366342236	26.308699811874924	11.123330435836031
O	-0.14362239442539626	25.719385662359052	11.432762072097882
O	-1.0620876883677401	26.13649546424903	10.465533444281297
O	-1.2199520114186693	27.43446326522529	10.084996218782083
O	-1.8809657710000711	29.932818633811323	11.052783644158525
O	-2.3277255421970655	28.70148890650241	11.857068184025
O	-2.502489328681644	27.724246751103802	12.537686089045664
O	2.8406884826053	30.283467588991858	7.128364182733016
O	3.4474389664714526	29.037120215384704	7.3828060705203
O	2.771833517208477	28.152773345197282	8.16067053912339
O	2.9634071351450846	26.791123015467292	7.9375685986536
O	4.237344802446296	26.433924870135108	7.608117870745428
O	4.821927726274085	27.193869705822895	6.616005908616444
O	4.35767529735573	28.501301134388857	6.517781337164493
O	4.740885898692005	25.19543323363659	7.92363183690804
O	4.121236499267229	24.092867851800577	7.3130595669092795
O	5.252770973907991	23.20116850180867	6.8142357590001525
O	5.512723548031802	22.241519245849844	7.97302644762808
O	5.809596303002136	20.972996383698703	7.361262901105474
O	7.2104906029916584	20.888046427475945	7.034202290186064
O	5.451431237577429	19.94172866440472	8.301255795544888
O	2.145344423346929	25.31191039433235	10.71313625892347
O	6.412365359431567	23.93447080489142	6.653273328409149
