31

O	-1.7328815834904834	26.414602459340937	12.153416836884253
O	-0.6851822298767767	24.691344116233726	13.940263584646985
O	-2.497788413835063	24.033725406965125	15.67760975511528
O	-0.6732064801928304	25.3040384590165	10.264366010051473
O	-1.3445270040924344	26.514573644629657	10.544916349056706
O	0.6748068675096965	25.768148154070982	9.706031712275532
O	0.2574581142271018	26.74446644798381	8.781072575748565
O	1.378326207047113	26.51013352064409	10.839323380389299
O	2.4745146061867493	25.84333064281032	11.330565138636603
O	1.640889080452927	27.884789260029773	10.324950468400028
O	2.984981018829871	27.981331585314894	10.039056657271107
O	0.9137859492969491	27.88602181168526	9.032358228989184
O	1.2685954857406254	32.30820422950142	6.680612080832876
O	-2.834745500605427	25.413185909727332	12.235828460509467
O	-0.12554555364755665	25.080706073216163	15.263799680258986
O	-3.89853423845802	24.089243417778118	15.984742566260493
O	1.9140972771529963	31.178697564196398	6.442369539617224
O	-2.2266992041710703	27.76563334868578	12.950273977552815
O	-0.296798602981654	23.10256023379257	13.707577701326006
O	-1.6015882881861019	22.648612429987597	15.499917553696015
O	1.7423588276160495	30.06502232180174	7.1454242720271015
O	-0.3364264668376084	25.822345256320947	12.847793650568033
O	-2.378865487631275	24.773816041958746	14.194729661964129
O	-1.6863167268326096	25.061030182033637	16.752474477935102
O	0.8161408703784472	30.11068696563665	8.135463954234869
O	0.1251383678368641	31.257978990666	8.397668592896679
O	0.3533737345893307	32.35787809730357	7.634114570350221
O	-0.2362890203046259	33.579095252596396	7.958733113756763
O	-0.7684468175052066	31.062289385204387	9.360528868538804
O	-0.6588983951606368	29.739454687600073	9.669440374609799
O	0.23845694524229183	29.139472443711075	8.887147710374999
