18

O	1.6916683903439178	31.98498000724384	7.121701677807615
O	0.6234400167718495	32.009573224889344	7.9080494740237
O	-0.20935738625951406	33.15944969044902	8.149130487842678
O	0.4183872940806906	30.921039864492887	8.67128612185902
O	-0.4791667854327246	30.407996972109974	9.7253874652686
O	-0.42988792026199224	28.949618795898196	9.696591620223847
O	0.8612777502608762	27.183472334072626	8.453117707801486
O	0.18838961742656746	28.383636760679174	8.604944222461283
O	1.4255241739265287	26.72390171655518	9.594223811995366
O	0.687645832885031	27.009453097786935	10.696366767021246
O	-0.32408097354930016	28.003766405411554	10.676617104535033
O	-1.3734888247620993	31.395787977806492	9.863738987157083
O	1.7109380877070315	29.90010109103393	8.20192763672059
O	2.301504238212389	30.829068039787575	6.926688655986029
O	3.4444594270594275	30.34645502224176	6.296552895696823
O	3.8141595783550395	28.967752998083675	6.123957430963713
O	4.516345296164661	28.47017845338857	7.36118123632367
O	4.250141824202727	26.992726106053247	7.534468797520949
