24

O	0.21106794427909736	31.931168249642543	8.409878189261201
O	1.237195450201294	31.903177630104594	7.428917137867123
O	2.0772927205507843	30.8680733720812	7.219558050078577
O	1.6717996830248025	29.846881196709653	8.033629153375461
O	-0.47742542620325407	30.76167863197559	8.914850767700115
O	0.5017576373916984	29.630414661620048	8.62307042931521
O	-1.1529623464326233	28.567449988696218	9.966365328542889
O	-1.343329149199434	30.142792838570784	9.916915382487185
O	0.2363800231495325	28.061794422942796	10.342366037936124
O	0.8547354074803464	29.442906590248683	10.112659398609175
O	2.143038695075521	29.265976603161587	10.304344511923563
O	2.5550192914558845	28.287247355462544	9.522281921933669
O	1.2677149725480688	27.540476078508554	9.470586695268699
O	2.8140181600377945	30.46232375797549	9.890578464116809
O	3.327703839746361	30.5716164748631	6.721627152272827
O	3.571807677750215	29.17790836553912	7.000848989496651
O	2.3580515374499487	28.519303888741508	6.438868600853924
O	2.5222667576484956	27.129763120562558	6.447534802602297
O	3.6934592268258597	26.275233351412655	6.479809306187159
O	4.793266287401368	27.101010497453398	6.8572531236025895
O	4.635032041699177	28.464414039109922	6.351764952433851
O	2.0127016890596665	26.338062092420575	9.430898525742283
O	3.319151559555191	26.120280362922045	9.195183108019837
O	1.8270488886011989	25.207371534709875	10.135352916466035
