73

O	0.44930711048636407	-1.6635647701409086	3.5770040729113637
O	-1.4142990465136358	3.077726409859091	3.6485335129113636
O	3.4324756804863643	0.7593457648590911	7.072711822911364
O	0.04423686848636399	-4.198814440140909	-0.7291186770886362
O	-0.878979470513636	-3.522100870140909	-1.6949836070886364
O	-1.469867071513636	-3.7107190101409087	0.5926797399113639
O	-0.5254391145136359	-0.9291055501409089	1.211762940911364
O	-0.467113392513636	-0.4312135051409089	3.309553702911364
O	-0.504291909513636	1.947452339859091	3.190430562911364
O	-0.389181196513636	-4.492351610140909	0.4831678891113639
O	-1.689753929513636	-2.364099190140909	-1.3843211970886362
O	-1.721488750513636	-2.431113430140909	-0.036674441088636156
O	-0.23987900151363595	0.1260487628590911	2.091637032911364
O	-0.37698898151363597	0.854638824859091	4.168547882911364
O	-1.633820128513636	-1.027696340140909	0.5205607572113639
O	-1.8732746995136358	-0.13814228014090885	-0.5727215070886362
O	0.9990316604863639	0.7055934098590911	4.519527932911364
O	-0.702977619113636	1.4366429578590911	2.041807082911364
O	-2.159603209513636	-1.0223186001409088	-1.6708616670886363
O	1.2994600004863641	0.5564331996590911	5.885546462911364
O	-1.812918709513636	1.0783201428590912	-0.3281090930886362
O	1.7157857404863641	0.2236113838590911	3.624665662911364
O	1.8613890804863638	-0.7537015401409088	6.291052562911364
O	3.283582830486364	-0.4843717811409089	6.3177108729113645
O	2.3122488704863637	1.138123542859091	7.871790622911364
O	4.551455300486364	0.5464184633590912	7.924647092911364
O	4.511014160486364	-0.8616470901409088	8.438777112911364
O	2.5949977804863638	0.9173964258590911	9.327744322911363
O	0.6126231404863641	-4.757777180140909	1.426654603911364
O	-7.8257236695136365	0.10605880185909111	10.197515462911364
O	-5.543554089513636	-2.873662750140909	9.470454712911364
O	-2.939644939513636	-1.9466444501409088	6.971487212911364
O	-1.030968169513636	-5.245553440140909	7.152340012911364
O	-0.778136551913636	-8.80311180014091	6.075278952911364
O	-5.115583499513636	-9.254498380140909	5.570208652911364
O	-5.411234649513636	-5.723913890140909	4.235733392911364
O	-7.557684939513636	-2.876480710140909	5.548398212911364
O	-7.838863969513636	0.8454764158590911	4.835888212911364
O	-11.503368799513636	1.2090723788590911	3.9675643429113636
O	-10.720496119513635	5.563539239859091	0.41424693981136385
O	-9.113369439513635	2.311113019859091	-0.6458392770886361
O	-6.961249619513636	-0.5760180601409088	0.43640251391136387
O	-9.095204449513636	-3.6668566101409095	0.8679029329113639
O	-7.3089143295136365	-7.021812860140909	0.6832403729113639
O	-0.974475169513636	0.4253270770590911	-7.720973207088636
O	-9.910145559513635	-3.303110200140909	-3.843958377088636
O	-6.8696904295136365	-1.2226651301409088	-4.619242787088636
O	-5.997169799513636	2.372568039859091	-4.896684827088635
O	-4.770540999513636	3.527905269859091	-1.5689910370886362
O	-0.32983338851363597	6.433879049859091	2.508316712911364
O	3.131319340486364	4.927257279859091	2.9734594329113637
O	5.519094200486364	2.197023379859091	1.8126926529113638
O	9.226967200486365	2.3105239498590913	1.0979660219113638
O	10.087640100486365	0.1858600658590911	4.151449792911364
O	8.535162790486364	2.7455303298590907	6.4455881229113645
O	10.151519600486365	5.630529239859091	4.550013282911364
O	12.319198000486365	5.981898299859091	-7.288298997088636
O	10.181209900486365	-2.508397300140909	0.2823873579113639
O	6.837551600486364	-3.374274710140909	1.8879954629113638
O	5.059242420486364	-3.524890250140909	-1.3794766670886363
O	6.556685630486364	-0.3989606041409089	-2.9318864570886363
O	4.1974387904863635	2.462485959859091	-2.122993077088636
O	4.877678210486364	6.179027089859091	-2.209705477088636
O	2.825724490486364	9.35899177985909	-2.2118760270886364
O	5.622548540486364	8.92363283985909	-7.097692157088636
O	6.396937200486364	5.325150779859091	-6.181077977088636
O	4.281918260486364	2.369663919859091	-7.251854417088635
O	4.5319228904863635	-1.3958941501409088	-7.464895157088636
O	1.998721060486364	-3.2755620201409092	-5.446912977088636
O	0.799303880486364	-6.971555780140909	-5.323613627088636
O	1.6823639804863637	-7.408826270140909	-9.016561697088637
O	1.318599520486364	-10.932861620140908	-10.469958097088636
O	1.457104970486364	10.913036779859091	7.555961552911365
