31

O	-1.8917427812625063	26.65028196258879	12.690750084364815
O	-1.3589617030403984	24.6919499177422	14.50282256372012
O	-3.2743797784283157	24.487903708415175	16.20236067867187
O	-1.1780451585054872	25.22302730745139	10.850720024112974
O	-1.7080846107474283	26.515918875374606	11.042513218639654
O	0.20768582791597517	25.45099623839589	10.303180895228918
O	-0.07368706347868664	26.356868669623815	9.264684304744389
O	1.1460718159472234	26.117353657897553	11.270975561589182
O	2.1736909634815182	25.229570883209067	11.623350481561388
O	1.7516136406493905	27.20601221234838	10.452511452009471
O	3.051799757898765	27.034198089405006	10.05587055816719
O	0.7937374331348688	27.392788647175948	9.344019303960375
O	1.5868195332801622	31.784699724795892	7.114058849411542
O	-3.2359205736476664	26.139812424263173	13.090905210540312
O	-0.5199473943028718	24.3797812521709	15.69003004630946
O	-2.1086769506980176	24.153846577550325	17.084347634094204
O	2.178011576054408	30.62493210043887	6.820091141898855
O	-1.71884375969862	28.164799282777963	13.32852070447462
O	-1.9819423956908915	23.20592203339843	14.117333454419246
O	-4.37057860219265	25.305731551187453	17.068695956517047
O	1.939567665496501	29.59550478077092	7.639769092243549
O	-0.7367364913650667	25.632777185740764	13.349894422043175
O	-2.6721028080346345	25.611118823105834	15.117813807992357
O	-3.8114927238773078	23.225221970038323	15.249562966727757
O	0.8507562312240078	29.634711165736675	8.45037977129061
O	0.12955948953132507	30.791125615228914	8.618550539983762
O	0.5777205295917824	31.913014579568387	7.976498819874047
O	-0.09416756265787368	33.12716503835008	8.216227847106675
O	-0.8076644765676461	30.63599229150394	9.584934977752777
O	-0.6080308082704085	29.383240278797878	10.045807864478006
O	0.2391314182532523	28.713298496585555	9.239451578879644
