26

O	3.253013566949199	26.72795906856216	8.413612431363223
O	3.1789608295991783	25.35067712510998	8.74759091035909
O	2.478978891669796	24.882475413903787	9.821697245553501
O	1.729130203523961	25.773972908228444	10.535182900147564
O	1.576000194650567	27.10100531862369	10.11825429441634
O	2.21212215728136	27.396128945592082	8.914166683454845
O	3.7576139237840853	24.420027382022674	7.869700385335269
O	1.8362341303881207	28.603678894105485	8.213465088262224
O	1.9172518150576694	29.859466778050272	7.76062908943606
O	1.7737339909425	30.960095740206295	8.509652102876217
O	0.7819491667482389	30.520493403837	9.439081271794592
O	-0.06251211754099414	29.549078951780817	9.106467090649032
O	0.44131332126027223	28.643643204272692	8.289511037335952
O	-0.03304430415335016	31.605856546673223	9.705990803305294
O	-1.2383306597361727	31.413319651281718	10.294802761929331
O	-1.6618279527839122	30.129070373775857	10.514437622298276
O	-0.7818997521892475	29.18315521859671	10.252413859160143
O	-1.1729004724979204	27.887313163415705	10.583345587036302
O	-1.6146581531026565	27.545316369799963	11.88727018232191
O	-0.617522009284191	26.785427155747893	12.693867149675636
O	-1.9445953110475467	28.793910344637165	12.632943360312431
O	-2.7118659285215383	26.53598331195029	11.730776780869588
O	-2.1699260542416843	32.232736022462475	9.483070919577832
O	-2.130582678377445	31.94139735051913	8.188480989933415
O	-3.1137972301183097	32.236421412813094	10.327012179535949
O	-1.5811754539173568	33.50157017713994	9.39203994237399
