29

O	-1.4550105697404792	31.151487328578835	9.68051928005579
O	-1.9305700712176606	29.760973113382065	9.854300461358374
O	0.33958002534360465	28.96013208745597	9.105138376231308
O	-0.953961778365502	28.667373275452736	9.635823831161893
O	-0.4676950067520896	27.882304461446076	10.794911700017458
O	0.9288188893225908	28.146339606116783	10.771931979844112
O	0.9574258392354087	29.417517558496776	10.360384379869904
O	1.7770218292303221	30.44120656114243	10.101449445733211
O	-1.1171989167351741	28.784219341147164	11.760759570407476
O	-0.5762198054839811	30.02584740154897	11.642394860539481
O	-0.1371261339301094	31.296507551105865	9.033929377204519
O	0.36115682315712744	30.123082082484036	8.277963731102123
O	1.7140831056232089	29.9445480766942	7.907862859745161
O	2.2938853393744676	31.06243699527578	7.346456454573696
O	1.3450631806699618	32.05228784602205	7.155693893630046
O	0.29264215970753793	32.36157016265292	8.064150330394082
O	3.1860203199588484	30.611747179702213	6.356581879949145
O	-2.4525487766287126	29.124641051216035	11.994249200798425
O	3.583180310272816	29.31701848930306	6.567490162346286
O	3.7171860343987007	28.818701190797	7.934514502342449
O	4.852819372909274	27.78193238095753	7.822224485073546
O	4.153425974020614	26.57355265827383	7.582447509388019
O	3.722094165590919	26.946356168517127	6.309369319305935
O	4.122945661957577	28.284711273402127	5.688997890391715
O	3.0296373631766937	26.63702714297434	8.944886644500576
O	3.3268994908414617	27.519553970519574	9.837816843179006
O	2.831233980331371	25.10087906168492	9.658389079638175
O	1.6987793292549973	26.57166368451366	8.22133897308122
O	-2.9491641221651865	28.375513734752893	13.117709443472013
