22

O	1.704305370961339	31.519664620676306	7.700799256329179
O	0.5189568992337363	31.919374217324602	8.33560870972709
O	0.07396528374103759	33.15632766235687	8.125762210885458
O	-0.19636951415847712	31.001783940944083	9.086208118777284
O	-0.6978140588981863	30.243059974687878	10.15998936952349
O	-0.6503924553638794	28.773068290230686	10.372287806858044
O	-0.42489136734559974	28.107810404069422	11.506837359157618
O	-0.13562239689232636	26.750235731665832	11.681472424804436
O	-0.0053370704924545626	25.963637373184312	10.578139637601634
O	-0.28341702709348415	26.569240311557838	9.388718806215127
O	-0.6137343703107204	27.889169942574334	9.319562416776696
O	-1.779586350434429	30.704507755615726	10.6746829130302
O	0.18685840010097868	29.618569357352012	8.010306012717281
O	1.6501645300915186	30.30164464751766	7.383842696344299
O	2.822532251385776	29.676088891298207	6.809122061035332
O	3.2806944313041684	28.820738595443608	7.827170375176158
O	3.635886336994619	27.461958203727875	7.560343957674949
O	2.995587405254023	26.463342330746478	8.324010924582815
O	2.9770478983751607	26.66859492848275	9.669799557310261
O	2.5943275137520323	27.91913115586855	10.02071935263664
O	3.073749256406089	28.937090456691937	9.174835269080523
O	3.148591082877727	25.130203165021314	8.056954294225378
