29

O	1.511026662006877	32.40987725932511	7.433286873219605
O	-0.26504467214545585	29.237652901430497	12.02769880054787
O	1.327719362662348	31.220909074903847	7.85784558062823
O	2.1394144268660575	30.163937109204248	7.617507708981671
O	1.345765572317484	29.042003658366543	7.829956626760813
O	0.5836414871088718	29.037792944989384	8.934349744343391
O	-0.2359762740298444	30.04853179730182	9.1147431210783
O	0.20691217149378643	31.21493629073666	8.577308726962649
O	-0.45429854577230694	32.43502251005778	8.656632026214034
O	0.4349323208136393	33.14485000860949	7.836537401610333
O	3.3282627242240026	29.802739214158375	7.054236258880554
O	4.062402243792706	28.605049682029165	7.470885352209134
O	3.635900132090308	27.301768678996666	7.959721688287735
O	2.501603188375119	26.65855683717468	7.566950944723022
O	1.5763253826789774	25.92865882083854	8.33461163239201
O	2.197608992856181	24.93885418774618	9.023830981698833
O	2.980946702954312	25.69073979722683	9.794066089470185
O	3.878025356356172	26.59992517396238	9.155833093449889
O	1.7241274320068705	28.725491394179386	9.852810766272334
O	-1.6165576985928571	32.71461626231493	9.514929297490502
O	-1.5167122495388423	32.01535915241942	10.897037610388669
O	-2.9388005007020914	32.00389035974703	9.202396992634503
O	1.0731886163369437	27.983932577152554	10.686796758410432
O	-0.41201473583828546	27.620284952609715	10.477946998615812
O	-1.1149458944784458	28.230620802093316	11.635970156842214
O	-1.052921383403029	27.267669505017366	12.714858229530925
O	-0.3883772317142841	26.059607285167957	12.87894243422939
O	0.73117953539798	25.884286197792896	11.922388402015418
O	-0.057415369561602425	26.254967950941353	10.772621261220506
