66

O	-1.271670045270833	3.4434122048374993	1.233454602854167
O	-0.9478355072708329	5.8018616148375	0.8704307128541671
O	-2.0114737882708327	4.751362934837499	1.1866775028541672
O	-0.17955597627083295	1.8672008068374997	-1.171117771145833
O	1.272970401729167	1.8535021088374997	-1.4648967971458329
O	1.388108121729167	3.0812555748375	-2.135357457145833
O	1.7703394117291669	0.6140764848374995	-1.9012684671458329
O	1.207670321729167	-0.4549530051625006	-1.468215717145833
O	0.10740950172916702	-0.32143049516250044	-0.5317592021458329
O	-0.667864508270833	0.8991704408374996	-0.520389818145833
O	-1.637400188270833	1.1309020498374998	0.41766413385416706
O	-0.578531062270833	-1.5475632351625006	-0.389412693745833
O	0.1493472917291671	-2.435704615162501	-0.991962564145833
O	1.317323041729167	-1.8559179151625005	-1.594725347145833
O	0.04130020972916704	5.0620062448375	0.01418652085416705
O	1.073012521729167	5.672469544837499	-0.40258279224583293
O	-0.013210250270832946	3.7857912848375	0.6785497128541671
O	-2.124203888270833	2.4062909308375	0.6431122328541672
O	-2.755786698270833	7.1156742648375	-10.424626427145833
O	-4.900507918270833	6.971254014837499	-7.2937340671458335
O	-2.7781774782708326	6.1655099948375	-4.310777327145833
O	-5.695625038270832	6.693908654837499	-1.9036061671458329
O	-8.767837808270833	5.231320034837499	-0.24617409514583297
O	-11.753234338270833	-0.7378983751625003	2.4049559528541673
O	-11.734445838270833	0.4328062148374996	-1.198585949145833
O	-9.763733568270833	2.6087761308374997	-3.5975468871458327
O	-6.0769908582708325	1.9112329278374995	-4.266954597145833
O	-4.247255068270833	2.6428822248375	-7.507242897145833
O	-0.6458915852708329	2.4998539328374996	-8.638190557145833
O	-0.7837922462708329	0.21855340483749952	-11.646440887145832
O	4.488558661729167	-1.7827099051625004	-10.935990387145834
O	2.0354177917291674	-2.6456211151625	-8.185289657145834
O	-0.589269352270833	-1.2839365051625002	-5.847934577145834
O	-4.038015328270833	-2.3439898251625007	-6.933514297145833
O	-6.767966228270833	-2.3098394251625	-4.306747397145833
O	4.854988871729168	-7.1943803851625	5.567938972854167
O	3.772399861729167	-5.717085835162501	2.233398062854167
O	0.17988421272916705	-9.7561630651625	-1.3934002011458329
O	-2.277074388270833	-11.8769704651625	-6.214060297145833
O	-5.874646198270833	-7.279028355162501	-4.317462587145833
O	-2.5055557982708327	-6.811955505162501	-5.992212397145833
O	0.21132404772916707	-5.6888983751625	-3.576985007145833
O	3.9328976417291672	-5.049252465162501	-3.898397887145833
O	4.376532141729167	-1.3205079051625004	-4.418247547145834
O	6.764167971729167	4.8277806248375	-2.8065848971458327
O	5.917563331729167	6.4234696848374995	0.527692099854167
O	4.022125821729167	5.897104424837499	3.7535897928541675
O	5.068775251729167	6.918314104837499	7.254247102854166
O	2.423824601729167	9.6553314948375	7.476834092854166
O	3.9301608017291674	11.4444995448375	4.541930682854167
O	0.995471341729167	5.814933014837499	9.862191812854167
O	-0.9344508452708329	5.640131614837499	6.6340686228541665
O	-0.5263282982708329	1.8579151308374997	6.382116002854167
O	3.1487276917291673	1.6931835446374996	7.337147942854167
O	5.1877375517291675	1.8717121078374996	4.118862112854167
O	8.828930101729167	2.7439672648374995	3.6576129928541667
O	11.445379861729167	2.3879213268374997	0.9405671728541671
O	12.877688161729168	-0.8158761151625005	5.373968612854167
O	9.372111271729167	-0.28882616516250037	6.730590982854166
O	6.431281771729167	-2.627607295162501	6.100144292854167
O	2.951557461729167	-3.354898765162501	7.446530502854166
O	0.14663155772916708	-2.8967384751625005	4.872090112854167
O	-3.502493578270833	-4.045425245162501	4.915983492854167
O	-2.763043478270833	-6.9419627351625	7.2657855028541665
O	-5.660886318270832	-9.0943564651625	8.571307262854166
O	-8.021129528270833	-7.804106915162501	5.891152812854167
