31

O	-2.266596361233673	25.069827143877927	12.328965297778312
O	-2.029612833844322	25.835515559980276	11.094346810260193
O	-0.9767670095346395	25.166899946442797	10.27360575560714
O	-0.023805497844652107	25.172299960386418	11.367863138947182
O	0.9969576666738109	24.104381094191535	11.141791274305021
O	2.0405309655030974	25.040996720605005	10.722525687865996
O	1.485016033524915	25.723782561327354	9.63492525203863
O	0.023886441672070352	25.79040291718578	9.343672449139996
O	1.947654535200493	25.921352082520606	11.856602690834215
O	1.1848287793796926	27.074336275391445	11.837277957792987
O	0.5501132143845937	27.664458707224505	10.877244791771421
O	1.1344513839880084	28.672480495854725	10.143438248728511
O	2.5965808649153903	28.632409125915846	9.8724450796553
O	3.1749901580323416	28.393945957701327	8.626583324494138
O	2.3738669766459988	28.8681312629243	7.582285341704253
O	1.1420378393479682	29.426550361155137	7.927289564547581
O	0.4933697297329467	28.87910927983871	9.049050191400616
O	0.3773058639573672	30.718979007673333	7.7994797416078505
O	-0.6534660947212085	30.53487387403768	8.892239080833779
O	-0.8572235194623932	29.125476587254933	8.88549357452532
O	0.31084135020496695	32.438399391139406	8.755038948192874
O	-0.6020661623005154	31.67164686491627	9.46894475794504
O	-1.4290084073734028	31.33114685269657	10.741151827156825
O	-0.8470817192141787	30.315141689920257	11.664164086459255
O	-1.37078151751946	29.15045580329932	12.356848847075955
O	-2.466088905219914	28.252270632020753	12.223431391533321
O	-3.1331406862277853	29.29772244376192	11.480379385203276
O	-2.663133136987924	30.489983915685674	10.651376141337584
O	0.4212175223347576	27.20432123993404	12.798109039518273
O	-1.7577193666042223	28.501438003956245	9.305754062994014
O	0.6783186207422004	32.030480229944345	7.617999815291583
