75

O	1.455995082413636	2.6611603582931806	-2.432078238
O	1.328224222413636	5.179125358293181	-3.317863365
O	2.714401072413636	7.346364578293181	-3.549141445
O	-0.06259392458636404	2.4880548702931806	-4.355749325
O	0.7018180224136359	1.6504988470931803	-3.5178972249999996
O	-1.473412470586364	1.9785696172931804	-4.269251105
O	-1.366801502586364	0.6104028982931804	-4.050601605
O	-2.094441307586364	2.6056396192931803	-3.031323585
O	-3.015636947586364	3.5857358982931804	-3.364960585
O	-2.710377607586364	1.4450773722931805	-2.317417039
O	-4.075271567586364	1.5191488702931804	-2.4836850950000002
O	-2.033101953586364	0.2711546782931804	-2.9222351250000003
O	-3.011748937586364	-3.7992593017068197	-0.025822774999999965
O	2.406774902413636	1.9559490302931803	-1.557285761
O	1.4290328724136359	5.65616353829318	-1.911606623
O	2.724992422413636	7.30889032829318	-2.056152917
O	-3.759200367586364	-3.2085052817068194	-0.990712595
O	0.2756249424136359	3.3660576982931802	-1.5092380035
O	-0.25648534858636407	5.15931355829318	-3.741363345
O	4.300375612413636	7.22317350829318	-3.950208205
O	-3.3778821175863643	-2.0887444917068194	-1.606374612
O	2.241795112413636	3.7971475982931806	-3.331486145
O	2.090483592413636	6.09455772829318	-4.473226935
O	1.597526972413636	8.51071978829318	-3.928782675
O	-2.140714727586364	-1.5879165917068194	-1.3774519705
O	-1.3459452625863642	-2.2798749217068197	-0.50645159
O	-1.834544625586364	-3.27680808170682	0.326843035
O	-1.002111775686364	-3.80782292170682	1.3341563150000002
O	-0.20405697558636404	-1.6179878417068196	-0.40564693500000004
O	-0.270906536586364	-0.5813710117068198	-1.291134558
O	-1.402824881586364	-0.6251151317068198	-1.9978052069999999
O	-2.428956147586364	-3.84625234170682	-10.681073875000001
O	-3.265851197586364	-2.1115645417068194	-7.391105715
O	-1.259176262586364	0.9058364592931804	-8.342032255
O	2.218812062413636	2.5340181482931805	-8.482972535
O	8.507272332413635	3.1335821482931805	-5.139887725
O	7.519754072413636	0.43693059829318037	-7.627737315
O	4.4021375424136355	-1.2029632217068196	-8.992810525
O	2.017210782413636	-3.0468028217068195	-6.686967085
O	-0.18050131558636406	-5.94375810170682	-7.576378425000001
O	-2.924629137586364	-7.943692791706819	-5.908946815
O	-1.631834544586364	-10.38080996170682	-0.809882343
O	-0.30652399358636406	-7.08529969170682	-2.119585004
O	2.931762552413636	-7.66430801170682	-4.010342005
O	5.2563406924136356	-4.71332671170682	-4.408523025
O	8.114607922413636	-4.881993571706819	-6.8924381750000006
O	-0.04358116758636399	-3.0807887617068195	7.244428695
O	7.746380702413636	-7.063110971706819	-0.67190945
O	4.701029042413636	-9.132100361706819	0.22000837499999992
O	2.134455702413636	-7.2736330417068205	2.306646745
O	-1.177164245586364	-8.180953861706818	3.9347322049999995
O	-3.923429037586364	-7.089489771706819	1.5077809350000002
O	-9.395449337586363	-3.70363208170682	-0.24791672500000006
O	-9.547020277586363	0.0880913182931804	-0.18878268500000006
O	-7.472165527586364	3.15129390829318	0.595734945
O	-8.645215647586365	6.36221327829318	2.328276295
O	-8.354377887586363	8.41314686829318	-0.875697918
O	-3.535654147586364	6.204746128293181	12.981458215
O	-1.0239189447863641	10.43211546829318	2.4012262050000004
O	-4.575998157586364	9.18296950829318	1.878149325
O	-3.309641497586364	6.7435642982931805	-0.72622296
O	-1.312508975586364	4.77576820829318	1.8632167849999999
O	-3.874956527586364	4.6733970682931805	4.595823165
O	-5.794904467586364	1.4180852552931804	4.044829535
O	-9.189803237586364	0.4982974782931804	5.458305025
O	-7.396004107586364	1.7362521293931803	9.229271115
O	-3.707679207586364	0.9471268872931804	8.690698715
O	-0.454197224586364	2.6688049552931803	7.750395044999999
O	1.171660952413636	1.3272003852931804	4.565434035
O	4.672853912413636	1.7870557682931805	3.099476995
O	6.198736462413636	2.4738267302931805	6.528521285
O	9.914977082413635	3.3866603082931803	6.858178465
O	10.664005282413637	2.1765055292931805	3.336206945
O	11.555149482413636	5.82681414829318	2.691751055
O	5.003995642413636	13.06017763829318	-6.3293375450000005
