74

O	2.7629850451347826	-1.072214405956522	1.4097138460043475
O	1.789724875134783	-0.38637628595652185	1.8714518460043474
O	0.5798009051347828	-0.976243245956522	2.2838991560043476
O	-0.5238928098652171	-0.3668246059565219	1.5674410060043473
O	-1.0380930408652171	-0.3808249159565218	0.1975897350043475
O	-1.1905542398652171	0.8589197430434782	-0.7221198449956525
O	-2.050143434865217	1.3860454549434782	0.31048831600434756
O	-3.4055729448652174	1.8451900530434782	0.6103118660043475
O	-3.9491295848652173	1.497606509843478	1.8092279560043476
O	-5.237386554865217	1.241929498043478	1.6288053460043472
O	-5.573419074865217	2.252063743043478	0.7766854960043476
O	-4.435237454865217	2.570014424043478	0.10096937900434755
O	-1.0598011748652172	1.722905535043478	1.1682061960043475
O	0.06002759713478284	0.8947007040434781	1.3784614460043474
O	1.5093623451347828	0.8171871420434782	1.2216116260043477
O	2.277438015134783	1.370801534043478	0.20766095000434748
O	1.8127438551347828	1.4703878378434783	-0.9575322039956524
O	2.637552415134783	1.9624219330434782	-1.9841754639956526
O	2.110443655134783	3.059104894043478	-2.5166587239956524
O	2.7721802751347826	3.768900714043478	-3.4701019839956526
O	2.4042566451347827	4.719974694043478	-4.576895483995652
O	3.8649532951347827	5.1788565240434785	-5.405261653995652
O	3.9741361651347824	6.537695834043479	-5.9284258839956525
O	4.320440825134783	4.314137714043478	-6.500778703995652
O	4.949030125134783	4.791209564043478	-4.070315813995652
O	4.092893105134783	3.711872534043478	-3.4466516339956526
O	4.679832965134783	2.9794285240434784	-2.4529664439956527
O	3.981230545134783	2.034945584043478	-1.7959053139956525
O	5.678013765134783	11.24788344404348	3.4690061060043473
O	2.2559738351347827	10.989532574043478	1.8448407160043474
O	1.8875047151347828	7.6026837140434775	-0.09412750299565242
O	-1.4529319828652172	8.784573704043478	-1.5132762959956525
O	-5.164061094865216	8.980416914043477	-0.9953074279956524
O	-10.950687584865216	5.963418294043478	2.020701206004347
O	-8.483437994865216	8.341729234043479	3.6297303860043475
O	-4.928171034865217	9.605274174043478	3.3496606160043476
O	-1.9878000548652173	7.202519794043479	3.5930573360043474
O	1.4869113551347828	7.943067834043479	4.841686346004348
O	4.777509555134783	6.1434401340434786	4.997194866004348
O	5.6067527351347834	6.251319574043478	8.703458326004348
O	8.500640125134783	1.382151763043478	8.648974496004348
O	4.792640535134783	1.086964691043478	7.866374916004348
O	1.976844905134783	2.456454398043478	5.753733716004348
O	-0.3547777800652172	4.473066544043478	7.984822826004347
O	-3.884980384865217	4.987352914043479	6.735502636004348
O	-2.342114834865217	-9.936295005956522	1.1208007660043475
O	-0.8073374508652171	-6.783185405956521	2.5698337660043475
O	-2.8224563148652173	-5.365480675956523	8.580598196004347
O	-1.265637582865217	0.27982686404347823	10.164224906004348
O	-0.2070127678652172	-1.8314426859565218	7.191532356004348
O	2.9880910051347827	-3.6398705259565216	6.302206746004348
O	5.009785615134783	-1.3127600059565219	3.971412696004347
O	7.668559095134784	0.14878098404347817	-1.8607008539956524
O	5.733770745134783	0.21221676404347822	-5.086202043995653
O	2.4345628351347828	-0.38752695595652176	-6.713968153995652
O	1.6604906551347827	-2.153107815956522	-10.044298733995651
O	0.42237250813478283	1.076278114043478	-11.667502693995653
O	3.8106316151347825	2.4570171950434783	-11.338005193995652
O	1.8332843751347827	-11.79343860595652	-10.709604193995652
O	-3.2391355148652172	-1.4482874159565218	-10.282435183995652
O	-2.934447824865217	1.229447907043478	-7.613096003995652
O	-3.725334174865217	-1.1776028859565217	-4.776015963995652
O	-1.6073282348652171	-4.119494955956522	-6.029885423995652
O	1.7890985751347825	-3.773172235956522	-4.3318620539956525
O	5.081497035134783	-5.348247755956521	-5.315549693995652
O	8.449584795134783	-5.970351015956522	-3.6906228539956527
O	5.959657365134783	-10.913099205956522	-4.756878063995652
O	2.7404210151347828	-9.011192605956522	-5.401757353995652
O	0.0860705761347828	-8.332781595956522	-2.7749470539956524
O	-3.5382616648652174	-7.235259185956522	-2.5237093439956526
O	-4.107768404865217	-4.028273355956522	-0.5427077751956525
O	-7.234510034865217	-2.4507325459565217	0.9572436960043474
O	-8.985381534865217	-5.866675305956521	1.2820025260043475
O	-12.607095084865216	-5.967139775956522	2.4838597160043476
