73

O	1.654020456588372	2.5813298399999995	1.1403571376046506
O	4.383246016588371	3.0882783799999993	-2.9245208423953493
O	0.05402684758837195	1.3009497229999996	-3.187941712395349
O	2.9275969165883717	-0.7289180200000005	-0.4998455443953492
O	-0.28112882341162804	1.3678483648899997	-0.3795480687953492
O	3.739826166588372	0.20766225999999954	-1.302530671395349
O	0.794510946588372	0.5995895269999997	-1.0460098313953492
O	1.6214163265883719	-0.01625381000000048	-0.19805758239534918
O	0.7988363465883719	-0.22036619000000046	0.8300980676046509
O	-0.07781068441162808	0.8038276709999996	0.7269113876046508
O	-1.2669352734116281	0.6381209259999996	1.3797481176046507
O	-1.491704012411628	-0.1757866300000004	2.408444127604651
O	-0.5253566324116281	-1.1263714000000005	2.482649557604651
O	0.6693749665883719	-1.1263417100000002	1.7891910376046511
O	1.5835397065883718	-2.0067267100000006	1.701862057604651
O	0.274716226588372	2.6665653099999993	-1.005947859395349
O	1.383490696588372	3.3418631999999997	-0.5058917813953492
O	2.651449286588372	3.3707162099999994	-1.1101378143953493
O	2.775682706588372	2.4269361699999994	-2.1663880723953493
O	1.749971536588372	3.1254911299999995	-2.989024002395349
O	0.47832794658837186	2.8352622299999997	-2.396217782395349
O	-2.962951173411628	0.03174151999999952	2.813334667604651
O	-3.550405573411628	1.2354968049999997	2.317287827604651
O	-3.314155243411628	1.3054315234999996	0.9738951276046509
O	-3.2373334534116283	2.53168436	0.32032682660465084
O	-2.540407973411628	2.9879435999999995	-0.8179796903953491
O	-4.449076603411628	3.1969670899999993	0.6257740096046508
O	-4.423532583411628	4.351855029999999	-0.16889809739534917
O	-5.309408903411628	2.6672017799999996	1.5998526376046507
O	-4.720076303411628	1.8558716019999997	2.602875237604651
O	-0.7917926430116281	6.66028191	10.69352947760465
O	-0.6999853511116281	8.229929949999999	7.250966657604651
O	-1.713517991411628	5.54233898	4.771402957604651
O	-1.938146573411628	8.11457025	1.894611887604651
O	-0.19932778241162807	9.820130059999999	-0.9385239583953492
O	5.2270143965883715	9.629968949999999	-5.627281492395349
O	5.376638586588372	10.593354909999999	-1.9654548623953492
O	3.588810856588372	10.198806399999999	1.369595307604651
O	3.0879626565883718	6.71874465	2.887304377604651
O	2.885865456588372	5.7691110299999995	6.61754262760465
O	1.8123064965883717	2.5499812199999994	8.38656899760465
O	4.900133666588372	2.1040396109999997	10.61348107760465
O	4.482373536588373	-3.52401628	10.793086877604651
O	5.1988477165883715	-2.0372297100000005	7.352321647604651
O	4.151536816588372	0.5597727129999996	4.81276905760465
O	6.781376066588372	3.2954154299999994	4.70398931760465
O	6.965022346588372	5.4317405999999995	1.6089665976046508
O	3.947885036588372	-6.409962310000001	-2.594351942395349
O	9.748202076588372	-0.03866039000000043	3.098818527604651
O	7.033227346588372	-2.3997826000000004	1.976043937604651
O	5.219444416588372	-5.4180188000000005	3.362671657604651
O	1.9223352465883718	-4.1193594000000004	4.87608513760465
O	-4.854525153411629	-3.47771125	5.1113394176046505
O	-6.947924603411629	-2.73818995	2.148811587604651
O	-6.868505653411628	-2.038149	-1.522949122395349
O	-9.19779957341163	-3.1971340300000004	-4.32525417239535
O	-10.789797123411628	0.2593233199999996	-4.63993885239535
O	-12.027023823411628	0.14412153999999955	-1.0641764173953492
O	-8.008909913411628	-11.907332460000001	-8.30832644239535
O	-7.5363258134116275	-0.3686462700000004	-8.07507341239535
O	-5.771307343411628	1.8642879939999997	-5.7332440423953495
O	-2.477776383411628	0.03672810999999965	-5.93305972239535
O	-3.8904530734116283	-3.5837148300000004	-5.98035518239535
O	-3.804250223411628	-4.78289292	-2.3205146723953494
O	-5.742301833411629	-7.582144270000001	-0.7103091783953492
O	-5.599904453411629	-9.58889016	2.489535127604651
O	-4.144711453411627	-9.86049376	-4.095303412395349
O	-0.870378102411628	-8.04841157	-4.83188040239535
O	0.631867926588372	-5.472513730000001	-7.1833345323953495
O	1.969106086588372	-2.3438157700000004	-5.3480993923953495
O	4.279502836588373	0.37453612199999964	-6.693699002395349
O	5.825749436588373	-1.7779938500000005	-9.30696212239535
O	8.839455856588371	2.8178795599999997	-9.62134992239535
