75

O	2.75571404212766	-1.4390395912255318	2.027170096255319
O	5.898355772127659	-1.6158744822255318	1.4542819062553194
O	-0.20361728887234032	0.959565017774468	0.6373600662553194
O	-0.16658883487234027	-0.42566913352553193	0.47255825825531933
O	-1.2838974628723403	-0.9231010142255319	-0.030932902744680746
O	-2.1930729878723403	-0.015609605225531897	0.22296770825531925
O	-1.5666230118723403	1.166713417774468	0.6309830462553194
O	0.9498391721276598	-1.121111954225532	0.40757212425531925
O	1.1184011521276598	-2.262938872225532	-0.2594076017446807
O	-0.012093288872340291	-2.8576134122255317	-0.6835809627446807
O	-1.2367938388723403	-2.199176052225532	-0.4997519407446807
O	-2.4814315778723404	-2.8284736322255317	-0.6829330347446807
O	2.56207630212766	-2.465201772225532	-0.3922134518446807
O	-2.8292740578723405	-3.880183662225532	-1.5802357037446806
O	-2.3534159378723403	-5.213840142225532	-1.1766997037446807
O	-3.20031176787234	-6.304625092225532	-1.1042408757446807
O	-2.5732178678723403	-7.534995072225532	-0.8894159287446808
O	-1.4126898698723402	-7.767714922225532	-1.4888209737446807
O	-0.4902783568723403	-6.778195182225532	-1.4041117277446806
O	-1.0356975118723404	-5.5059511322255315	-1.3931287127446808
O	3.4542125021276595	-2.220176012225532	0.6154705462553194
O	4.7856204521276595	-2.420218052225532	0.3879605992553193
O	5.13727718212766	-3.043688642225532	-0.7762494017446807
O	4.193140462127659	-3.8748875522255317	-1.3731467687446808
O	2.8619349021276594	-3.6185312822255318	-1.0479928387446806
O	1.4115343221276595	1.709371177774468	0.9463290662553194
O	2.80364855212766	1.104978607774468	0.14566956925531932
O	3.9493678421276597	0.9053147577744681	0.2981069792553193
O	-3.41794143787234	-9.902105002225532	7.278952436255319
O	0.09413651412765967	-9.240218702225533	5.98183900625532
O	0.03465318012765972	-7.169241062225532	2.791337686255319
O	3.7521521121276598	-7.499182342225532	2.2509705562553193
O	7.196748312127659	-6.1910178522255315	3.211850166255319
O	11.00958812212766	-0.2203190482255319	4.80871055625532
O	8.94663102212766	-2.382144022225532	7.12790678625532
O	6.07124888212766	-4.860622152225532	7.247681236255319
O	2.6068922321276595	-3.843879552225532	6.0679573162553195
O	-0.7610569588723403	-5.114407862225532	7.19506993625532
O	-4.32647515787234	-4.699130492225532	6.059403046255319
O	-6.0050572178723405	-3.4308665222255317	9.20877660625532
O	-9.98225326787234	-0.503339572325532	6.44311319625532
O	-6.425833487872341	0.6948795977744681	5.915174596255319
O	-2.8961720478723407	-0.3919641695255319	5.070752786255319
O	-0.7540410338723403	-0.1990035092255319	8.23317868625532
O	2.9910835821276596	0.08499438677446813	7.62684827625532
O	-2.1225723978723403	6.915756147774468	-2.1222764837446806
O	-1.2901877718723402	9.013692257774467	3.989273316255319
O	-2.11778931787234	9.317621097774467	9.75295652625532
O	2.0688312821276593	4.948551467774468	8.86115863625532
O	-1.6272575368723403	4.538982207774469	8.10580991625532
O	-2.49780887787234	4.614135187774468	4.39943129625532
O	-5.697904237872341	4.488986247774468	2.3648499662553193
O	-6.140879897872341	0.8346421577744682	1.3088635062553193
O	-6.96703863787234	-3.989670042225532	-3.113311423744681
O	-4.33333737787234	-4.778136402225532	-5.71148068374468
O	-0.9765144518723403	-3.712735552225532	-7.088420533744681
O	0.1997217101276597	-3.506893532225532	-10.71057647374468
O	2.6065545021276595	-6.453746022225531	-10.27046825374468
O	-0.22331574187234027	-8.727075162225532	-9.396488673744681
O	4.987727632127659	-2.360382392225532	-10.15886191374468
O	4.743308052127659	-3.4201355422255317	-6.551434293744681
O	4.135471402127659	0.12635772577446813	-5.31790504374468
O	1.6285088521276598	1.1224009177744683	-8.01757314374468
O	-1.8472661978723404	0.3661645727744681	-6.668952193744681
O	-5.07939641787234	-0.011133911225531923	-8.590502513744681
O	-8.79298452787234	-0.011040730225531925	-7.8404263537446806
O	-7.57456539787234	4.436230097774469	-11.06554597374468
O	-3.90296398787234	3.7752769377744686	-10.37098442374468
O	-1.9556942478723403	5.411302457774468	-7.556624833744681
O	1.6472002921276598	5.962198567774468	-6.48278742374468
O	2.51844103212766	4.401696237774468	-3.121704413744681
O	5.528898052127659	4.848913417774468	-0.7321146207446807
O	6.13988069212766	8.400874687774467	-1.9841605837446807
O	9.182357752127661	10.336791747774468	-0.6844414107446808
O	9.626272422127661	7.977943027774468	2.255175626255319
