17

O	1.7148254857359522	32.236195699639204	6.895111150383164
O	0.8209730418330778	32.92194922599616	7.522766644029961
O	0.09347532685008861	32.108988574571335	8.41152480084901
O	-1.1524418553341906	32.38459870168947	9.217497191390358
O	-1.4453076596514771	31.01658562352251	9.739330431725016
O	-0.40412840494826485	30.251156927258716	10.42113864177822
O	-1.0272907958283664	29.02078528415863	11.024363299701161
O	-2.380034401530057	28.838744269469633	10.425491939216789
O	-0.06587870442789587	27.895135919168286	10.825014813737353
O	-1.3296232731533173	29.07763731176927	12.480183615104728
O	0.4132878229595116	29.732495463267156	9.238112064427545
O	0.5869397980289726	30.871218584746433	8.31703926925885
O	1.8543824852961428	31.042176913318457	7.648816572576225
O	2.5532485513755483	29.925157328795237	7.040813741970357
O	3.4558436660514538	30.376194286133593	6.036771130643143
O	4.550950779514753	29.515370031143245	5.769319078197836
O	2.307779355073237	28.740628698167583	7.317631993648268
