31

O	5.240224619877783	19.828660407756516	9.310016948973924
O	4.681623123883674	20.15019506025265	7.998242673219231
O	5.276861122371835	19.2454111609975	7.055319198317235
O	5.237176808058789	21.476244429645018	7.666136321368966
O	4.8792049050406865	22.528682416217354	8.661690159897963
O	4.473941459971712	23.81257680929778	8.16477594668325
O	5.00942087542321	24.959467670227326	9.289890838333003
O	4.565186606199951	24.52448686470044	10.640603992972029
O	6.484064944193877	25.08849086725878	9.133315596892096
O	4.308242294463047	26.460977264795453	8.880337505811593
O	3.1396481882639686	26.79708640138304	9.445705320653811
O	2.776517814194648	28.144549002679277	9.413548292776673
O	2.952000863303884	28.76684706199263	8.180685250323398
O	3.8621121724040064	28.157973452768136	7.3748634765931955
O	4.377169775616498	26.87012682805419	7.554078239967804
O	2.0479977665648503	29.855044184670014	7.741628339005462
O	2.4369072548768305	31.03486427976828	7.198032283723436
O	1.6185758981488734	32.09173313685166	6.978182736611608
O	0.6372726684064434	32.25992161034801	7.836453163160803
O	0.24082661114951587	31.11892045789256	8.445712457427925
O	0.8759015202677927	29.92198187745654	8.322205616185371
O	-0.6725165849473156	31.35252413396921	9.586492345179158
O	-1.5153849101816947	32.26503084946984	9.461605281717274
O	-1.0585640020998721	30.107499479018003	10.04296504011302
O	-2.393600108749573	29.965435171491816	10.398751620584958
O	-2.704266244236816	28.890672023918867	11.108920032854256
O	-4.048563628192803	28.710100209951456	11.287920423519203
O	-4.786091394859615	29.767656940228566	11.726320236579742
O	-4.484794069223329	30.93168757944979	11.083385932916514
O	-3.19891794680189	31.086209413673874	10.65756237556218
O	-0.03974248280138393	33.47953195154499	8.030758417957067
