14

O	-0.825735915945966	29.85854275488728	9.7375644791749
O	2.400729817980719	31.408422111915797	6.443208929348778
O	2.4974876623473055	30.08918993398011	6.63666609551032
O	-1.3751007859556597	28.755783877840216	10.115330651407351
O	-0.7908868084375331	27.849150138301432	10.75184542373834
O	1.6093812960637615	29.560751963390977	7.448916028448485
O	1.098546586706403	30.285780086570448	8.377087896602804
O	0.7430743652359566	27.970462172528936	9.829290389955553
O	0.7849665113280797	31.525967109354813	7.99289780207151
O	0.4338661255287708	29.638922349053075	9.436717803352767
O	1.597046923345515	32.21788228678536	7.137914854700768
O	-1.6392241078530798	30.60510913732567	8.796954067747201
O	2.9452833504789733	29.093640067788755	5.702584485075008
O	-0.6045785482802235	26.602170004379076	11.357465542544576
