31

O	-1.8965424413773126	27.09861895379592	12.301220073425327
O	-1.4745116691032067	25.373843382547776	14.222577488180455
O	-2.101833113612182	23.43677400047731	15.73169205570038
O	-0.9295451797594528	25.301616457789443	10.898770761269418
O	-1.67077954850684	26.492544682179165	10.795626072383792
O	0.265542092230444	25.47713080163714	10.004600170295461
O	-0.10451369529918286	26.438449961227516	9.04475062178853
O	1.3765353532823998	26.035644397688998	10.83432127682744
O	2.454852944115956	25.22282953034675	11.06735744019348
O	1.671083138477714	27.390641863734594	10.277154237808901
O	2.9404770980875115	27.237419735813557	9.693894497756704
O	0.5698051721695933	27.575055085046017	9.307596676173352
O	1.1746898230549072	31.996874599567455	6.910713166542923
O	-2.744342898170469	28.294970390053308	12.228514111634485
O	-1.6153675913021202	26.082967990453763	15.525237803464066
O	-1.3141853765619596	24.2813092034597	16.685472392004904
O	1.7853794577431534	30.828934867886492	6.7093370386670665
O	-0.39564604133526116	27.567758241894868	12.846049595773279
O	0.020698462429503794	25.58843173438572	13.58570049412814
O	-1.7605047965967344	21.83991914307532	15.704766930257335
O	1.5363494549592458	29.74476626514733	7.443933555303053
O	-2.638820840323162	25.947058487807666	13.233276593980245
O	-1.4604138686419317	23.72198323652741	14.20831608750407
O	-3.6519855960074334	24.030833950352232	15.63941789120226
O	0.5068447626543934	29.766807177426685	8.306436812449128
O	-0.10730453155967545	30.968289297307393	8.521156587023777
O	0.20270530811134158	32.0912886194432	7.807629248202552
O	-0.441844054148823	33.30909895812135	8.057335932101466
O	-1.132732220875332	30.79342087843897	9.335458086939406
O	-1.0245741628375213	29.50272792864866	9.761892592271778
O	-0.0316547469829741	28.850217374365368	9.157900928773117
