26

O	-0.1545055044150665	31.96083827183612	8.62860739525586
O	0.4370774677464233	30.717208629298185	8.70656459540986
O	1.3654833681848857	30.65150709448025	7.76212404358077
O	1.5820315074422029	31.829399517617425	7.2652482317715545
O	0.666339694237476	32.68610056201165	7.8114338837610235
O	-0.0234709667257591	29.611342299781015	9.301421733057838
O	0.5754483208137642	28.44070523138474	9.203835745450217
O	1.5480810987787343	28.383906457599068	8.23813418649582
O	2.046061600914859	29.518795573864526	7.634648048745291
O	3.2556754110823167	29.248905010654916	6.916134996956633
O	0.8731885219012354	27.579608530908445	10.388166413291232
O	4.120147822913324	28.16518190800539	7.267388654165331
O	3.844344414981923	26.737802714372357	7.033033544388724
O	4.471231164944608	25.93083838430846	6.059354533242585
O	4.462133603224004	24.557781009720863	6.088631208946261
O	3.960644332625807	23.88506860300542	7.17001201858747
O	3.2327287267343014	24.659854375921533	8.031152263097738
O	3.763083151109086	25.954714930554786	8.210732667059366
O	-0.1398663600392358	27.692278317003602	11.360259933837202
O	-0.3538422335114082	26.6512003072531	12.232367994291437
O	-0.06573364972126283	25.353829502794945	11.864180176767942
O	0.9404303306455379	25.214571102119663	10.914161977310691
O	1.0713724602405503	26.24943017306765	10.03297050289045
O	-1.3958233605915882	32.281695754961355	9.379322934531244
O	-2.394651594412736	31.065918020632463	9.384323711980224
O	-1.6957532103848854	31.360183207227475	10.60903153598291
