72

O	-1.1082481072553192	-0.38114300625531883	-3.305555044770213
O	-2.785824075255319	-2.495180386255319	-4.750024174770212
O	1.526125414744681	1.4487109397446813	-0.9824443027702128
O	0.23920449474468097	1.1342981077446812	-0.5545036067702128
O	0.021052884744680922	1.5463656797446812	0.6984512352297872
O	1.0534131547446808	2.2950599437446813	1.0013776752297874
O	2.015267834744681	2.2006203337446815	0.044262069229787204
O	-0.5308022392553191	0.16603816574468122	-1.0385350907702127
O	-1.6779381062553191	-0.10719243525531874	-0.4125646061702128
O	-1.879426466255319	0.22140003474468128	0.9233014752297871
O	-1.019549598255319	1.1625870467446813	1.4773422552297872
O	-1.448726928255319	1.8590042037446812	2.6264558052297873
O	-2.4354770152553193	-1.1562052762553185	-1.1028120517702127
O	-1.9929193912553191	1.3485300577446813	3.8368040152297875
O	-3.375697965255319	1.6687393837446813	4.1868003752297875
O	-3.806234225255319	2.611598393744681	5.126623595229788
O	-5.165764995255319	2.664960383744681	5.5055475452297875
O	-5.91603294525532	1.5719075867446812	5.466320835229787
O	-5.6454240752553195	0.7636007133446813	4.443853505229788
O	-4.309677705255319	0.6448556237446812	4.077329325229788
O	-3.5949840552553187	-1.5271893762553188	-0.5258255857702128
O	-4.371554115255319	-2.5086445262553188	-1.1420838707702128
O	-4.254289905255319	-2.6006796562553185	-2.5288358547702128
O	-2.9562235852553194	-2.3990888262553187	-2.990323174770213
O	-2.4064770152553194	-1.2332750462553186	-2.4515606047702128
O	-8.829140095255319	9.542162463744681	1.2941128452297872
O	-9.531887325255319	6.084852223744681	-0.1591123047702128
O	-6.946809375255319	3.5156111737446816	1.0337957652297871
O	-8.81389742525532	0.5770222667446813	-0.4052775565702128
O	-9.348898375255319	-1.3935929062553187	-3.5687980947702127
O	-6.401954345255319	-3.9120792062553185	-9.623389314770213
O	-7.874782615255319	-0.48390251625531866	-9.032086174770214
O	-8.676794515255319	1.981785203744681	-6.287713564770212
O	-5.902949575255319	3.3074051137446814	-4.029192414770213
O	-5.827201625255319	6.729740773744681	-2.362345604770213
O	-3.6321717352553193	8.435782683744682	0.19257169322978718
O	-2.550370685255319	11.580525503744681	-1.594754534770213
O	2.4226689747446812	11.92961400374468	1.0877358652297873
O	1.9930951347446808	8.904971143744682	-1.1445102387702129
O	-0.3063916862553191	6.016040703744681	-2.007622034770213
O	-1.8748802602553192	6.667101553744681	-5.425741364770213
O	-3.2049416252553193	3.639030113744681	-7.286936654770212
O	7.25576783474468	-0.7773978262553188	-1.2214815567702129
O	7.21561756474468	2.5109190737446814	-6.760321264770212
O	1.0654875347446808	4.196659603744681	-9.863373504770212
O	2.5785717247446813	6.361362103744681	-7.1386012447702125
O	3.9288217247446804	4.377567403744681	-4.210530164770213
O	5.76720348474468	5.2286590037446805	-1.0195348187702127
O	3.1725034947446806	5.538294403744681	1.7806818152297872
O	0.579511774744681	3.6893209537446814	7.531009255229788
O	-0.6811817022553192	0.13567171374468123	8.276333365229787
O	-1.0182101372553192	-3.3168010862553188	6.731790765229787
O	-0.4160192752553191	-6.758733916255319	8.338737585229786
O	-4.144836245255319	-7.650086226255318	8.144974865229786
O	-4.990095205255319	-4.7704287762553195	10.356498915229787
O	8.580760704744682	-9.992174696255319	9.809651915229786
O	-1.8150277972553193	-9.804406596255319	4.696265305229788
O	-3.5190585252553195	-6.885895526255319	3.006021905229787
O	-0.5130353312553191	-6.190697716255319	0.7830431452297871
O	2.1562107947446805	-6.524371536255319	3.474127975229787
O	2.744362864744681	-3.0460620062553185	4.9147126552297875
O	4.405197524744681	-2.1440232262553187	8.209023185229787
O	5.914495904744681	0.9696128347446813	9.763990415229786
O	9.960277144744682	-2.8714797762553186	9.018800285229787
O	7.540152264744681	-4.796893516255319	6.814510685229788
O	7.303937124744681	-4.439508666255319	3.036313915229787
O	5.848752384744681	-6.246667156255319	0.030922133229787208
O	3.2668341047446807	-4.216233766255319	-1.9216087747702129
O	1.7101433147446807	-4.703499016255319	-5.352224464770212
O	4.820405174744681	-6.663791786255319	-6.625373704770213
O	4.76932824474468	-8.230319236255319	-10.107714914770213
O	1.820428684744681	-6.100665336255319	-11.177381984770212
