71

O	4.460423225708333	-2.2542828484874997	2.5788419464958325
O	3.8704077857083337	-1.3418424514874998	3.5292759164958327
O	4.967265295708334	-0.9354246969874999	4.343923156495833
O	3.1732762157083334	-0.1815460594874999	2.9506624564958326
O	2.6423039457083335	0.028110643512500144	1.8939316964958328
O	2.8888532557083337	-1.3726371074875	1.7397791064958326
O	1.5725178727083335	-1.8000890094875	1.6263598964958326
O	1.0136929387083335	-2.9859496384875	0.9355891964958327
O	-0.10848389129166647	-3.7233310784875	1.5326691964958326
O	-0.17575581029166654	-3.0622795184875	2.914811986495833
O	1.2753697037083336	-2.9967350784874998	3.3773014964958326
O	2.0854051057083334	-4.1558230884875	3.5005694864958325
O	3.2678160457083334	-4.5037926884875	4.118361196495833
O	2.1629729957083335	-4.6795621284875	2.1395884164958328
O	0.6614172977083335	-4.9111965184875	1.9523686164958325
O	0.3904522197083335	-1.1011073544874999	1.5017243664958326
O	0.40581533670833353	0.18771290151250009	0.9273241664958327
O	-0.3925109742916666	1.0940759815125003	0.2910692394958327
O	-1.5553072142916666	1.0069090015125002	-0.48700260750416735
O	-2.6571653542916667	0.6319494415125002	-0.6957105085041674
O	0.42377597370833353	2.1512749815125	0.01675478549583266
O	1.3778664017083335	1.9457438015125001	0.8434067754958327
O	1.6561246257083335	0.6920344615125	1.2021385164958327
O	1.6804213927083334	0.5771621715125002	12.815592256495833
O	-0.30166315429166657	-2.1173074284875	11.065452856495833
O	1.0109836397083336	-2.4865325984875	7.532748556495833
O	-1.1911458142916667	-5.6234849984875	6.959260516495833
O	-4.580494714291666	-6.9275788584875	5.951807286495833
O	-10.290538604291667	-5.8056291484875	1.7814784664958325
O	-9.617402604291668	-4.3417742584875	5.194823096495833
O	-6.819921664291666	-3.5072166684874997	7.588275706495833
O	-4.094968544291666	-1.0902041984875	6.5079897364958335
O	-2.0375352942916667	1.1668877315125	8.745960046495833
O	0.9447011487083335	3.3719424615125	8.257157786495833
O	-0.36943485429166656	6.7561240115125	9.552681136495833
O	2.9837820857083335	9.9219948015125	6.168245176495833
O	0.42363275770833353	7.7498053215125	4.380177296495833
O	-1.0589860542916665	4.2334348315125006	4.127048516495833
O	-4.500297474291667	4.1871272615125	5.607142256495833
O	-6.831762194291667	1.4551666815125	4.489327506495833
O	0.21733690470833356	3.4187282415125004	-9.742996113504168
O	0.16299775370833347	4.0331388515125	-5.994980023504167
O	-4.948532004291666	7.477844861512501	-3.9594110635041675
O	-8.080818744291667	10.9010411015125	-0.4513696175041673
O	-8.746597694291667	5.1945150115125	1.6677607064958326
O	-5.615089334291666	7.275128441512501	2.0712206864958325
O	-2.7729495842916663	6.1333076215125	-0.18734126230416734
O	0.6963549047083335	7.4227073015125	-0.9062654855041674
O	3.0965485257083336	5.5074738815125	1.2639748464958327
O	7.996595175708334	0.8009166315125	2.4978140364958326
O	8.199418995708333	-2.4058390784875	0.8492451494958326
O	6.498820825708334	-4.7901479884875	-1.4542783035041673
O	7.804494255708333	-7.1587356584875	-4.023828553504167
O	7.005604235708333	-10.2141537784875	-1.8608584035041673
O	9.366562445708333	-9.0446495284875	0.8025221764958326
O	3.6628267657083335	-9.606071358487501	-5.165039633504167
O	2.0832172557083335	-8.251936238487499	-2.007794833504167
O	0.3987485217083335	-5.4015101984875	-3.867628413504167
O	3.3837543857083334	-4.4154433584875	-6.070443233504167
O	5.323892905708334	-1.7476006074875	-4.162518653504167
O	8.877216475708334	-0.5568619174874998	-4.498575113504167
O	10.962284495708333	2.3498515515125002	-3.290953593504167
O	10.427057945708333	2.4882314815125	-8.981194653504167
O	7.677563645708334	-0.11737679748749985	-8.670296723504167
O	3.9504336557083337	0.6323148415125002	-8.369491723504167
O	0.5662835637083334	-1.1067035534874998	-8.613024593504166
O	-1.4736866442916665	-0.9192864015874999	-5.365876173504167
O	-5.128425414291666	-1.6020077054875	-4.654565093504167
O	-6.159281764291666	-0.8463540119874999	-8.294973393504167
O	-9.788775504291667	-1.3840289084875	-9.441555973504167
O	-10.993227004291667	-1.5864098454874997	-5.842445173504167
