29

O	-1.3904317881508277	31.132314943508636	9.89823195693195
O	-0.3049927352836539	31.241205345476462	9.041603066961729
O	0.32453946446384885	30.0009515193171	8.82636976315609
O	1.26179955567418	30.047536814783328	7.8859001087881415
O	1.8702503487803552	31.138575777151765	7.459859124289203
O	1.237617442955065	32.30558092666812	7.514440521747329
O	0.21347429945971497	32.36382454396042	8.36218372435402
O	3.050597053516083	30.842475117033864	6.757965417608817
O	3.800807385805971	29.694478194916897	6.94721228720466
O	4.00633857931273	28.83502399868788	5.9566215775839755
O	4.573034866073347	27.5956176645291	6.150166829816018
O	5.4773950079080205	27.502570248854525	7.173318094378027
O	4.683427241207912	27.972788400703152	8.220631566599035
O	3.9805472722644573	29.159168009068573	8.166221668119338
O	5.7855479967680115	25.74688937458037	7.558717299407993
O	6.884701320042835	25.142964004502122	6.252639359988494
O	6.566965661967306	25.418846352836926	8.76387153673162
O	4.558796171211775	25.18528294507696	7.605423858510813
O	3.922136246036505	24.146205817847573	8.597443830631974
O	3.960829274643335	23.967461954262603	7.175893527502578
O	0.5435286136535509	28.76594573020655	9.558101404467637
O	1.5742771563547842	27.742926116334562	9.39791565428137
O	2.127782945044296	26.914161491312846	10.470595326869615
O	1.749382235824166	25.54047299585308	10.523534209582925
O	3.5654413402660277	26.59581920722909	10.443325896023449
O	1.6183438984426437	26.66554397739293	8.394950425086689
O	-0.8019314050924549	30.43689134011166	11.06799531007335
O	-2.263128126782472	31.753989313862416	10.631303294700693
O	-2.1858109610166347	30.00599489310826	9.465516302702502
