103

O	-0.32941901200000023	0.9713478663164179	-1.4852757616567163
O	0.27764232799999977	2.1383063567164178	-0.7238058596567162
O	-0.1799196820000002	2.0475613087164177	0.5129176393432838
O	-0.8199815530000003	0.2606867617164179	-1.0210343506567163
O	-1.6426490940000003	1.3092671707164178	-1.5476069916567161
O	-2.5471802520000004	2.173991686716418	-1.0822153276567161
O	-2.8357358820000003	3.589701206716418	-0.7900823486567162
O	-1.8150923940000003	4.516054386716418	-1.0686561606567162
O	-1.4177654808000002	5.495839136716418	-0.1495427039567162
O	-2.4318658120000003	6.1904249267164175	0.3529929783432838
O	-3.5866700920000003	5.548617646716417	0.4345234343432838
O	-4.568405342	6.011794726716418	1.3307453283432837
O	-1.8172630890000003	1.590337848716418	1.7347732183432838
O	-2.8225224620000002	0.8435762917164179	1.0098941583432839
O	-2.538497552	-0.5770456632835821	0.7034680933432839
O	-0.9904921910000002	2.677303706716418	1.4539040783432837
O	-2.6156171020000003	-0.7396372232835822	1.970280788343284
O	-1.8626154940000004	-1.7761453732835821	2.386941708343284
O	-0.7820823460000003	-2.1439865632835824	1.5262835483432837
O	-1.1421891000000002	-2.593815203283582	0.36398119934328377
O	-0.5126682140000003	-3.360237993283582	-0.4778874396567162
O	0.04419757799999968	0.6489281117164178	0.1624093373432838
O	-2.000017859	-1.5488118132835822	-0.0934283496567162
O	0.3855929979999997	-1.832263713283582	2.3442824283432837
O	-3.3937023820000003	4.131696616716418	0.3435587953432838
O	0.12126873799999971	-1.010324473283582	3.5140013883432837
O	0.5587053879999997	0.2716202367164179	3.719739988343284
O	0.20188328799999966	1.010964493816418	4.936623358343284
O	-0.38121001200000015	0.6205731867164179	6.087611078343284
O	-0.9795591630000002	-0.5973896632835822	5.752086728343284
O	-1.0700970000000003	-0.9535156932835822	4.321538118343284
O	-0.06861309200000032	0.6383053797164179	7.430935218343284
O	-2.130382173	1.4993069017164178	2.8593206383432834
O	0.2419329779999997	-2.803948103283582	-1.400874471656716
O	-0.18159500200000034	-4.493443473283582	-1.0631435996567162
O	-1.5610761280000003	-3.614251243283582	-1.473769021656716
O	-6.680728002	14.883191616716418	1.436312878343284
O	-3.4344151620000005	12.931658716716418	1.6844285983432838
O	-8.151639472	2.3316825767164175	7.786574978343284
O	-9.900746542	5.2265560967164175	6.035630878343284
O	-9.183621162	8.573246936716417	4.467722378343284
O	-6.873333322000001	8.948970816716418	1.5129191483432838
O	-7.090334922	11.469444716716417	-1.264494001656716
O	-3.541723642	8.323373146716419	-7.985752971656716
O	-4.014097742000001	7.9700657467164175	-4.299301191656716
O	-7.615239752000001	7.010077756716417	-3.5439623116567165
O	-8.387849322	5.372349116716418	-0.2518196226567162
O	-11.869603222	4.918970076716418	1.032534698343284
O	-12.135929722	1.9548966607164178	3.3966122283432836
O	-7.183885042000001	-7.708503433283582	-1.440009601656716
O	-7.299044202	-9.235065883283582	-4.868745501656716
O	-4.084407572	-11.066155683283583	-3.9718707816567163
O	-2.2505819550000004	-7.937809133283583	-3.1848561416567165
O	-3.014423582	-6.621215203283582	-6.603817181656716
O	2.076377268	-8.441956863283583	-5.375661421656716
O	7.548493617999999	-4.9814472932835825	-6.957121491656716
O	9.454579578	-1.748941063283582	-7.629566661656716
O	9.701626978	-1.036177443283582	-3.9137302216567162
O	6.030129708	-1.696072023283582	-3.1788850316567165
O	3.3663278379999992	0.7972049417164179	-3.853624191656716
O	1.3351129579999996	-0.6335015232835821	-6.641693291656716
O	-2.2971712940000004	-1.3005764132835822	-5.935099991656716
O	-3.7977788820000002	-0.2653421732835821	-9.305033821656716
O	-7.423656792	-1.2107809732835821	-8.808342301656715
O	-9.860540292	-2.4561285332835823	-6.194935811656716
O	-13.286803722	-0.8765684632835822	-6.603684881656716
O	-12.044151421999999	1.836233885716418	-2.6264868216567163
O	-8.384616302	1.1291344027164179	-3.1839996916567164
O	-6.641123562000001	2.9630982067164178	-6.006612861656716
O	-2.897710662	3.1490033667164177	-5.597879511656716
O	0.0022188779999996466	4.3716355267164175	-7.401107901656716
O	0.6904292779999996	7.935569886716418	-6.250782251656716
O	4.382792697999999	12.923923916716417	-3.6090982516567163
O	6.510454018	10.193935786716418	2.6825247583432836
O	13.142986278	-1.4084725832835823	1.6994077283432838
O	14.858400278	-4.712997013283583	2.4842903883432834
O	14.419511478	-5.748534973283582	-1.1528803456567163
O	10.707328878	-4.8923171532835825	-0.8505794936567161
O	10.380336678	-6.861778453283582	2.3761945183432838
O	9.798306078	-9.902136083283583	-1.856252921656716
O	6.700235298	-9.695287783283582	0.27202743334328383
O	2.7960100079999997	-11.254889983283583	3.0751801483432835
O	3.6077473279999994	-9.281610883283582	6.105891148343284
O	3.335758587999999	-5.675240563283582	6.541546168343284
O	2.7415015779999994	-5.716987843283582	10.292739078343285
O	2.9401519879999993	-1.941303513283582	10.754650878343284
O	5.991632237999999	-0.24437588328358206	9.114773248343283
O	6.4785614879999995	3.467559476716418	9.988284678343284
O	7.926938427999999	6.569052896716418	8.322351238343284
O	4.4358423479999995	7.733946266716417	7.349124258343284
O	3.873752197999999	4.807337706716418	4.956451538343284
O	7.3158234779999995	4.696800716716418	3.4027946083432834
O	6.972909967999999	6.793256426716417	0.21968256134328382
O	8.310545308	2.175432206716418	-1.4889358016567162
O	6.390204538	0.27355378671641783	1.089277078343284
O	2.854342837999999	1.5352605827164179	1.2289771583432838
O	0.6313619679999996	-0.005953213283582226	2.8651016683432835
O	1.4419635579999996	-3.9803560632835824	2.4349090183432835
O	-0.7173483630000003	-6.744276593283582	3.9070442183432834
O	-4.0083708620000005	-4.919366733283582	3.943719838343284
O	-3.637615672	-5.656798903283582	7.817500538343284
O	-4.364530182	-9.150687083283582	7.021870148343284
O	-7.077673282	-8.256810563283583	4.537574448343284
