76

O	0.3283104308499999	0.49650260863461537	-0.03194972928076977
O	4.07271012785	2.1985319081346155	0.4053792870192302
O	1.7137453678499999	0.1804493671346154	2.3088656960192306
O	0.10787987363199986	-3.0547259718653845	1.5337832560192302
O	1.5704853478499998	-0.025081250865384597	-0.4854499169807698
O	2.33383032785	-1.8480533518653846	1.4396711560192301
O	6.08192385785	-1.8368271318653848	-0.8548973949807698
O	2.78080819785	0.5847427051346155	-0.5415532589807698
O	2.73145162785	-3.7292716118653844	0.4123976880192302
O	2.8631142278499997	1.8167620481346156	-0.03719419128076977
O	1.6235885478499998	2.4701931381346154	0.24008710201923023
O	0.5025852208499999	1.6478378781346152	0.5618755020192302
O	3.8058708978499998	0.4415219719346154	-1.4086055839807698
O	4.86905001785	1.3286938271346154	-1.5569870539807698
O	5.05157922785	2.2316902381346155	-0.5449270709807698
O	-0.6118287351500001	-0.4555270968653846	0.6854861020192302
O	0.024637130149999853	-1.2445636318653848	1.4718443260192302
O	1.46060588785	-0.7789458118653846	1.5967167660192303
O	1.7644677978499999	-2.793444581865385	0.8061404710192303
O	3.76335559785	-3.3099434918653845	-0.4698474709807698
O	4.53771220785	-2.1051680018653847	-0.23520409898076977
O	6.47918984785	-0.7166761718653846	0.3309861580192302
O	5.39097230785	-0.6605631818653847	1.1117679460192302
O	4.86097465785	-1.892596511865385	1.0875304660192302
O	10.15977601785	2.5993228581346153	8.616442826019231
O	8.95370504785	-0.9313155318653846	7.86710018601923
O	7.58048813785	-1.0540540618653846	4.4121728760192305
O	7.09629991785	-4.806885881865385	4.309662006019231
O	5.0248503178499995	-7.7470419118653835	5.550395986019231
O	-1.7568670021500001	-10.131820951865386	6.59008448601923
O	0.4247263568499998	-8.098347851865386	8.93086872601923
O	3.3586403478499998	-5.691415521865384	9.016697726019231
O	3.23613547785	-2.4038317018653848	7.05949038601923
O	4.93756403785	0.8131146081346154	8.17113184601923
O	5.43035903785	4.210631678134615	6.625059416019231
O	4.030203707849999	6.561312008134616	9.18124900601923
O	2.37035846785	10.506477998134615	5.4279063160192305
O	0.6134613508499999	7.138977298134615	5.178096116019231
O	1.0967034358499999	3.367198338134615	4.979641226019231
O	0.06950211164999986	1.8349312981346153	8.25260296601923
O	-0.8635664911500001	-1.830802161865385	8.18640419601923
O	-13.89331508215	-1.1732946418653847	1.4288333960192303
O	-7.28571806215	1.6149378181346155	-6.09496948398077
O	-5.04970349215	2.5735896781346153	-3.1637610039807695
O	-7.34511338215	4.627012458134616	-0.9342339669807698
O	-8.15943394215	3.2156327481346154	2.4877949760192304
O	-8.04563011215	6.391629428134616	4.58090451601923
O	-9.13218142215	5.018917888134616	7.94544570601923
O	-5.57330169215	0.05216147813461541	8.360713146019231
O	-4.34497576215	3.4354175781346155	7.19684059601923
O	-3.73399718215	3.6627393881346153	3.4768158760192303
O	-2.69383592215	6.412191138134616	1.0963768860192302
O	1.0523409448499998	6.239238548134615	0.6805025700192302
O	6.62970593785	4.8994577581346155	-2.8133392639807697
O	7.24914695785	2.0081923081346154	-5.0036830839807696
O	5.66985835785	-1.2596568018653844	-5.993355363980769
O	5.79310345785	-2.8968602118653846	-9.43363349398077
O	8.09105610785	-5.694988361865384	-8.256408203980769
O	10.76322671785	-3.197936111865385	-7.382651073980769
O	-5.17641203215	1.2977762671346154	-15.660481073980769
O	3.58717785785	-7.242488101865384	-8.52896082398077
O	4.15289964785	-6.6362063318653846	-4.8624673839807695
O	0.7160663188499999	-5.0356984118653845	-4.304210953980769
O	0.5815715918499998	-3.0387402018653846	-7.48832654398077
O	1.82768845785	0.40564744913461537	-6.50701439398077
O	3.16731591785	3.1607692981346154	-8.73790909398077
O	3.87837607785	6.859563398134616	-8.47257593398077
O	-0.2868908101500002	5.9723537581346156	-12.266553873980769
O	-0.5329318691500001	2.4203472081346153	-10.94031157398077
O	-2.91770036215	1.2524414151346153	-8.20799101398077
O	-4.291415192150001	-1.9492005118653846	-6.70669943398077
O	-3.46285621215	-2.480685101865385	-3.0326266639807695
O	-4.77133369215	-4.833261971865384	-0.3659628139807698
O	-8.20633702215	-5.099119621865384	-2.1508017939807695
O	-10.89495238215	-7.491636301865385	-0.8217927879807698
O	-9.12383900215	-7.826694831865384	2.5214871360192306
