16

O	1.726505976340421	32.45225789817273	6.943215019180643
O	0.7273218447744237	32.91736113404854	7.632860369728039
O	0.043977211539798194	31.84971376713957	8.31447522092797
O	0.6846899575230807	30.80854128400229	7.9034273884256185
O	2.027824432142259	31.223176127709078	7.565845080381649
O	2.9488746209403844	30.231660934188124	7.063073304586361
O	3.5754909728383013	30.504925693284783	5.848586984266589
O	4.700418443730575	29.718076140616084	5.514332575002046
O	2.5626060154063977	29.018651677487163	7.217826429708115
O	-0.9481755661932755	31.615769818453963	9.408145625471308
O	-0.49716350529093756	30.055998853977453	9.820650505872663
O	0.842400124803521	29.37686172883256	9.471598283332852
O	0.43722255628050855	29.31760556368771	7.9968544792961564
O	0.3775134518150498	28.117348155644983	10.234358516904637
O	-0.3658336698566229	28.264343084852452	11.497640301901557
O	-0.8696938762704698	26.859825007190583	11.851956633695858
