29

O	2.781083178641743	30.618797332174143	6.9950997536305
O	3.793623987327056	23.465625493989076	8.506600976543755
O	5.2339729319717305	25.32376435865921	9.908731608081567
O	4.39421580777717	24.409100161542963	7.510831118587852
O	1.1075809967909553	32.275745344050954	7.335337039159089
O	6.729292975510173	25.542134224757845	7.900908279963391
O	4.6766345617552325	27.112585893381468	8.163766678708223
O	-0.7092292124788886	33.79226691004117	8.254969553623912
O	-0.6913147681271987	29.389090282049786	9.563231479175426
O	3.621279279246792	27.57141200395851	8.893444727232916
O	-1.7205618139847558	32.12387086339127	9.368191870525095
O	3.0915619566516455	28.739617518982197	8.432656637656
O	0.9135652965040237	30.008862930824947	8.125254338754644
O	3.2774316955977953	29.31681151184225	7.215677765226735
O	1.5747351416848945	30.957650370478113	7.326937172878154
O	0.06685655950510028	32.615935352629215	7.990790498316549
O	-1.7117733585914936	33.389895265737685	9.203169541166371
O	-0.3870278047532574	31.72472225396713	9.055196952396129
O	-0.22501592680724936	30.33932973442304	8.64523073158679
O	-0.4464776911470063	28.07329217473003	9.155209284040119
O	0.468808912641258	27.420804368076766	10.089866021054544
O	0.12452688672199974	25.962318100101545	10.196000019341618
O	-0.4377672189067765	25.561744127077084	11.524367057167519
O	-1.6089866007970255	26.322988181436813	12.010058758265004
O	-1.4939713992735928	27.727750674101088	11.420794045624302
O	0.031572482564011795	27.968655360350958	11.423837265720957
O	4.395828395733318	28.839729118591727	6.554372286792321
O	5.0652722166405395	27.766471360243226	7.052458284752564
O	5.357263436189273	25.549420526087005	8.447764933034517
