27

O	-0.7428702885180963	29.38364120589928	10.562156543785314
O	-2.061949340537257	28.848824843253958	10.588246776479853
O	0.137382799196409	28.510584489001143	11.061168025793682
O	-0.4130995354651551	30.679819891754665	10.712949947504153
O	-1.7732650729722494	27.607847900728522	11.120282287587738
O	-2.82413994251213	29.461844298262747	11.7178662315965
O	-0.4461418442845234	27.212191217381008	10.980645742098524
O	1.418856451763224	28.900618310611485	11.273208238345042
O	1.0092847467995458	30.751384160698645	10.365936344398632
O	-0.9822515339370642	31.432020010617613	9.620125121129488
O	-2.599621674163175	27.256950629414618	12.301015683606384
O	-2.3260446799047205	28.59628301311803	12.874588731218044
O	0.26770706431245495	26.19880529108897	11.30346146165348
O	1.9854114259440472	29.79953496484003	10.440314015628068
O	-0.8011943093522224	30.922038131190032	8.355101934370508
O	0.1209617566144483	31.72102472527491	7.536369768125086
O	-0.5211041234083439	29.67804790314561	8.291039851910472
O	1.2591593032440556	31.0242160619365	7.040774605784836
O	1.8721834833501005	29.71742900604905	7.113320025066255
O	2.0493851660537645	31.94622949043523	7.374406537505369
O	2.5757616173027906	29.677896616885565	8.120342830962013
O	2.792793435263884	30.976892684771645	7.607334642849526
O	2.738712446958432	28.211121409556913	8.453472962070423
O	1.5336717974054301	27.24825351337237	8.316242814097931
O	2.5963539787858125	27.59215417092282	9.693207444053733
O	2.683073172109631	26.11657776426094	8.141710939902243
O	2.9534624876321707	26.09890462583582	9.593496424150759
