30

O	3.599386635623882	26.03728806955728	8.556964026558015
O	4.4500643457383555	26.361510824718913	7.477747170763371
O	4.133113213288571	27.556091042349955	6.6076447677714825
O	3.7620603649967315	28.849032539258943	7.218898365535494
O	2.9160588407271586	28.455587395830477	8.381929128010148
O	2.663728067242137	27.069290733891712	8.443228461052517
O	3.071893057867345	29.901998481583156	6.547722331587194
O	2.2389185515241183	30.741449303397058	7.264463005242356
O	2.3490355127809064	32.201954240767016	7.223271233870503
O	1.325320727481629	32.55303472530915	8.242670416299584
O	0.6413679532807298	31.36951282461551	8.848997319447248
O	0.09888100356974099	31.947318457708658	7.622814128730971
O	0.9772721931649342	31.205792060034454	6.788584982618073
O	-0.15282167795698487	30.639359325185378	9.629861730030784
O	-1.2579942488795788	31.46795050649566	9.995885513007037
O	-0.011045320012973609	29.340833126015333	10.345726417109637
O	-0.4353165275019643	28.111470506090278	9.656563414267538
O	-1.130509940070555	27.086250675613705	10.421515698882416
O	-2.55893386877657	27.49069669365382	10.832893503478802
O	-2.5432299235479827	29.008453877026195	10.606595232420505
O	-1.2018310216689754	29.419895378973237	11.138464994463286
O	-1.1921264833437368	29.070338023377357	12.47619564948192
O	-2.4628611792231285	28.63900515064615	12.924010087535247
O	-0.21090425800171284	33.33380390818758	7.56241786759523
O	3.267704095856036	25.210397718530018	9.729315601930917
O	2.366389883856611	27.031705605733016	10.892935274553986
O	1.1432771957572112	25.332626716778115	9.524013822007833
O	2.8891056540430635	24.527430601541173	10.735956544195734
O	-0.2043823084465964	28.193521007275862	8.368661347275117
O	-0.5635468432781936	26.704723434470807	11.638782513447254
