67

O	6.397060413068182	2.783843064749999	2.0410721155840905
O	6.778697953068182	3.306490424749999	0.5607620425840906
O	6.8889815630681825	1.4455082237499992	2.314264775584091
O	6.5830939430681825	3.9903591447499993	2.9340047755840906
O	4.522227653068183	2.843989944749999	1.8983900655840906
O	4.096127523068183	3.489192274749999	0.6855335845840906
O	2.7152704830681818	2.976562734749999	0.11784390558409055
O	1.8779792530681818	2.7545935747499994	1.3177870555840907
O	2.5081273730681817	1.4226751387499992	1.0806446815840904
O	3.759244213068182	1.657872801649999	1.9849853155840904
O	0.49780370606818186	2.590115010749999	1.4054486855840906
O	-0.10026368893181811	1.5684923790499992	0.5458015225840905
O	0.42796076806818184	2.000930501749999	-0.6983201064159095
O	0.30605775706818183	0.9615871717499991	-1.6667639444159095
O	-1.0592379169318182	0.5239275647499992	-1.7177070944159096
O	-2.0794614069318182	0.8590435497499991	-0.6993407274159095
O	-1.525946406931818	1.5664152622499992	0.4683592655840906
O	1.608390153068182	0.6168257187499991	-1.6992463844159094
O	2.973870293068182	0.7013233957499991	-1.7877750344159091
O	4.326132533068182	0.7886132077499991	-1.2417394144159095
O	5.341255503068182	0.8096890457499991	-0.34637285941590945
O	5.485384383068182	1.5512329945499992	-1.8121135044159091
O	2.845642673068182	0.11073170474999916	-3.1963274244159092
O	2.591707673068182	12.294519454749999	-2.283336224415909
O	4.038586873068182	9.58917772475	-4.5385197144159095
O	3.8286036830681818	6.312686654749999	-2.950777704415909
O	5.879957903068182	4.5992391247499995	-5.60270613441591
O	5.814780733068182	2.8653969347499992	-8.891339334415909
O	2.483493633068182	5.315921484749999	-10.566168904415909
O	0.6839930810681819	5.334058454749999	-7.22779044441591
O	-0.18594601493181812	8.35506554475	-5.09406807441591
O	-1.4863238369318181	8.83827700475	-1.5588827144159096
O	-4.595698446931817	10.949293544749999	-2.1693393744159093
O	-7.367173756931818	8.925473034749999	2.3546987655840907
O	-6.5522047269318175	6.377305464749999	-0.34293274541590946
O	-3.9552586269318177	4.986643244749999	-2.6503013544159093
O	-4.569132366931818	6.153201434749999	-6.21368050441591
O	-2.992306616931818	4.023575644749999	-8.938882554415908
O	-6.352211906931818	-4.473520925250001	0.08082633958409055
O	-10.292352376931818	-1.890096995250001	-4.2690820044159095
O	-8.540667706931817	3.557908474749999	-5.89065016441591
O	-7.192872276931817	1.320237993749999	-3.1315604844159095
O	-7.6554765169318175	1.377113546749999	0.5761447295840906
O	-4.542683876931818	2.9949729947499995	2.0225247655840906
O	0.8461057170681818	3.0822266547499995	5.98180032558409
O	3.615294033068182	0.4567910947499991	5.6036751555840905
O	4.673963583068183	-2.6290544452500013	3.5094426155840908
O	6.477524383068182	-5.644506955250001	4.56812580558409
O	9.698311203068183	-4.669785025250001	2.7300438855840907
O	10.049419823068183	-1.5840502552500009	4.78516568558409
O	9.094225693068182	-3.299608825250001	7.96989000558409
O	1.510057953068182	-12.68276194525	9.040924405584091
O	7.280658053068183	-7.94004349525	0.30017803588409053
O	6.564968673068182	-4.8264382052500014	-1.5263704844159096
O	2.856635393068182	-5.680399545250001	-2.1225719244159094
O	2.128770583068182	-7.071104425250001	1.3322397455840904
O	0.7451853640681818	-4.209301215250001	3.4456924055840905
O	0.5317746730681819	-3.967685695250001	7.21521658558409
O	-1.3221570569318182	-1.8043244052500007	9.72859872558409
O	-3.180203126931818	-7.152658835250001	10.07602824558409
O	-1.4137931269318182	-7.870327895250002	6.7962547855840905
O	-3.0244968769318183	-7.6093161052500005	3.346586215584091
O	-2.424293856931818	-8.647687545250001	-0.2669278774159094
O	-2.103271106931818	-5.676147115250001	-2.720167694415909
O	-2.2211990669318182	-5.5960068552500015	-6.53916345441591
O	-4.3301440169318175	-8.82044734525	-6.74157055441591
O	4.905848583068182	6.036188544749999	10.772733195584092
