28

O	1.160613595514664	31.754066782576587	7.8545430767376905
O	2.7264997527117503	30.444179258605185	7.6525169933734585
O	-0.33686861535764656	33.530319238632195	8.217170131946105
O	4.780190572764738	24.28437861114413	8.386119735666888
O	-3.676729557608783	28.887781920315458	10.699445640147859
O	-0.8667176021520662	31.302599185666647	8.985624073554764
O	-0.011483996821340603	32.274368126552986	8.44994945754727
O	1.4315583899358395	30.523135259880558	8.293372150411024
O	3.3250068199068767	29.296650432804437	7.662904709809605
O	-1.6582938245572112	30.92794222584759	10.077984632756023
O	-1.4324489333982056	29.71261224663399	10.947592996717233
O	-2.413794430115125	28.872314870065026	11.386721640455189
O	-2.0888790792123757	27.864025633261477	12.296510705833871
O	-0.8755873908890741	27.188010353519115	12.155970756753117
O	0.07416237139469994	27.869549510003665	11.46355295622227
O	-0.15827081697972356	29.107756814052877	10.93341512820055
O	3.273119646796329	28.446097132460256	8.731664833709512
O	3.809809439069655	27.19692128938735	8.746242908563119
O	4.850701275526594	27.00407297042858	7.89046410649803
O	4.912877621053241	27.826884451526322	6.824100075862084
O	3.9204344911085753	28.73289377608151	6.591202699290674
O	-2.306860007763614	31.83711828338754	10.69598061820717
O	6.844979339110672	25.679135270304105	8.932971874071422
O	6.52699490921561	25.299416697733427	6.6235944502806845
O	-4.230657905774994	30.095389995983886	10.521114811517881
O	-4.517382627156147	28.072721657489964	11.165537212246583
O	-0.07052007643246871	29.73560396513213	8.614150056361584
O	5.797884681127572	25.558032136648304	7.894141397909749
