71

O	-1.7438111582264149	-1.9315822181584905	-4.520209604733963
O	-1.2179258382264149	-0.9195253181584905	-5.153369124733962
O	-2.170344798226415	0.18869663684150945	-5.511068404733963
O	-2.2866631982264147	1.1475801278415094	-4.414480884733963
O	-1.3287003782264148	1.0456568478415096	-3.3931705547339623
O	-1.2819073682264148	1.7160746218415093	-2.2597738947339625
O	-0.4286316892264148	1.3819782668415095	-1.3129098417339624
O	0.4355499067735851	0.3612945818415094	-1.5677958397339624
O	-0.05634879822641481	-0.08692731015849053	-3.1612085247339623
O	-0.22395403582641482	2.2132785218415094	-0.15117206173396236
O	1.199592031773585	-0.5396151881584906	-0.6931995111339624
O	1.272836521773585	-1.9522719581584909	-1.1050413517339623
O	0.22310923977358516	-2.4440101581584908	-1.8956931947339624
O	0.3456808417735852	-3.6293693681584904	-2.6347384247339622
O	1.5883675417735852	-3.7579654981584905	-3.2501184047339624
O	2.618139751773585	-3.5189655481584903	-2.339907384733962
O	2.3935740917735853	-2.7047777681584906	-1.2296598267339625
O	1.561960261773585	-0.12516748415849055	0.4245375652660376
O	4.452583591773585	3.670621181841509	-12.472145574733963
O	5.435750021773585	0.4030084027415094	-10.799130774733962
O	2.7095692417735853	-0.7759821381584905	-8.425979274733962
O	4.456628261773585	-4.07191785815849	-7.718189004733963
O	7.238845721773585	-5.83498281815849	-5.813896634733963
O	10.651929891773586	-6.2635347681584905	0.5747464952660376
O	11.405032991773584	-3.960256698158491	-2.3385363647339625
O	9.809180691773586	-2.3229624581584907	-5.370601244733963
O	6.730284441773585	-0.08736596615849057	-4.952222044733963
O	5.881743241773585	2.857099351841509	-7.189694424733963
O	2.9518824317735852	5.21215977184151	-7.5186748647339625
O	4.544294821773585	8.61067889184151	-7.1303833247339625
O	-0.07256790922641482	11.01627501184151	-4.851509414733963
O	1.5257035317735852	8.27323624184151	-2.7858087447339623
O	2.8621388617735852	4.7247992418415095	-2.853218964733962
O	6.649187741773585	4.81279168184151	-2.6300975347339626
O	8.366338391773585	1.6772834718415095	-1.4111838627339623
O	4.9047357017735855	2.1617458018415094	12.858255425266037
O	-8.075248568226414	0.2601708258415094	8.443176045266037
O	-4.288764508226415	0.47530381934150945	8.335322395266036
O	-2.593341808226415	2.0476429918415096	5.319041145266037
O	-1.0295949402264148	5.21023571184151	6.709550835266037
O	2.757564481773585	5.45340077184151	6.719701405266037
O	3.213322671773585	9.100206351841509	5.732524865266037
O	6.986571821773585	9.387359261841508	5.959133815266037
O	8.702914121773585	4.373029661841509	2.8782223352660377
O	5.983485731773585	6.74794060184151	1.7287255952660376
O	2.4802477117735853	5.35669302184151	2.1427595952660377
O	-1.0107282992264148	6.703017981841509	1.5573827252660375
O	-2.1189794482264146	5.56498779184151	-1.9085741147339625
O	-6.085503228226415	2.3011721918415096	-6.165440914733963
O	-6.745511708226415	-1.4227015781584904	-5.899573434733963
O	-5.8753220582264145	-4.497321528158491	-3.859127954733962
O	-8.152110118226414	-7.35830375815849	-2.8638467147339624
O	-6.420670978226415	-9.840605788158491	-5.171014284733963
O	-7.303206778226415	-7.7556071081584905	-8.167041394733962
O	-13.000649608226414	-3.9412663781584905	8.999038815266037
O	-4.9390326982264146	-10.482191588158491	-0.7163064118339624
O	-2.123960108226415	-8.50941864815849	-2.354588084733962
O	-1.566156858226415	-6.36691120815849	0.7207286352660377
O	-5.255847538226415	-5.71717158815849	1.5624261352660378
O	-6.114165658226415	-2.4428395081584906	-0.21078647973396236
O	-9.572275948226414	-1.1183993781584904	-1.0291924837339623
O	-11.092736008226415	2.2056117818415095	-2.0357771547339625
O	-13.068086908226414	0.6913960998415094	3.0433515852660378
O	-10.359772008226415	-1.9634137881584905	3.1638786752660377
O	-6.931229078226415	-1.4757279581584908	4.744855375266037
O	-3.963479968226415	-3.5317324981584908	5.935289955266037
O	-0.6842794182264148	-2.7551424081584908	4.132926115266037
O	2.9337559617735853	-3.6118162881584905	4.962424665266037
O	2.187195471773585	-3.8610082581584906	8.732805885266037
O	4.950323461773585	-5.00785473815849	11.116174525266038
O	7.672011141773585	-4.32143121815849	8.570098435266038
