32

O	0.5536753058611823	30.744172907067636	10.384771234831351
O	-0.7243634824192915	30.89409495412119	10.252606220604958
O	-1.085931282770129	31.97118386155214	9.357482214968883
O	-0.19416276929658477	32.43071785656178	8.434071556504858
O	0.7053259831933244	31.37195289576663	8.180963410561175
O	1.1899759554988478	30.539376786656813	9.289757456879506
O	0.3880584306907573	33.309166573733634	7.474248084241115
O	1.3821965390423343	32.7618230804966	6.866358003035407
O	1.8183153379226042	31.62287183743771	7.410868809785953
O	2.611658279258857	30.345435445063433	7.263048995154609
O	2.1664065640096895	29.391048357770554	6.558192788629876
O	1.409181600972624	28.44826835965254	7.2709695373765175
O	1.746865235965072	28.66376039793184	8.5414596090566
O	2.897640620346834	29.346170509524345	8.162726112937317
O	0.10598379233710928	28.096085359293486	7.17210085165399
O	-0.7495011984622383	28.052667115748292	8.22417068506984
O	-0.07346392113194936	27.385723116115674	9.240212154880144
O	1.088009157354766	27.999122769104893	9.547482552583453
O	-0.9679823957929007	29.54664019045864	10.728105526818979
O	2.18148851560267	27.148246871065368	9.95663794331642
O	1.613923069964302	26.25279593329542	10.889911394184118
O	0.9215290252229359	25.382992054246962	9.906299652026725
O	2.1038024821044674	24.52143488060608	9.831939918831733
O	3.215153384018711	25.014467175741522	9.19807976652657
O	3.2098576330607504	26.46999193077879	9.131649102075226
O	1.9659479675494587	23.87198872367938	11.064090566954047
O	-0.5836273681690919	28.894435952524496	11.815703081569268
O	-1.3829451327643536	27.80452978385287	12.21693137799117
O	-2.700328846510257	28.167064215244192	12.275399454190497
O	-3.1761029925120887	29.0705325627419	11.4013923851564
O	-2.2662528387510372	29.548388856716425	10.46903762753643
O	-3.4086704965741084	28.20865095072205	13.547095801968865
