81

O	-2.4217502384600005	-0.2125117372000016	5.117475565458
O	-1.2944055294600005	-1.0376208072000017	4.773721115458
O	-0.6974430164600005	-0.9440610672000016	3.503844825458
O	0.3887426105399996	-1.5717195272000015	3.0183079554580003
O	0.7790213105399997	-1.6549227372000017	1.7229018154580005
O	1.5067024005399996	-2.6794878472000017	0.9842616794580004
O	-0.2485451694600005	-1.0986888572000015	0.9338010754580004
O	-0.30488834946000054	-0.1591011072000017	-0.1102437465419997
O	-0.8983541564600005	0.9471153138999984	-0.3473787545419997
O	-1.0334317624600005	1.8265367387999984	-1.3555430145419995
O	-2.2156803434600003	1.9951819997999984	1.1204903644580002
O	-1.4603299874600004	3.137627662799998	-1.3426832445419996
O	-2.8086173194600006	3.277561742799998	-1.0584713345419996
O	-3.4133795194600003	4.494414692799999	-0.5056924745419997
O	-3.08737667946	4.334759622799998	0.9846791194580002
O	-1.9696521004600005	3.441027982799998	1.3211564654580004
O	-5.971083759460001	3.0968350427999987	3.5044955654580003
O	-6.38796515946	3.987236702799998	2.537482885458
O	-4.45893906946	2.8030642427999983	3.4432382154580004
O	-4.09609306946	1.8045728927999982	2.479707975458
O	-2.8010892394600004	1.5324555277999983	2.399681665458
O	-2.4221026264600005	0.2095948737999983	2.1216280454580003
O	-4.890291769460001	2.3472716327999983	1.4273025854580004
O	-5.901809589460001	3.4243250827999985	1.4104091654580004
O	-3.1532494494600005	2.2730304727999986	-0.08653691454199969
O	-0.02696151946000036	1.4566011137999983	-2.3112367445419997
O	1.0490440505399996	1.1825452697999983	-1.5028178445419997
O	1.1594936205399997	-0.038221457200001696	-0.5151376125419997
O	1.3549413805399997	0.3955276707999983	0.9246484724580004
O	0.22687036053999954	1.0622250310999983	1.5761114054580003
O	-1.5768338574600005	-1.0840076172000017	2.0399244454580003
O	-9.41413098946	-5.509311167200002	-7.967473454542
O	-10.442283649460002	-1.8617328372000015	-7.978971514542001
O	-11.170256239460002	-1.2040140772000016	-4.309511004542
O	-10.328769929460002	-2.3038477672000015	-0.7925635945419995
O	-7.45966515946	-0.4398338572000018	0.3400866265580003
O	-7.605309789460001	-1.5601542672000017	3.988744785458
O	-6.78013633946	-4.322617667200002	6.346640025458
O	-1.8908254134600004	-9.098266997200001	8.107080885458
O	-4.568757679460001	-9.5571138972	5.441377685458
O	-6.780941669460001	-7.444149137200001	3.212061545458
O	-5.18084606946	-4.995077777200002	0.7295940134580003
O	-6.696149899460001	-3.9885425672000023	-2.6059921545419997
O	-5.86306784946	-1.4574349772000017	-5.232543924542
O	-5.650436479460001	-3.5823084672000016	-8.378212534542
O	0.046939800539999466	-1.4177975672000016	-13.973809764541999
O	-1.8365080514600005	-0.22580101720000179	-10.893785264541998
O	-0.6561293294600006	-1.9380769772000017	-7.731264114541999
O	-1.4882702234600005	-2.640507417200002	-4.078265524542
O	-2.4398115164600007	-6.285801657200002	-3.7579555845419996
O	-2.1412651374600005	-7.805353937200002	-0.32964559154199974
O	10.842374390539998	1.5483362437999983	0.9062678034580003
O	7.5847132105399995	0.5979548467999983	-0.8769898345419995
O	7.61429243054	-5.374916037200002	-3.326852184542
O	6.06984401054	-9.7415027972	-6.810046694542
O	2.0941036905399995	-9.7228205972	-2.202579974542
O	2.0919519005399994	-7.209019867200001	-5.049259174542
O	3.38910235054	-3.784749717200002	-4.036091754541999
O	4.02977356054	-0.5249851972000017	-5.772319294542
O	0.9444667605399997	1.7367154477999982	-5.458606734542
O	-2.1584744224600003	6.953677922799998	-3.0915229945419997
O	-1.9884748174600004	8.3050475928	0.3872030544580003
O	-0.5492597294600006	7.486839322799998	3.832412055458
O	0.7349326105399996	9.792497912799998	6.471381925458
O	-2.2337046864600003	9.206302192799999	8.788874215458002
O	-4.64378043946	10.5285890528	6.2162275354580006
O	1.4202847405399996	6.588635282799998	10.192454385458001
O	-0.6900879134600004	4.087563972799998	8.489397615458001
O	2.1181603405399994	2.3688450427999985	6.730643475458
O	4.099964260539999	5.455084002799998	5.809342435458
O	3.1822650705399997	6.406831232799998	2.2336998654580005
O	3.5106711505399995	9.6623376928	0.3799302434580003
O	3.28482395054	10.800714592799999	-3.221070804542
O	8.61415999054	11.4118111028	-1.2593698845419996
O	7.64561206054	9.2458007128	1.7104744154580003
O	8.110873830540001	5.452647242799998	1.9299558754580004
O	8.04619081054	2.6073977127999983	4.496289775458
O	5.260289430539999	-0.017867457200001713	3.823842615458
O	4.784969300539999	-3.4938155072000017	5.288587785458001
O	8.567227490539999	-3.902595047200002	6.094110415458
O	6.56935628054	-8.833612867200001	7.188022295458
