24

O	-0.06912655191824557	30.998895856120235	8.851107876950872
O	-3.655318036011442	32.665604882704606	10.579245951022118
O	-1.608220912072911	29.28332919911135	10.51211021344701
O	0.5958643437968867	31.659394735100236	7.804434059113641
O	-3.573472462876982	30.624737607755925	11.612917267376426
O	0.6879111546818175	29.932267775966373	9.048723382487639
O	5.955884273760007	25.646226361391403	7.716745365126966
O	1.7443895305080188	30.97018125771493	7.475276831815688
O	-3.2331500213484112	28.48863775016366	12.409902606452494
O	7.012970911797303	25.72873075883324	8.744851462892786
O	1.8468047250328388	29.97175240649226	8.40355231559253
O	6.613295131019196	25.829048493659187	6.395880884767731
O	-1.0558694070382002	31.65556913448764	9.623533132680567
O	5.255070098513358	24.10596369702182	7.788107494165212
O	-2.096875942587973	30.908683421785234	9.821406488438514
O	-3.135110542749545	31.50999600751991	10.67053001991257
O	-3.0638796596364077	29.477249076119115	11.469270310569987
O	2.6862842199241364	28.808809525969398	8.265634441727212
O	2.714812413447701	27.67433767812237	9.025644817560451
O	3.772543020595391	26.764915395247584	9.016013988767812
O	4.718691784384399	26.82790304765839	8.032968977401795
O	4.666666577699297	27.891193679318057	7.188137151605492
O	3.480914534522549	28.560559028477737	7.144534650824903
O	-1.2167326364038764	33.04137165652174	9.74977339870728
