83

O	3.1126512239427084	-0.37922582963333373	-3.1795536740625003
O	-2.530507876057291	0.2722272553666663	-0.2791238070625006
O	3.091758303942709	-1.6838941786333335	-2.8357799540625006
O	3.0914555739427088	-0.3955677286333338	-0.2186834410625006
O	1.8092208139427084	-1.9977002886333337	-2.541789614062501
O	2.5836799239427086	1.8503254713666664	-2.0672840860625006
O	0.7177181019427084	-1.077350988633334	-2.6535720740625006
O	6.132693653942708	2.563827821366666	-0.6472116370625006
O	4.5679156039427085	0.8662657053666662	-1.9941979650625006
O	1.0429710529427085	0.2859768893666663	-2.3985914240625004
O	-2.3455452260572915	1.848819731366666	-1.9921029040625005
O	0.5447953219427084	1.4071145853666662	-1.7082037180625007
O	3.303018923942709	1.3836927113666664	0.9588590559374992
O	-0.5080957620572915	0.8139375223666663	-1.0095141327625006
O	-1.8844557260572918	1.1082752653666663	-1.2014703990625006
O	-1.6041732560572917	-0.2765781226333337	0.2128156359374993
O	-0.22875008305729155	0.5723650055666663	0.10748804593749939
O	0.8366285639427085	-0.3864691986333336	0.2779565859374993
O	1.4223687939427083	-1.5799101086333334	0.3352205759374993
O	0.8329517829427084	-2.8372371786333335	0.26546673593749937
O	1.7666200939427084	-3.894298118633334	0.11441181593749938
O	3.1523399939427086	-3.7297430386333335	-0.2551394980625006
O	3.6444659039427085	-2.6013963986333337	0.33283875593749945
O	2.784881143942709	-1.5393177586333335	0.3488913559374993
O	1.9438223039427083	0.3522627023666663	-0.2656663730625006
O	1.7981197139427083	1.5240009713666662	-1.0470174004625006
O	2.3007374539427086	0.7585543283666663	-2.8366333440625007
O	4.274243043942708	0.22462350436666628	-0.8242060470625006
O	4.073113153942709	1.4804249113666663	-0.14298020706250059
O	4.771112003942708	2.6572401513666666	-0.44693725206250057
O	4.089914733942709	3.3308360313666663	-1.5560058110625006
O	4.016951033942709	2.132878071366666	-2.3589574640625006
O	5.277080863942708	-0.8265922686333337	-0.7823469600625006
O	3.8479032539427087	0.3862001373666663	1.7139159859374995
O	6.579886633942708	3.5754730313666663	-1.5697458830625006
O	0.8160179719427085	2.325331721366666	-12.6187993840625
O	3.5867347539427086	0.7186556637666663	-10.5957948240625
O	3.2470814739427087	1.8308275213666665	-6.979239294062501
O	6.5372715139427084	0.19056646736666633	-5.9664948940625
O	8.254113763942708	-3.1027859086333334	-5.057662354062501
O	7.643824973942708	-9.176299268633334	-1.3493545500625006
O	6.4704817739427085	-8.464209918633333	-4.850831484062501
O	5.555091873942708	-5.736890568633334	-7.290254074062501
O	2.6236180039427084	-3.481095368633334	-6.482192634062501
O	0.30613292774270845	-1.6700313286333337	-8.9199775940625
O	-2.3934947460572915	0.9301892663666663	-8.5188934140625
O	-5.337114276057292	-0.7653671086333337	-10.3406525440625
O	-9.27083494605729	1.8510363713666664	-7.268553834062501
O	-6.979979956057292	-0.48639162863333374	-5.328508084062501
O	-3.4257256260572913	-1.4655692686333337	-4.639082734062501
O	-2.6697012960572915	-4.785987238633334	-6.301867374062501
O	0.24450454109270844	-6.743610098633334	-4.994601454062501
O	-4.610116466057292	-0.8561256586333338	9.2359008159375
O	-4.775887216057292	-0.8635639786333337	5.456133735937499
O	-7.057315406057292	-6.356694318633334	2.734989895937499
O	-9.382067136057291	-9.731105638633334	-1.3675470950625006
O	-3.4410358260572913	-9.379748068633335	-2.719747514062501
O	-5.8797061060572915	-6.557744068633334	-3.2278834640625007
O	-5.590703366057292	-3.721667538633334	-0.7432862020625006
O	-7.516180126057292	-0.5074064886333337	-0.10458850406250064
O	-5.569781686057292	2.2849412513666665	-1.9068199450625007
O	-2.1158666160572914	7.936305071366666	-2.2140214540625003
O	0.9478398629427085	8.519426651366667	-0.2554330230625006
O	3.3436193639427088	7.023098181366666	2.1884865659374997
O	5.161771503942708	8.562486331366667	5.116355445937499
O	8.57498992394271	8.346068451366666	3.421557065937499
O	7.375961123942708	10.502752471366666	0.6016800659374995
O	8.120718103942709	4.861194401366666	6.594737145937499
O	7.593472303942709	3.193842911366666	3.3049858959374996
O	4.762212593942708	0.9809039643666664	4.526247605937499
O	2.9640310239427086	3.6714332713666664	6.551108915937499
O	0.28490805374270844	5.236987291366666	4.355023785937499
O	-1.4826286560572917	8.551493931366666	4.7910761959374994
O	-4.565602096057292	10.214707821366666	3.379492795937499
O	-5.216337706057292	9.373024931366666	8.9561042159375
O	-2.1975107060572916	7.079854191366666	8.8138916159375
O	-2.295589446057291	3.3163853713666662	8.2534988459375
O	-0.06658452005729154	0.2700555293666663	8.6215547659375
O	0.49733916794270844	-1.5826466886333335	5.388109165937499
O	1.7577068639427085	-5.088915148633334	4.766209325937499
O	0.8163507169427084	-6.360463158633334	8.1155645059375
O	1.7499831839427085	-9.929357738633334	9.2082112159375
O	2.6039865639427084	-10.957892838633335	5.6611681359374995
