18

O	-3.4757465833539922	27.226930286992513	12.493138852504028
O	1.739973120274542	31.588466206194504	7.0722324861436725
O	0.7420724439558636	31.982153415628606	7.831034459152869
O	0.16151492980020735	33.29193658467008	7.779106044266554
O	0.09817944694383171	31.037244971844625	8.552694329219
O	-0.9845193562265396	31.280622822048947	9.471750610143053
O	-1.2042653787041138	30.317672200245205	10.514952954250035
O	-1.5372226168459102	32.37351666699638	9.614930637992186
O	1.1307419190054748	29.67312675997952	8.412995037737254
O	2.206458159778768	30.337572779955238	7.254435991799481
O	3.3558476047791146	29.787202186196488	6.596184620971387
O	3.496026758163393	28.35399948493763	6.604831001926267
O	4.430450227940774	27.89577240347506	7.6906740787357
O	3.6919619114624487	26.941056731609184	8.588043755835164
O	-2.6736457764582084	30.074037871896596	11.377161349041446
O	-2.405655199928848	28.3914276439848	11.705026238810927
O	-1.0658231884943232	28.252521811534848	11.476355309704351
O	-0.9116960899819707	28.99723601476707	10.344181325356404
