77

O	2.2452583198125002	-2.3322362306833337	-5.983100452854166
O	3.3991432098125003	-1.8966094406833336	-5.365444732854166
O	3.3607389298125003	-0.5649199806833336	-5.237490662854166
O	4.4348274298125	0.2237716403166664	-4.7520078928541665
O	4.4847304998125	1.4415540363166666	-3.936666792854166
O	3.1018772598125004	1.7167552093166665	-3.466502082854166
O	2.3320468998125	1.4867372943166663	-4.573232542854166
O	2.1503201498125004	0.19758512831666641	-5.253316612854166
O	3.0342228098125004	2.8514002293166665	-2.557861312854166
O	1.9328159498125002	3.5829306393166664	-2.700561012854166
O	1.1855316998125	4.0260414893166665	-1.552488007854166
O	0.8351258398125001	3.0501439393166665	-0.6233874828541661
O	2.2416475698125002	3.1567323493166666	-0.1918271918541662
O	3.1266328598125	2.7588064493166664	-1.2086328668541662
O	1.9511761198125	2.3608244493166666	0.9083439071458339
O	1.3722456998125	1.4280671253166664	0.04518277714583374
O	0.9739764498125001	1.4148987653166665	-1.479117172854166
O	1.2454690998125	0.21746228031666642	-2.123914142854166
O	2.2000914798125004	-0.04155809968333357	-1.1835246195541662
O	2.7702759998125	-0.8558241306833336	-2.196938022854166
O	1.6596140498125	-1.6809464206833336	-2.670912242854166
O	0.6812045198125001	-0.8255205406833337	-2.693184652854166
O	-0.7130300031874999	-1.1923537806833335	-2.9497960528541665
O	-1.0783725971874998	-2.4945606506833338	-2.2604495528541664
O	-0.7448659541874998	-3.570298830683334	-3.253452082854166
O	-0.7723690921874999	-3.011441740683334	-4.623958212854166
O	-0.5512459961874998	-1.5795425806833334	-4.345642792854166
O	1.0081629198125002	-0.20129175568333357	0.10346302714583389
O	0.2674693918125001	0.9573658023166665	0.29480707714583376
O	-0.06964004218749986	9.727806909316666	-8.768175812854167
O	-0.5542241871874999	6.067590359316666	-9.685112112854165
O	1.1125448498125001	3.9542093793166666	-7.151567122854166
O	0.6158165938125002	0.6565289771166664	-9.010062522854167
O	-1.7394668301875	-2.0977329506833335	-9.912594332854166
O	-7.0619918701875	-6.313667940683334	-7.604785282854166
O	-7.3704215601875	-2.8061862506833335	-9.009302672854165
O	-5.3745734401875005	0.3716606943166664	-9.518577982854167
O	-3.9219432201874995	2.2715543293166665	-6.549236872854166
O	-3.3376578001875	5.9952586993166666	-6.272630542854166
O	-1.6510919001875	8.279695549316667	-3.7953426928541663
O	-4.3503555801875	10.742709339316665	-2.827967262854166
O	-2.3030608901874996	11.633672939316668	2.4454335171458337
O	-3.4944801101875	8.110436719316667	1.7350686471458339
O	-3.4039313501875	5.218204389316666	-0.6425043688541662
O	-6.5625009001875005	4.890572189316666	-2.643683712854166
O	-7.1954776001875	1.4730959223166664	-4.135331452854166
O	-1.5045635001875	-1.3226418106833335	7.060909127145834
O	-7.7202931301875	0.3778025443166664	6.342451477145834
O	-12.2492200901875	3.7449910193166662	5.058162167145833
O	-10.378134490187499	1.2143150193166665	-0.24094003485416615
O	-8.555662250187499	3.9754849493166664	1.5940460871458337
O	-5.3234503401875	2.8347800193166663	3.2450024671458335
O	-2.8141174401874998	4.535642139316666	5.534850257145834
O	0.03895885681250011	5.490983409316667	3.209323847145834
O	6.466854949812499	5.3500968493166665	1.1743670171458338
O	8.2295767998125	2.1778564693166667	0.12367627714583374
O	7.6979113598125	-1.5177453406833337	-0.27086644385416614
O	10.1441852098125	-4.2480408006833335	0.3794934471458338
O	10.6149232098125	-5.039597390683333	-3.326549892854166
O	11.942783909812501	-1.6159051606833335	-3.9910727828541663
O	11.4780819098125	-7.245301290683334	9.621875967145835
O	7.7336947798125	-8.225611970683335	-1.2999680828541662
O	5.4361166598125	-5.943951050683333	-3.216006692854166
O	2.8420843298125003	-6.053785940683333	-0.37906773685416617
O	5.2220039598125	-5.620854300683334	2.608349547145834
O	5.5651054298125	-1.8377924906833334	3.317395237145834
O	8.2343058498125	-0.05527963868333363	5.2380763271458335
O	8.7679911698125	3.3342542293166666	6.895583617145834
O	8.576303019812501	-0.6193654506833337	10.854981567145833
O	7.2777388798125	-3.0440987806833335	8.256635957145834
O	3.5736212198125004	-3.6925944806833337	7.623547817145834
O	1.3403017698125002	-6.247465050683334	5.874302827145834
O	-0.7400986831874998	-4.684235430683334	2.987896757145834
O	-3.7736896801874997	-6.013086210683333	1.0857790271458336
O	-4.7786825101875	-8.354334780683335	3.950867407145834
O	-7.7198963901875	-10.786530760683334	3.580297427145834
O	-8.9622789301875	-9.043397770683335	0.4529725971458338
