78

O	0.5112804688979575	-2.611434108734694	-1.4707742744836736
O	0.4372795688979574	-2.623127958734694	-3.6669084124836737
O	1.3326732988979575	-2.784366858734694	0.7435353475163264
O	-1.2308910865020426	1.748358701265306	-7.896573442483673
O	-1.5866031661020426	4.446348921265306	-3.9916427824836735
O	1.3641801088979573	-0.6741864737346939	-0.41824603248367365
O	1.0978246188979572	-2.048946628734694	-0.3221404224836737
O	0.4636460788979575	-1.7617921287346938	-2.4732527124836734
O	-0.7329694131020426	-2.502946138734694	-4.393384782483674
O	1.0153683988979576	0.692971744265306	-0.3827654224836736
O	0.4171292388979575	1.532451481265306	-1.5117542964836737
O	-0.5148281801020426	-2.589750328734694	-5.768899672483673
O	-0.7892193971020426	-1.499587498734694	-6.590261972483674
O	-1.5539469741020426	-0.42633500373469396	-6.263322222483673
O	-2.2044700811020426	-0.7267764217346939	-5.127595482483674
O	-1.7032952641020427	-1.584237518734694	-4.192622752483674
O	1.1203587888979574	1.631980681265306	-2.7410412324836737
O	0.42266063889795746	1.403996531265306	-3.9764111324836735
O	-0.8797741441020426	1.772772381265306	-4.119200932483674
O	-1.4618320781020426	1.437850661265306	-2.9398742424836737
O	-0.8242821331020426	0.9652901872653061	-1.7931821989836736
O	1.7020616088979577	1.454511931265306	0.37043379751632655
O	-3.443952611102042	1.136369142265306	-7.774897542483673
O	-2.2379669711020425	-0.397866624734694	-8.885925762483673
O	-1.4779599641020424	3.785713951265306	-6.213552652483674
O	-2.9152739511020425	2.490313471265306	-5.406833392483674
O	1.6550852988979574	-0.5958278607346941	-2.2335810294836738
O	-2.2049449511020427	0.413118411265306	-7.619591082483673
O	-1.6810240471020426	3.058685151265306	-4.967011782483674
O	7.819671858897957	-4.005732088734694	-10.666531152483675
O	6.816229668897957	-0.44481752573469396	-9.740436322483674
O	3.5927053088979575	-0.5695732977346939	-7.643649942483673
O	3.1775876588979575	3.202297641265306	-7.819422702483674
O	4.070591238897958	6.559979331265306	-6.204542642483673
O	5.778668338897957	9.909444541265305	-0.07540748248367368
O	8.070311058897957	7.975726901265306	-2.4024775634836737
O	7.977033628897958	5.241459001265306	-5.042209152483673
O	6.8388383588979575	1.739200701265306	-4.181290342483674
O	7.868629008897958	-1.568970758734694	-5.699245562483673
O	6.677527098897958	-5.168774248734694	-5.5508205924836735
O	6.738218738897958	-7.595579248734694	-0.29757339248367365
O	5.8784572388979575	-3.962433268734694	-1.1126597924836736
O	9.038398868897957	-1.8645744787346938	-0.8995105094836737
O	8.652839788897957	1.874138831265306	-0.3740082924836736
O	-0.9119513021020426	-3.437563698734694	6.279203207516327
O	5.176055598897958	-2.941128888734694	8.326669997516326
O	10.917714968897958	-3.883982328734694	8.372329197516326
O	9.856264468897958	0.6181168302653061	4.333719767516326
O	9.079996568897958	-3.044706118734694	3.737642397516326
O	5.350775428897958	-3.799835668734694	3.8414577475163267
O	3.315618978897958	-6.996793458734694	3.6156994975163266
O	2.115343938897958	-7.283517738734694	-0.004264552483673745
O	-2.5292893011020423	-7.283109808734694	-4.859763842483673
O	-5.391719851102042	-4.987028728734694	-5.0945529424836735
O	-6.742586611102042	-1.7607491787346938	-3.604009932483674
O	-10.166398441102043	-0.44544022973469394	-3.1291318324836737
O	-9.999004901102042	2.120459981265306	-5.942260872483674
O	-9.589923741102043	-0.7145310487346939	-8.389873522483674
O	-15.130206531102042	-3.530656858734694	4.409434317516327
O	-8.199378411102042	7.240667721265306	0.25463654751632636
O	-9.348242941102042	4.263806351265306	-1.8022288927836736
O	-5.8841383811020425	3.935343361265306	-3.0796633824836737
O	-4.445887321102043	3.113087721265306	0.34923583751632625
O	-7.072673841102042	0.6127840012653061	1.2783931775163264
O	-5.810647881102042	-2.839529958734694	0.2508431175163264
O	-7.825210791102043	-6.028738288734694	-0.20286203248367363
O	-7.052386161102042	-9.696909508734693	-0.6109696824836737
O	-10.013527631102042	-8.768446778734694	4.1769640875163265
O	-9.300078931102043	-5.061916228734694	3.7535906575163263
O	-6.382751261102042	-3.178104068734694	5.279028667516327
O	-5.196877131102043	0.388791947265306	5.873660587516326
O	-1.8991231891020426	1.314966071265306	4.289158237516327
O	0.46873974889795744	4.242115601265306	4.8111011075163255
O	-0.5900714881020426	4.601499311265306	8.524585197516325
O	0.8275773288979575	7.443393771265306	10.707077897516326
O	3.6834064588979576	8.031702621265307	8.266939977516326
O	2.0914550088979578	11.458810481265306	7.820329017516325
O	-2.396580321102043	14.975350781265305	-4.122333312483674
