70

O	2.1684857886363638	-0.17189110156431853	0.7174614142727271
O	1.6307513486363638	1.0596879644356816	0.513967714272727
O	1.1426047586363637	1.0899828274356815	-0.7347094498272729
O	0.7680525686363637	0.055894568435681524	-1.4722345807272728
O	1.4229161286363636	-1.0946754615643186	-1.336656854727273
O	2.082451608636364	-1.2591145815643185	-0.18239579972727293
O	-0.07182566536363622	0.3604318784356815	-2.541186235727273
O	-0.8994427033636363	1.4670895424356816	-2.503316355727273
O	-1.5881119393636363	1.8019433474356816	-1.4052916097272727
O	-2.342178881363636	2.9565810584356815	-1.4819593397272728
O	-2.7284405713636364	3.5312823684356816	-2.691123165727273
O	-1.5239936883636362	3.5889380684356817	-3.334034875727273
O	-0.7887417393636362	2.4382455934356817	-3.3974318557272727
O	-3.3096883013636362	5.192522708435682	-2.277682575727273
O	-3.843564571363636	5.868732128435682	-3.958436165727273
O	-4.484765671363636	5.482591658435681	-1.5452131337272728
O	-2.1882933913636364	5.793053678435681	-1.7159571857272728
O	-2.060472021363636	6.761130958435682	-0.4903640117272729
O	-1.6170088313636362	7.092312068435682	-1.8134138357272729
O	0.9374617386363637	2.1160971164356814	1.2188422442727271
O	0.0655057536363638	3.173142148435682	0.7866131442727271
O	-0.8733255773636363	3.8617606484356815	1.669520294272727
O	-0.6273284728636362	5.2358468184356814	1.9630689142727271
O	-2.2266710113636363	4.1459826084356814	1.143108254272727
O	0.36396234163636376	4.343283848435681	-0.05070342472727285
O	3.1691457686363638	-0.4788612815643185	2.175973894272727
O	5.394238088636364	8.199247968435682	-7.974923885727273
O	5.216129888636364	9.02008676843568	-4.276872885727273
O	2.680773828636364	6.710135728435682	-2.643611485727273
O	2.933107728636364	8.641425788435681	0.673208894272727
O	4.710070718636364	9.07910354843568	3.922150744272727
O	8.638323548636365	7.994797558435682	2.307198044272727
O	7.106649708636364	5.334997828435681	0.07478275627272712
O	7.231669278636364	5.177388208435682	-3.7005042557272727
O	5.601636298636364	3.0470701284356814	-6.352742655727273
O	8.641064938636363	1.6398643682656815	-8.231497775727274
O	5.979017268636364	-3.162379281564318	-9.736625785727272
O	6.482906508636364	-2.689498111564318	-6.016677595727273
O	6.162527088636364	-0.3061877015643184	-3.148172455727273
O	9.551542198636364	0.9877962034356815	-2.082341675727273
O	9.884946998636364	2.3513441904356815	1.433751834272727
O	1.3733437986363637	-7.211879351564319	2.4759191442727273
O	7.784401088636363	-7.983312221564319	2.2934200842727273
O	10.382857898636363	-3.569923951564318	-0.8577719507272729
O	6.712770398636364	-4.437977191564318	-0.4456165787272729
O	4.205081408636364	-6.050723891564318	-2.7062519057272727
O	2.1965295786363637	-3.3315890215643185	-4.404900485727273
O	-3.4020600913636363	0.21582818843568163	-5.602172625727272
O	-5.614480111363636	1.3627565004356816	-2.889168175727273
O	-6.1395804913636365	1.5111867794356817	0.8242222742727272
O	-9.143100931363636	1.4358256984356816	2.9060127042727273
O	-9.025640031363636	5.171224348435682	3.7604381342727273
O	-9.386161731363636	6.068850868435682	0.1957002382727271
O	-12.015864301363637	3.4287460984356817	-0.4488399467272729
O	-12.884663901363636	-7.224297841564319	5.014882274272727
O	-7.338687221363636	2.610903211435682	7.332471714272728
O	-4.286293011363636	3.944206448435682	5.702844984272726
O	-2.347306411363636	0.6517133744356816	6.227401114272727
O	-5.100109091363636	-1.6880463015643186	5.166961694272727
O	-4.704890741363636	-2.3434721515643187	1.4305479742727272
O	-7.254400751363637	-3.685951271564318	-1.002385788727273
O	-7.1960729913636365	-5.108858101564318	-4.502591375727273
O	-8.836604381363637	-9.099081471564318	-0.7881642277272729
O	-7.6332620113636365	-6.831144851564318	2.005690204272727
O	-4.151110391363636	-6.909859111564318	3.5563507842727273
O	-2.265072481363636	-5.630799691564318	6.595150794272728
O	0.6744301386363638	-3.2794220815643182	5.821264384272727
O	3.575746358636364	-2.008507331564318	7.947391504272728
O	3.419281778636364	-5.075120111564318	10.279153214272728
O	-7.813685461363637	3.0435312384356816	-10.135081975727273
