70

O	-4.071805357110205	-0.8515314932448976	-1.3972126545714283
O	2.255515372889796	-0.10927946324489768	0.5435883574285717
O	0.12215042288979572	1.4785224137551023	-2.6256805125714284
O	-1.1139191031102043	1.8451397917551025	-7.085357282571428
O	-2.649662667110204	-1.989006123244898	0.8428964974285716
O	-0.5307379491102043	-0.7622234932448977	0.27380347942857175
O	0.12231470288979562	0.08996248675510232	-0.6226652950714282
O	-0.5652886091102043	0.8448764287551023	-1.5737948495714282
O	-1.9416095071102042	0.7557819027551023	-1.4439123055714282
O	-2.5537134571102045	-0.21395311324489774	-0.6871469534714283
O	-1.9030686461102042	-0.8820080732448976	0.3085577464285717
O	1.5559869628897958	0.2627312107551023	-0.6133870451714283
O	-0.21057869011020436	2.5839994967551023	-3.4442969825714282
O	-0.8499574678102043	2.3785823667551025	-4.740714612571428
O	-0.33286332911020433	2.2487328067551022	-6.020572602571428
O	-2.3715503671102045	1.4841211507551022	-6.850242302571428
O	-2.9877037971102043	1.7490300027551022	-5.659851652571428
O	-2.2390380871102042	2.5709595967551024	-4.7884494325714275
O	2.167060992889796	0.8599331612551023	-1.5187253205714284
O	-2.2825145271102043	-2.721671343244898	1.9191611874285717
O	-3.8526441871102044	-2.2218200432448976	0.5279096174285717
O	2.5298692028897958	-9.699240373244898	-9.402404132571428
O	-1.2182843511102044	-5.509343783244898	-11.010686142571428
O	-4.037842677110205	-5.193412113244898	-8.478446832571429
O	-3.6273696671102043	-2.1490706232448975	-6.242698332571428
O	-6.958773267110204	-2.6444342032448978	-4.531038362571429
O	-8.913488517110205	-4.617802263244898	-1.934391012571428
O	-8.655351697110204	-7.462455403244897	4.702443717428572
O	-7.571650167110204	-9.065451673244898	1.4449306174285717
O	-6.410365917110204	-8.199936153244899	-2.0588023925714283
O	-3.2928797771102043	-6.074529103244898	-2.593419532571428
O	-0.9439483603102043	-6.267184683244898	-5.572906362571428
O	1.9987628728897957	-4.259012043244898	-6.802227512571428
O	4.726744042889796	-6.879377813244898	-7.088533312571428
O	12.452326902889796	-4.537274223244898	-5.202203472571428
O	8.962304782889795	-3.251813033244898	-6.021680022571428
O	6.519650022889796	-3.790576323244898	-3.1767075325714282
O	2.831804612889796	-3.8642290232448975	-2.240245472571428
O	1.8111093628897956	-7.461876723244897	-1.5657221955714282
O	-1.2261103211102042	-8.082961303244899	0.5802732974285717
O	4.208979862889795	4.646605386755103	8.755708097428572
O	4.301745112889796	2.415285606755102	5.6616473374285725
O	6.103084442889796	-3.7034453532448977	6.801597197428572
O	8.185153862889797	-9.010046633244897	5.625091607428572
O	2.2893066828897957	-9.111595773244899	4.086761417428572
O	4.967616072889796	-7.344505643244897	2.0687481874285716
O	4.900062522889796	-3.5652311232448977	2.386283207428572
O	7.061710782889795	-0.7429585032448978	1.1012482574285718
O	5.482676192889795	0.5758991767551023	-2.072942032571428
O	2.418299482889796	5.195544866755102	-5.877662462571428
O	-0.5843366541102043	7.124350446755102	-4.770717382571428
O	-3.103837857110204	7.378283676755102	-1.9681365325714282
O	-4.745474487110204	10.527186586755102	-0.5747457265714282
O	-8.154546947110205	9.632378776755102	-2.0230273425714285
O	-6.7701129671102045	9.706932406755103	-5.514254932571428
O	-8.014324017110205	8.564305536755102	2.5902801474285715
O	-7.538698337110204	5.214333986755102	0.8733340874285717
O	-4.957267317110205	4.069755066755103	3.409777897428572
O	-2.9767196971102043	7.314132646755102	3.5904573474285715
O	-0.16761681011020435	7.096023186755102	1.0531984974285717
O	1.896749112889796	9.879228176755102	-0.47352506957142826
O	5.129388832889796	10.148909246755101	-2.4336688625714284
O	5.714973332889795	12.667774026755103	2.5902344674285716
O	2.476004532889796	10.994625926755102	3.6640006174285715
O	2.264782712889796	7.657838116755102	5.477209017428572
O	-0.21345198211020433	5.546300376755102	7.4415806074285715
O	-1.0016679255102043	2.1237252067551022	5.806762127428572
O	-2.672542047110204	-0.9345624832448978	7.376359297428572
O	-1.6503481941102043	-0.013977674244897709	10.955719457428572
O	-3.8260953871102044	-5.043114383244898	11.587146457428572
