31

O	-2.866174430489111	27.800408714325933	12.005363098091399
O	1.6445603770225037	26.17522954619203	10.585369670651072
O	-3.0529185297171786	26.509222001580834	11.594532376510255
O	-2.1274640328055687	26.006753260489234	10.72722623345041
O	-1.4137555447063028	26.81803528202519	9.81820510728212
O	-1.485480666251506	28.100763927094537	10.206530077711797
O	-2.3915942638181966	28.734847457709154	11.055145035526811
O	-2.071039647368556	30.018737500434924	11.233587379065177
O	-1.3025825326611324	30.285994708725767	10.038892971331187
O	-1.3722188075457198	29.165233804836497	9.32210988116299
O	-0.7703262036785442	31.43627552851977	9.242463434494251
O	-0.19026069130004647	32.406557825372175	8.467321849095253
O	0.37185566458086416	33.4285662921908	8.91048536982796
O	0.5461502727053177	31.86456212979561	7.495814712335459
O	0.32845285680264047	30.5900386436894	8.204043123138035
O	0.5005918474986487	30.787641160497742	9.506425335476498
O	0.39969812888133205	29.65376073052628	10.371495599790927
O	1.1237092700347893	28.55295686853686	10.19222110175653
O	1.6799491896630812	28.465023822306062	8.935979962930904
O	1.186099969653666	29.363900143205775	7.997038268867065
O	0.7675669630136649	26.029298723816655	10.248116410563995
O	0.8336389166992965	27.20210646799993	11.216401172835504
O	0.2701083262129709	26.82276148624431	12.586870866925048
O	1.1513370643412069	25.615397951633426	12.827327646718032
O	0.5847808484221272	24.61277010164048	11.86349216914934
O	-0.29750451673416745	23.8725262376731	12.891282533895069
O	0.7951038821473143	23.265576257461607	13.438076824240628
O	-0.9675165255094198	24.94436535109345	13.692238573308458
O	-0.5894887933931475	26.38713009053931	13.541265131111217
O	-3.3437793928749926	30.907187013133303	11.083141954076295
O	-1.5720359472836016	30.349083039636106	12.43161795392269
