66

O	1.4654855872083334	2.867523451789584	1.6810196756875002
O	1.1124257672083335	4.246007221789584	1.8311183456875004
O	3.7121748672083337	-0.7779365782104164	-3.4100651543125
O	3.5637468872083335	0.13196904178958357	-2.4118328943125
O	1.7868416472083335	-2.0083801082104165	-2.5886656943124997
O	1.2928214572083334	2.5584999267895836	0.31140175268750026
O	3.2207825872083333	-2.0173883782104163	-2.9862426443124996
O	1.2736479072083335	1.2595767197895835	-0.3137390033124998
O	2.3381755672083333	0.018200531789583696	-1.7447007343124998
O	1.2532895072083334	-0.8691031382104164	-1.9942393843124997
O	1.4162725372083336	4.994497431789584	3.0380719756875
O	2.5568267272083336	5.243291691789583	3.5529584556875
O	1.3915025472083336	0.9275066447895837	-1.6289876743124998
O	4.072137377208333	-3.016385878210416	-3.3493439843124997
O	-0.38163296879166647	3.080040731789584	0.11232239768750019
O	0.29164183720833353	-0.19555972821041645	-0.6917453533124998
O	-0.3754438407916665	4.233655191789584	1.6270634656875003
O	0.40319860220833353	5.574010641789584	3.8281487856875
O	5.529196607208333	7.465404821789583	-7.7245675543125
O	5.5412742372083335	4.980696671789584	-4.824061754312499
O	4.328551277208333	7.618698311789584	-2.3958671443124997
O	1.3230600272083335	9.628324671789583	-1.1450365263124997
O	-5.633526472791667	8.935792671789583	0.8650114056875002
O	-4.251751882791667	9.770719141789584	-2.5865561943124997
O	-1.1152633627916664	9.329591651789585	-4.696103774312499
O	0.20815385820833354	5.834944781789583	-5.429643584312499
O	2.1633535772083334	4.741376151789584	-8.4530261443125
O	3.9541038272083333	1.6572229398895837	-9.6349827343125
O	0.7603538322083335	-3.1944674582104167	-9.8964798243125
O	0.44341032120833357	-0.44156668821041656	-7.3196510343125
O	-2.1041881827916664	2.0805750987895837	-8.6133581743125
O	-3.7488637327916665	4.286201141789584	-6.0374770943125
O	-5.716517562791667	7.310510931789584	-7.155261984312499
O	-3.2620683927916665	-8.894080568210416	3.1898476456875002
O	-2.1921856727916667	-7.006098108210416	0.07072269768750017
O	-6.989687702791667	-5.594880568210416	-4.0675772343125
O	-9.486743102791667	-4.232642538210416	-9.1457354043125
O	-7.565979512791667	1.0322626847895835	-6.668816804312501
O	-5.286490402791667	-1.5191274782104163	-8.2682061843125
O	-3.2982841927916664	-3.467942318210416	-5.7209724943125
O	-0.7950383017916665	-6.273012378210416	-5.876100214312499
O	2.6509129472083335	-5.071745878210416	-6.2499626443125
O	8.985024977208333	-4.060857248210416	-3.6151971643125
O	9.685202587208334	-2.794229568210416	-0.050146707312499816
O	7.815522377208333	-1.5384864282104163	3.0169894056875
O	8.814643277208333	-2.1625717582104165	6.6505859356875
O	9.816330617208333	1.4651962267895837	7.2130827356875
O	0.6694848792083335	-9.703112668210416	10.8813828556875
O	-1.3183302327916664	0.5451903317895836	10.8201720556875
O	2.1796289772083335	1.9497577617895836	10.3715740556875
O	5.524367007208333	0.6722995157895836	9.0555823356875
O	4.786689777208333	2.4245804557895836	5.766303135687501
O	1.8126754872083335	0.04797269178958352	5.0817527956875
O	3.3853709672083334	-3.1271813482104163	6.0260262156875
O	4.925834077208333	-4.599692838210417	2.9106914256875003
O	7.537691387208333	-7.3287965082104165	2.6175415256875003
O	4.809744037208333	-9.455501068210417	5.2758828856874995
O	1.3989098872083334	-8.040703368210416	4.3257646256874995
O	-1.0992202227916665	-5.473656738210416	5.5375055456875
O	-1.8447590227916664	-2.6655599882104166	3.0492181256875
O	-4.6193457227916666	-0.03756021821041644	2.9152331856875002
O	-7.027841232791667	-2.2845331982104162	4.866567875687501
O	-10.481639852791666	-0.9601339582104162	5.8498140456875
O	-10.245497752791668	1.9058401147895836	3.3608604656875003
O	-10.462974052791667	4.071169281789583	6.4636117256875
O	-0.5032942617916665	12.173812831789583	9.3930636656875
