69

O	-2.7004542503844444	-0.45576038837777755	0.7293256412288893
O	2.4981845996155556	1.8293716616222224	1.5997709282288892
O	2.0479536796155555	-0.8354110483777776	-0.7085582717711106
O	1.9778596196155556	-0.11864209437777762	0.49989565992888935
O	1.0367840496155556	1.9503437416222225	1.3616531302288895
O	-3.6226614103844446	0.07492368362222235	1.6704243582288893
O	-3.5903474903844446	-0.9194152683777775	2.663322508228889
O	0.5185143696155554	2.9153570716222226	2.3739560582288894
O	0.9117067996155555	-0.3919930883777777	1.3708418082288893
O	-0.2830360463844446	-0.49561731837777756	0.6278916882288894
O	0.3576567496155554	1.8961673016222225	3.5531136682288893
O	-1.8376524103844445	-0.6518113583777777	2.9889568282288894
O	-0.3625030083844445	-1.5442098583777777	-0.40816421877111064
O	-1.4288799543844446	-0.10332803237777766	1.3662321822288894
O	1.7340816396155556	2.4037201216222224	4.02884240822889
O	0.9675099096155555	-1.6969091983777775	-1.0325085517711106
O	-2.837638840384445	-1.7141682783777776	-0.002790868771110677
O	2.760472379615556	2.2665766416222226	2.947093608228889
O	-4.060728220384444	-2.1363536883777776	1.9238104582288895
O	-0.8635313444844446	2.4896477216222226	4.166653938228889
O	3.0422472096155557	0.6788644116222224	0.9744430002288893
O	-0.4257247623844445	3.6657406516222224	4.681640218228889
O	-1.5697966663844445	1.7294811426222223	5.01944516822889
O	-1.7685738343844446	2.6120786116222225	3.100021568228889
O	8.025037119615556	-4.005396958377777	9.02179940822889
O	4.8166298596155555	-2.2040143283777773	10.00205942822889
O	3.538942869615556	-0.15763564037777766	7.157801258228889
O	0.7925764496155554	1.4539762986222224	9.20473241822889
O	-2.6992430003844445	1.0594653536222225	10.65677642822889
O	-2.5276073003844446	-3.2768479383777773	10.96027582822889
O	-0.5555681033844445	-3.5444845783777774	7.740528288228889
O	2.886351299615556	-5.051546538377777	7.282097528228889
O	5.390511879615556	-5.244645378377777	4.464705028228889
O	5.982751859615556	-8.988958968377778	4.119783068228889
O	7.106999989615556	-8.708326448377779	-1.4451881317711108
O	3.5793761696155553	-7.773056028377778	-0.4596948707711107
O	1.5134244796155556	-5.652525818377778	1.8783261982288892
O	-0.14916740838444453	-7.891492098377777	4.457063878228889
O	-3.1937393903844447	-6.552891928377777	6.230836718228889
O	-6.337885830384444	-0.0888385053777776	-8.27280106177111
O	-3.936666780384445	-1.7707065483777775	-5.8376131517711105
O	-4.305116660384445	-5.451789098377778	-6.6748229717711105
O	-5.762465880384444	-7.723038168377777	-4.011169341771111
O	-3.5521493003844444	-10.791092918377778	-4.481484181771111
O	-2.5428237603844446	-9.747560818377778	0.7130159412288893
O	-2.057267590384445	-6.716144838377778	-1.5164460917711104
O	0.43969039961555545	-5.806637538377777	-4.215553721771111
O	3.127198779615555	-3.6651324683777773	-2.556219721771111
O	6.672712889615556	1.9392055216222226	-1.7155082217711106
O	5.032909689615556	5.260012991622222	-0.9627490717711106
O	1.6976694396155556	6.935809971622223	-0.4189135037711107
O	0.6330826096155555	10.372736431622222	-1.6097083917711106
O	0.6189393696155554	11.837302281622222	1.9085637982288892
O	4.289334739615556	11.149385781622222	2.2559679882288894
O	-3.8073129703844444	10.842345981622222	0.5236814472288893
O	-2.9048396003844443	7.995065811622222	2.817987388228889
O	-4.640449710384445	5.444675361622222	0.5902731752288893
O	-3.356499830384444	6.693449321622222	-2.750276651771111
O	-0.15353018938444452	4.832481591622223	-3.5900225917711106
O	2.5550866396155554	5.794861041622222	-6.040766321771111
O	5.475564709615556	4.071106971622222	-7.73495537177111
O	1.6005757296155554	5.502470621622223	-11.59659157177111
O	-0.8229419730844445	6.1634624116222225	-8.76293152177111
O	-3.283478470384445	3.6032839016222225	-7.412892441771111
O	-6.378020160384445	3.4621012516222227	-5.225155951771111
O	-5.956658070384444	1.3332047716222224	-2.097411381771111
O	-8.362470250384444	-0.0715449793777776	0.5107457199288894
O	-11.244669620384444	-0.1781568703777776	-2.1214210017711106
O	12.755204879615556	5.316061731622223	-0.9867236917711107
