73

O	-0.7696180201933336	1.4406601479777783	3.5668463932000005
O	-1.2114255731333337	0.1627900171777781	4.1403330232
O	-1.0719606481333335	-0.014749830022221883	5.591248863200001
O	-2.3969475611333335	0.1965548029777781	6.247962513200001
O	-3.152230941133334	1.3848783279777783	5.792931433200001
O	-3.1608363111333335	1.459579337977778	4.300173033200001
O	-2.6476562311333334	0.06478288557777812	3.8525000832000007
O	1.3416176588666664	-1.5580745920222219	2.3379976732000007
O	0.9330409288666663	-1.7421385120222217	3.5845768332000008
O	0.5424399388666665	-3.022253042022222	3.9693232632000006
O	1.5983588588666664	-3.865340972022222	3.7547633232000006
O	2.5865981088666663	-3.702192402022222	2.7659868732000006
O	2.4685568088666665	-2.5075552820222216	2.169211903200001
O	3.0279081588666665	-6.269669242022222	2.867823353200001
O	3.7492405688666666	-4.943460472022222	2.9932271832000006
O	4.250221478866667	-4.959325832022222	4.625261613200001
O	4.971620498866667	-5.073805492022222	2.2231928432000005
O	-0.08482637113333358	2.3540680579777784	0.8689023322000007
O	-0.003266495133333547	2.693784207977778	-0.5747905217999993
O	-0.7158431448333336	3.4291097679777782	-1.2993061967999993
O	0.8790151488666664	1.7316261079777782	-1.2548873067999993
O	0.9523958388666665	0.6550789689777781	-0.5111012187999993
O	-0.2680674581333336	0.6871752689777781	0.26893668220000067
O	-0.9316275191333336	1.5625601179777782	1.1709841232000007
O	-1.4295365511333336	1.593777027977778	2.400612373200001
O	0.2131366528666664	0.0042847749777781274	1.3926784132000007
O	1.1221618788666665	-0.8140079110222219	1.2062859432000006
O	1.8342469888666666	-0.2660722350222219	0.13044636040000063
O	11.022685138866667	7.899177657977778	4.441954933200001
O	10.096743938866666	2.417782987977778	6.365952043200001
O	6.731443088866666	2.1828927179777784	8.0585984532
O	4.114199738866667	0.4482011439777781	5.850072203200001
O	1.5504932588666662	0.4295112429777781	8.5311192132
O	-0.8984316531333336	2.4019966879777783	10.4653352232
O	0.7812876888666664	6.341830947977778	9.6179239832
O	1.9028123788666664	5.190531427977778	6.1667341232
O	5.491606878866666	5.118919687977778	5.0227308632000005
O	7.2941491288666676	3.820276167977778	1.9963501632000007
O	9.164316758866667	6.930084697977778	0.7430633132000006
O	9.022263398866667	5.233904457977777	-4.6864350768
O	5.641702048866666	5.940107717977778	-3.1197982267999995
O	3.4418604288666663	5.305788857977777	-0.11853207679999939
O	3.2303452888666664	8.440193407977779	2.0208429632000007
O	0.2049527088666664	8.579538207977778	4.305711593200001
O	-7.718139091133333	1.598430657977778	-7.6814386068
O	-4.420707091133334	2.612856107977778	-6.078255006799999
O	-3.5235197611333335	9.059921237977779	-5.662452056799999
O	1.0549588088666664	10.41118901797778	-1.8215032967999993
O	-0.02107566213333356	7.104952917977778	-3.3578275367999995
O	1.3956344088666666	4.779650177977778	-6.020457886799999
O	3.3053473088666663	2.0851761279777783	-4.1194509867999995
O	4.771805948866666	-4.284767542022222	-2.1846085267999995
O	2.1521029388666664	-6.388044992022222	-0.6881827607999993
O	-1.3198812491333336	-6.515086542022222	0.6542728592000007
O	-3.835530801133334	-9.343827392022222	0.4286945682000006
O	-3.7221863511333337	-10.08125628202222	4.1456593332
O	-0.07335989713333357	-10.91882178202222	3.8860438032000006
O	-0.5353081961333336	-12.91584308202222	0.7181107512000007
O	-7.550285981133333	-7.534023272022222	3.1922746632000005
O	-5.093325591133334	-4.950559792022222	4.5542725732000005
O	-6.160440641133334	-2.3989485320222217	1.9942433032000006
O	-6.286526851133333	-4.618194792022222	-1.0237322367999993
O	-2.8336819111333336	-4.355399352022222	-2.6301578167999993
O	-1.2830344681333337	-6.7505195220222225	-5.131168366799999
O	1.6513620688666664	-6.735668092022222	-7.5214906267999995
O	-3.2165363711333335	-7.180715082022222	-10.4631830768
O	-5.045374661133334	-6.268255442022222	-7.260779016799999
O	-6.081971941133334	-2.751856312022222	-6.2643259368
O	-8.352960331133334	-0.9526302820222218	-3.8027058567999994
O	-6.492022321133334	1.315555187977778	-1.3063259767999993
O	-7.853544281133333	4.106961727977778	0.8307132242000006
O	-10.906252161133333	4.714644877977777	-1.2610111867999994
O	9.202023908866666	-9.525657972022222	-1.7868520067999993
