28

O	2.878528189251109	30.647194360645486	8.779875306024447
O	-0.6756128186278962	32.866377517887415	8.79392887164912
O	2.0930504192862522	30.607072383419055	5.888508096994277
O	1.568019810208519	28.692137456066632	6.318017749659164
O	1.2892164590975266	26.678489406043475	9.375266633136825
O	3.5915655041884094	25.672447817645818	10.916395425278806
O	2.5649641662287554	29.389202946437376	3.9584585351845103
O	-1.4377288881893513	27.780473129091895	10.17828629042812
O	-0.5606215423516581	30.055242851378264	9.47669218300042
O	0.3763011568988053	30.674995066141154	8.650781594505109
O	1.5926555762077625	30.06462358055851	8.53176631486715
O	1.7144187714565033	28.83189859848089	9.24189356040093
O	0.7018408375374423	27.938150281749362	9.400907171066331
O	-0.399420367381782	28.64902604254863	9.77709123709965
O	0.345650327617002	32.04126806472499	8.175641729432659
O	3.951311970861224	29.56121243532627	8.521835903343746
O	3.635286345960002	29.25125209842328	7.158988116415587
O	3.3305895152044998	30.506628900186666	6.505114187450442
O	1.9348903277798466	29.3827864464383	5.261176168053291
O	2.832945242412315	28.28568008396275	6.77479291836535
O	1.3367493799703807	25.62634154142556	10.282363691072343
O	2.221140344857905	24.39729862698728	9.843370367996679
O	2.15648151797558	26.17760257792703	8.309528927601802
O	3.5609343486135705	25.797325975068304	8.565609224875093
O	3.651618816772178	24.82521805397776	9.696933962158457
O	1.2610193842806483	32.727341064228234	7.707719611344494
O	-2.6995044115814446	28.362740090637836	9.942582185233865
O	-1.5521589645545948	27.184715718679264	11.291555322811776
