25

O	5.307837160242641	26.831945747069494	7.698050648791671
O	5.53578086056487	24.492602865772014	9.371376520435238
O	5.60213718797563	24.339450815571308	6.793967429973127
O	4.926444011279835	27.499286912070627	8.809540950530714
O	2.8697672545547563	30.368526413293317	7.859915399668606
O	7.4465838849598445	25.416680758845374	7.852946854083717
O	4.148545888654519	28.589364890522127	8.796071830020413
O	1.7948824371478764	29.747271916737482	7.3950031664588085
O	0.7470074387374663	32.64232972904797	8.127454848820733
O	3.841735851847239	29.25864202292666	7.678569259141359
O	-0.5523201456422384	31.540296116752906	8.95415213931429
O	2.730370962290183	25.51794419749335	8.559434265345782
O	0.8952120090006326	30.322432339639654	7.775872837610088
O	2.6446275174253824	25.172837333924864	10.372464266983282
O	0.2534719189563396	31.57803293679351	7.825179834849316
O	-0.3615918545680554	30.184479033834865	9.53102192965537
O	0.08869705833758834	29.44436242267295	10.667522906895941
O	1.3277482290974683	28.40151855866387	10.568483769805647
O	1.4623093680716654	27.440802755622972	9.599221688072433
O	2.174242767863996	26.183320346024193	9.520700051393586
O	0.24287034456719814	28.07577002634257	9.194558474114272
O	0.5382108011808842	29.40723498776535	8.766291136380694
O	3.822581329156141	28.281313942377825	6.68501622845203
O	4.817352116734958	27.3647944190396	6.578279337423345
O	5.977933630903437	25.24538942798073	7.90284935547002
