73

O	-0.7036698736941179	2.5104883056501954	-2.1940269905490193
O	-2.139501657694118	2.6947139456501956	0.5278748364509804
O	-2.0298286116941178	4.042890725650196	0.7334582614509804
O	-2.733753097694118	4.734950165650195	1.7248640094509804
O	-3.966921237694118	4.226750245650196	2.0336904294509806
O	-4.079152167694118	2.863975715650196	2.0641692994509806
O	-3.187225577694118	2.135803588650196	1.2801639594509804
O	-0.238018174694118	1.6076588346501957	-0.7819099175490196
O	0.8294355123058821	0.7000603486501957	-0.7580478835490196
O	1.0303971523058821	-0.08118720434980431	0.3825169794509804
O	0.316742372305882	0.22183330865019568	1.5470438394509805
O	-0.42858679569411795	1.3346066096501956	1.4950249594509804
O	-0.9938267836941179	1.7836977896501958	0.35944077345098036
O	1.873563762305882	-1.0579279043498042	0.7610784024509804
O	1.7472930223058822	-1.3574752243498045	2.0304151094509804
O	0.6836076823058821	-0.6844896643498042	2.5345112694509804
O	0.44397310230588194	-0.6490461643498042	3.917701479450981
O	-0.561267125694118	0.044854975650195694	4.606366049450981
O	-0.984850978694118	-0.2639398543498044	6.01017697945098
O	-1.6178309926941181	1.0078058886501957	6.5620718094509805
O	-2.634648427694118	1.5831233576501957	5.583856369450981
O	-1.368583132694118	0.6970176346501957	3.9164908394509808
O	5.120034312305882	6.825317135650196	10.24385475945098
O	2.314543432305882	8.156439065650197	8.05855078945098
O	0.298706522305882	5.274774105650196	6.60377483945098
O	-2.288248617694118	7.548301535650196	5.050999209450981
O	-3.124267127694118	9.936271155650196	2.2201564894509804
O	-2.611260277694118	10.983996995650195	-4.90852745054902
O	-0.10930306969411796	11.944553835650197	-2.2304836905490193
O	1.004122692305882	11.058976565650195	1.2856773294509805
O	2.192197582305882	7.519494275650196	2.0829239294509803
O	4.712856892305882	6.579184555650196	4.739646599450981
O	5.9945092823058825	3.3490709556501956	6.203728229450981
O	9.718176122305882	3.6313719956501957	5.6278490594509805
O	10.534528122305883	-1.9680602743498041	5.19273005945098
O	8.404132032305883	-0.4101865743498043	2.4802824094509806
O	5.465305032305882	1.8796635476501957	1.7862758894509803
O	6.738245132305882	5.166270935650196	0.3567196834509804
O	4.288206202305882	7.239872905650196	-1.6416244405490197
O	-1.050254096294118	-6.971212594349804	-6.77693029054902
O	1.0415968723058822	-4.930462194349804	-4.34670645054902
O	4.504032172305882	-4.963264484349804	-5.894058520549019
O	5.918923832305882	-1.659888954349804	-7.10351291054902
O	9.550388322305881	-2.0281075143498044	-6.017759740549019
O	11.001072022305882	1.1736094651901958	-7.42503371054902
O	6.867527852305883	5.255801665650195	-5.538606760549019
O	8.265854682305882	2.5055142256501957	-3.3505260505490195
O	5.843700022305883	-0.3430899143498043	-2.7225566705490194
O	6.065426742305882	-3.6845161043498047	-0.9274437005490197
O	4.701029672305882	-3.164920954349804	2.6021580294509805
O	0.420262452305882	-4.270243724349804	7.613776499450981
O	-3.326722527694118	-3.8191304043498047	7.256328949450981
O	-6.005865537694118	-2.781118754349804	4.78626769945098
O	-9.471133177694117	-4.303416354349804	4.34373279945098
O	-11.242256377694117	-1.2427273743498044	5.744663109450981
O	-9.475551167694118	-1.6657841843498042	9.03677479945098
O	-8.008266577694117	-13.621111564349803	-4.96597210054902
O	-11.466356477694118	-1.204087644349804	1.0086472884509805
O	-8.674682257694117	1.2586283889501957	1.8119866794509805
O	-6.550491787694118	0.09097742565019562	-1.1020797105490197
O	-7.067901547694118	-3.6536865543498047	-0.6163899685490196
O	-4.218243587694118	-4.861014784349805	1.6107148194509804
O	-4.034331097694118	-8.074486314349805	3.6182830194509807
O	-1.329194173694118	-10.091940664349803	5.34066876945098
O	-3.5014029276941177	-13.081360264349804	1.0637903804509805
O	-5.174657117694117	-9.903349164349805	-0.15587436854901962
O	-3.6694121476941177	-7.532626874349805	-2.7181574505490196
O	-4.698405307694118	-4.653657384349804	-4.9712613105490195
O	-2.874391877694118	-1.3670035743498041	-4.256688560549019
O	-2.5800942176941177	1.8333851876501956	-6.2952269405490195
O	-3.128648967694118	-0.024417024349804306	-9.63743054054902
O	-3.409308067694118	1.9906979806501957	-12.88151824054902
O	-1.8747278886941179	5.072698265650196	-11.28659254054902
