28

O	-0.5837603604589414	32.486249712049585	8.704705901041628
O	-0.17996154975494114	31.151730494799352	8.744772689356545
O	0.9616807821660206	31.140905428904617	8.039317764408466
O	1.116570643706669	32.31927812957524	7.419423021648761
O	0.14388964966810106	33.18586505205364	7.795445943016369
O	-0.506841218735339	30.11590774344382	9.51409224250227
O	0.15562314310278194	28.923599443085894	9.437074196266694
O	1.4577336333198392	29.18598788887929	9.104680322562224
O	1.8545784483550514	30.08815550036425	8.10835505209226
O	3.1162836167495223	30.652132144311906	7.838230522260305
O	-0.3478505897595132	27.816183966949467	10.278482646659672
O	4.42524997322618	30.365428604089008	7.4655402781566345
O	4.430180205812942	28.979541645200502	7.031638675586556
O	3.7979719022125766	28.799438916521083	5.805927526970137
O	2.885802813101941	27.797403715417254	5.899546640312812
O	3.3032549031376326	26.660003406205337	6.534732548032849
O	3.091530127823289	27.10334031773263	7.819251975290968
O	3.833685691710305	28.181633258941442	8.010708771470082
O	0.2394674724299574	26.591347776280468	10.277987415432593
O	0.03102948786463347	25.742756023390342	11.324354981360534
O	-0.9555426340963175	25.957272681887016	12.279296710880434
O	-1.71570960113271	27.11230291423083	12.14090697805392
O	-1.129848950208242	28.122173187980174	11.386670964853856
O	-1.7632192558570676	32.86748228700274	9.42678065835067
O	4.1417206105477105	25.550673842610358	6.325596700721637
O	-2.850422477148003	31.825026975248104	9.467717260170067
O	0.6137458767994467	26.111296014218603	9.083033551485716
O	-1.740150538093525	29.342565848465743	11.46578473976606
