22

O	-0.7178880223313251	28.716629515007167	9.199622706566993
O	-1.9263818470622445	27.958023988749716	9.447315544846582
O	-3.0421925907991008	28.80238755293165	9.577245368946999
O	-0.6003243140165275	30.122410914686796	9.00530380645593
O	-0.2880184258055156	33.09759431876345	8.369482668028416
O	-2.010401502177935	27.059184698094164	10.291323923039158
O	0.4326989276866813	30.663185532530477	8.24370784345891
O	2.777638346631952	30.352827826086305	7.4919871613581295
O	1.4730745702158439	32.46965292430158	7.105363513394558
O	1.514165964785837	29.86701859978614	7.882545244492841
O	6.223330546412212	24.405549556669758	5.266652490561597
O	1.4693111994831174	28.565980608358796	8.371800919763164
O	0.323843133536321	27.91346458613991	8.733555117719842
O	0.5240562097926538	32.052310775986534	7.8074198307545535
O	3.9865312793553147	29.644412962020578	7.906790234886248
O	4.136484448266593	28.468849870106755	7.01023745224958
O	4.250993091312709	27.168908353402827	7.429949859139932
O	4.835638535507387	26.242361232396732	6.574584297414026
O	5.397604253062805	26.60006725860879	5.353732830433373
O	5.388298090416024	27.924451601423236	5.010043204363479
O	4.514637656802202	28.742085598685275	5.7226678342508865
O	6.4550650566624395	25.733497597366224	4.757214004868227
