68

O	-3.1591109576274503	1.0447522568039223	-4.305001911411765
O	-1.7851799916274504	1.1169884078039223	-4.3997664514117645
O	-1.4457912256274505	1.4132648618039223	-5.604720661411765
O	-1.2874854249274506	1.2735065327039221	-3.2075981114117647
O	-1.7013377596274504	0.8145176958039222	-1.950393881411765
O	-0.9654878666274505	1.700384265803922	-1.0094682654117648
O	-0.3108436716274504	1.586754481803922	0.21311614558823516
O	-0.7362091026274504	0.43495941180392217	0.7699393885882351
O	1.0666781823725497	2.0604502928039223	0.053311114588235176
O	1.6849043723725494	2.5605989328039223	-1.1723898654117648
O	0.9998002023725496	2.818957992803922	-2.2908919414117648
O	1.4304684423725493	3.168692392803922	-3.5248544214117645
O	-0.16833599762745055	2.779463452803922	-1.4397234814117648
O	-2.8728803776274505	0.3432113418039222	-2.2107473414117647
O	-3.386427757627451	0.005329492803922253	-3.4317906714117647
O	-4.2902340176274505	-0.7466678571960776	-3.8957667314117645
O	1.1073203223725494	3.119263502803922	-4.824908061411764
O	-10.717862587627451	7.336982652803922	-5.025983981411764
O	-7.1595157376274505	8.605899842803922	-5.447870381411764
O	-4.818379777627451	5.6756327828039215	-5.356663731411764
O	-1.7556779306274506	7.742180682803923	-6.3620961014117645
O	1.0101329023725494	10.037736512803923	-5.145289411411764
O	5.4841488723725496	11.767376642803923	0.3301570795882352
O	1.8528645123725493	12.789968142803923	-0.1692558064117648
O	-1.3933897916274505	11.786821342803922	-1.8750417414117648
O	-3.0248815676274505	8.429524012803922	-1.1147057794117647
O	-6.67907374762745	7.540181902803923	-1.2341263454117648
O	-8.80788164762745	4.492987042803922	-0.8562280134117648
O	-11.12210728762745	5.346644902803922	1.9947988785882351
O	-11.69552761762745	0.009298752803922117	3.880383308588235
O	-8.18595838762745	1.465177221803922	4.104063448588235
O	-5.44952528762745	3.309273142803922	2.216173488588235
O	-5.29423996762745	6.843686172803922	3.5511567185882353
O	-2.0631709116274504	8.713220302803922	3.0359703085882352
O	6.510300642372549	1.7566908338039222	12.830027068588235
O	4.759635832372549	-9.272974357196077	4.652108268588235
O	4.652106102372549	-5.654768337196078	5.791849618588236
O	1.5990789123725497	-3.5215168171960776	4.9618169185882355
O	0.07570032237254964	-2.848182357196078	8.361238458588234
O	0.018733322372549432	0.7081096998039222	9.643079768588235
O	-3.407341367627451	0.7951774888039221	11.252111568588235
O	-4.013434147627451	4.810605152803922	7.718987248588236
O	-2.77712813762745	1.613109216803922	6.1025580985882355
O	-4.18068560762745	-1.7148108871960779	5.405397828588235
O	-5.767312167627451	-1.9288886471960778	2.1128589285882353
O	-5.937599777627451	-4.248124097196078	-4.355449261411765
O	-2.79203205762745	-4.172260107196077	-6.625475291411765
O	0.9712218423725496	-3.521512957196078	-6.774017931411764
O	3.6956248823725497	-5.438798987196078	-8.438022991411765
O	4.21312286237255	-2.782241697196078	-11.148618831411765
O	0.6831436223725496	-3.2262534871960775	-12.370642931411766
O	7.257616562372549	-13.321905057196078	-3.9868439814117647
O	8.201640762372548	-13.456080157196077	1.0926639485882352
O	7.595785122372549	-2.447262487196078	-7.818193701411765
O	5.330952182372549	0.3626620248039222	-7.056244931411765
O	5.5934249423725495	-0.23593569719607776	-3.2813557614117648
O	5.296174962372549	-4.038064117196077	-3.2995208814117647
O	1.6040855923725494	-4.964663107196078	-2.8674220914117647
O	-0.14328313762745037	-8.170424217196077	-3.6599340914117646
O	-3.398297027627451	-9.921655457196078	-2.8078629314117647
O	0.8581014423725495	-12.772146857196077	-0.5196600184117648
O	3.0928400723725495	-9.800122657196077	-1.266126904411765
O	3.842774412372549	-6.990233967196078	1.1749573785882352
O	6.340596732372549	-4.162745887196078	1.6755396885882352
O	4.6939217623725495	-0.7001513671960777	1.742982648588235
O	5.940416042372549	2.7560960628039224	2.8071668585882352
O	8.47815947237255	1.1763903108039222	5.284897398588235
O	10.93200098237255	3.4402909228039222	7.1397088985882355
