73

O	-0.5253955034313729	2.134639728792156	1.0382735254901958
O	0.39142293656862703	0.8159217889921561	-0.7081704945098041
O	-1.171370341431373	3.390159898792156	0.775003955490196
O	0.7003796665686273	1.593774246792156	1.406211845490196
O	-1.0129624644313728	-0.763449101207844	-0.5085234830098041
O	1.0525604265686272	0.428232548792156	0.5711459454901959
O	0.847273426568627	-2.1895730112078438	-0.3637549185098041
O	-0.5225668434313728	0.22029575879215602	0.1258447124901959
O	-0.9946350284313729	-2.7221977912078437	-1.623399714509804
O	-0.4444476534313728	-1.8956174312078438	-0.7712561225098041
O	-4.2464138134313725	1.4572174517921561	-1.535442022509804
O	-2.1561724164313727	-2.377008551207844	-1.9557445245098042
O	-6.3890279334313735	0.925930727292156	-2.645252114509804
O	-2.800787013431373	-1.3562922512078437	-1.2614906815098041
O	-4.4149967934313725	-0.5128664112078439	-2.5922189845098043
O	-2.266642366431373	-0.35541784120784403	-0.5636467539098041
O	-2.4045999864313727	1.062944317792156	-0.3040673115098041
O	-1.2796900184313729	1.401136367792156	0.18547996849019588
O	-2.955706653431373	1.699029451792156	-1.533749972509804
O	-5.000292393431373	0.729728950792156	-2.4179811345098043
O	-3.140623453431373	-0.4268178812078439	-2.973172504509804
O	-2.641651573431373	0.877937725292156	-2.726338524509804
O	-12.429135373431373	-2.555764461207844	2.7343254054901958
O	-10.709770153431373	0.699389519792156	3.6394205554901955
O	-7.971003593431373	1.499096704792156	1.117910205490196
O	-7.316928143431372	4.918050528792156	2.611230025490196
O	-5.700305613431373	6.847298848792156	5.463033135490196
O	0.30842489656862715	7.337389578792156	9.520583755490195
O	-2.7691492034313727	5.195632888792156	10.150888855490196
O	-5.691154993431374	3.553513868792156	8.354867085490197
O	-5.028042023431373	1.034011166792156	5.508089725490196
O	-7.288987783431374	-1.8285962312078436	4.633884315490196
O	-7.450859893431373	-4.4312879312078435	1.9467653354901957
O	-7.436971623431372	-7.699367821207844	3.891280865490196
O	-4.785021843431373	-10.646666631207843	-0.19405998350980408
O	-2.7919289134313727	-7.816096921207844	1.340413335490196
O	-2.8596076334313727	-4.084341761207844	2.192350055490196
O	-3.015296253431373	-3.877916381207844	5.989544785490196
O	-1.8205646074313728	-0.742332581207844	7.696355255490197
O	-2.635351613431373	-0.06309451320784398	11.354976955490196
O	12.712196826568627	-2.112801481207844	5.887347605490196
O	9.742295326568627	-1.290384601207844	-7.676087764509804
O	9.252081926568627	-1.1305762012078442	-3.915782694509804
O	5.992694676568627	-2.4147641112078437	-2.4243979645098044
O	7.112817036568627	-5.456453051207844	-0.3880358855098041
O	6.657494806568627	-5.3340902712078435	3.381209075490196
O	5.3963263265686265	-8.863143081207843	4.019253095490196
O	5.204239686568627	-8.825146171207845	7.803235165490197
O	2.2434084865686272	-3.565071881207844	8.711228125490196
O	1.2410027665686272	-6.094984111207844	6.067186675490196
O	2.0986306165686273	-5.037898091207844	2.545077885490196
O	1.884660996568627	-6.765693931207844	-0.8410058085098041
O	-1.2394369224313728	-5.377433831207844	-2.338517064509804
O	-4.904592863431373	-2.5050897712078437	-7.020165974509804
O	-4.431931563431373	1.114808779792156	-7.993067754509804
O	-2.402139578431373	4.160692538792156	-7.200554884509804
O	-1.0212054934313728	6.745703518792157	-9.686865874509804
O	-3.3761368134313727	9.474433958792156	-8.461238854509805
O	-6.349091663431373	7.440956038792156	-9.550415904509805
O	0.8977716365686272	10.034096198792156	-6.5103360345098045
O	-1.158648600431373	8.382837378792155	-3.7547192845098043
O	1.7111550665686273	6.1878381587921565	-2.700638294509804
O	2.912090776568627	5.1684096487921565	-6.128879324509804
O	1.1400472065686271	1.924560798792156	-6.915049374509804
O	0.6131266165686271	0.32136563979215604	-10.302977364509804
O	-0.39851048343137285	-3.092764451207844	-11.603299044509804
O	4.874918986568627	0.912413242392156	-10.708820844509804
O	6.007057016568627	0.669827741792156	-7.077059594509804
O	7.012155996568627	2.9648709487921563	-4.239826274509804
O	4.829753996568627	2.581038158792156	-1.111968760509804
O	5.424222316568628	3.828109438792156	2.5012209754901957
O	9.260417526568627	3.820842458792156	2.1501742054901958
O	8.452781726568627	4.7945725187921555	7.531918145490195
