28

O	1.123246789238527	29.912016399656583	7.926131220892837
O	1.7921747428789558	30.742142433907368	7.311639316040884
O	3.1513905988155297	30.430604871299806	7.153165527221054
O	1.462010025711943	32.13441998289446	7.227781965629177
O	0.5229390930330695	32.54846360744005	7.987378295843197
O	-0.15011406643625502	31.58400910806824	8.83197181200185
O	0.4284584708142254	30.259620794259483	8.891675299048373
O	-0.304031634485034	29.25279677904711	9.47563110656818
O	-1.246042572375209	32.12071816635567	9.205203955381604
O	-1.1034099325509592	33.503222875852614	8.9902159989985
O	-0.15499392117670885	33.76315876847609	8.133457955755123
O	0.17491729823386692	27.929592459975247	9.200190781653847
O	-0.4005005477546262	27.08729725563824	10.230961072025432
O	0.5711627892323357	26.14693005296172	10.834237555239836
O	-0.2437496540238393	25.09081070583548	11.508501075607892
O	-1.1693441647950231	25.492453780716048	12.574880030150382
O	-1.9773905440972084	26.674089716647693	12.118109266122573
O	-1.2321905151245072	27.66800321863765	11.2833374404704
O	3.6596181012464486	29.145818885306852	7.423614073307488
O	3.4399387244138317	28.358926687967084	8.520292903207771
O	4.06444822088583	27.11122426570274	8.589370829170468
O	5.16901971064868	26.929335494812427	7.744269209840528
O	4.97414806099834	27.428889758894982	6.507646187728485
O	4.240647186695899	28.556152799317196	6.354073858939216
O	5.945728233127689	25.34221705466113	7.791039823012498
O	7.329152160235704	25.51935936047536	8.288922010447312
O	5.2513452478819715	24.38511048624952	8.678734417714505
O	6.096170547635498	24.61704765740948	6.252793674241541
