24

O	-0.36133452920417275	32.032288616694984	8.962456025937602
O	2.8261059884648123	31.050808211810946	6.744914634721886
O	-2.5278689862256964	30.78965867604219	8.735954630569019
O	-1.0750415000274554	29.55422182272261	11.57468206184944
O	-0.29946534825648263	30.907950256914006	8.108770015120589
O	-0.9993909289672278	28.926563920025647	9.608323360307882
O	1.4782057291337187	26.87741962209745	10.373084457400457
O	0.7355798717207702	30.399912694480776	7.410074295794079
O	1.2943002276420659	29.74117298078736	10.178397343581764
O	1.7016242164365056	31.325395369583646	7.379013919433872
O	1.2744929299306988	32.66068184041958	7.488659960229395
O	0.21270455973349028	32.981013276390605	8.366739499084382
O	0.9786363712130077	29.183640734214965	6.890702100204335
O	2.176111286667277	28.99836060315217	6.185432869108558
O	3.2381993171646384	29.837255172436976	6.298044748164303
O	-1.1602709697707583	32.11341014222402	10.194277799256579
O	-1.5562050319441847	30.94031774231695	10.627588693145368
O	-1.9145156278497821	29.997129683871034	9.558765683913684
O	0.08587050042932842	28.906377465146832	10.225230233826702
O	2.4014220915677535	29.475043652025754	9.453104868805834
O	2.2764474017358003	28.035808601945504	9.237657650276049
O	0.7760701534788008	26.069519995005187	9.041833288215017
O	1.894113809577653	26.204037757757533	8.2117810243
O	2.898093147358278	27.02304836811803	8.589960102419063
