71

O	1.963973523840909	-0.4305516946136365	-0.6005250993863636
O	0.5615362738409092	-0.42068096461363647	-1.1290189703863636
O	0.006022611840909242	0.8256456113863635	-0.6961503523863636
O	1.3859950038409092	2.8872253853863636	0.25211337561363634
O	2.6513068838409093	3.406330585386364	-0.02000435538636358
O	2.900389343840909	2.2767550953863633	-0.8620646135863637
O	3.4033108238409087	1.2649929563863636	0.019037041613636396
O	2.108431113840909	0.7050641523863634	0.1877530246136364
O	1.0107049138409092	1.5632019893863633	0.0036839026136363806
O	0.8399154238409091	-0.5065632446136366	-2.322942544386364
O	-0.6869049881590908	1.7642425973863634	-1.4341286983863637
O	0.5093718438409093	4.409402675386364	0.3102251856136363
O	1.865360273840909	5.4154708553863635	0.7223447556136363
O	2.864039873840909	4.540054255386363	0.6228180256136363
O	-1.6781066441590908	1.9915716373863634	-0.6994888170863636
O	-2.941590246159091	1.2561299343863634	-0.8244292730863636
O	-3.744162936159091	1.7720645153863634	-1.7561372463863636
O	-4.466300826159091	0.9432904743863635	-2.6175525443863634
O	-4.415355756159091	-0.4086088546136366	-2.5443321843863638
O	-3.272687346159091	-0.9211590146136366	-1.9938305543863635
O	-2.778176856159091	-0.1367467546136365	-0.9532511353863636
O	-5.609261786159091	-1.2482265546136364	-2.575749584386364
O	-6.984499246159091	-0.2835702946136365	-2.0781333743863635
O	-6.802740756159091	0.9258723423863635	-2.9967189943863635
O	-6.873223256159091	0.4236591423863635	-0.7824269683563636
O	-8.44656146615909	-0.9872620946136366	-2.5601966243863634
O	-8.36552519615909	-1.0169198446136367	-4.025823784386364
O	-2.568198926159091	2.6864306853863633	-12.078083014386364
O	-3.223431416159091	5.237863005386363	-9.354163084386364
O	-3.161444686159091	3.5274414753863637	-5.915866554386364
O	-4.342026566159091	6.711670075386364	-4.180168114386364
O	-3.427559616159091	9.992736685386364	-2.7432929343863637
O	0.029447991840909182	10.649459775386363	-5.366869814386364
O	0.8423706938409091	6.932856055386364	-5.326536564386364
O	0.9889705038409092	4.647414715386364	-8.335689994386364
O	1.3853590538409093	0.9388482953863635	-8.862046844386365
O	4.381360233840909	0.7188017063863634	-11.146870714386363
O	6.1490751838409095	-4.3221621046136365	-9.246873024386364
O	6.173146273840909	-1.4965809946136364	-6.672310334386364
O	4.298966993840909	1.3944708933863634	-5.200785524386364
O	5.654136583840909	4.653502625386364	-6.496129764386364
O	4.938913903840909	7.712597695386363	-4.467208254386364
O	6.349789183840909	-1.7449099446136367	4.331572065613636
O	11.28131647384091	1.4004498273863635	1.3982783956136364
O	9.700150473840909	3.3925108053863635	-4.161117664386364
O	7.977647093840909	0.9945258373863635	-1.7726689263863635
O	7.35173146384091	-2.7443420946136365	-1.7087019013863636
O	3.8596305338409094	-3.3374131546136363	-3.1805145343863637
O	-2.497291206159091	-5.4410730646136365	-2.9056190243863633
O	-4.6611448461590905	-4.0746400946136365	-0.23908500238636365
O	-5.184080226159091	-2.0395711346136363	2.8440821656136364
O	-7.164081056159091	-2.5853209846136362	5.948531865613636
O	-9.86016473615909	-0.05545930461363646	5.020915345613636
O	-10.77983643615909	-2.079554804613637	2.0216586556136367
O	-10.61358005615909	-5.349541024613636	3.866298995613637
O	-3.3483479961590907	-7.999184374613636	12.970780885613635
O	-6.807048936159091	1.8841137253863636	8.030734055613635
O	-5.756806056159091	3.2792017953863635	4.668915915613636
O	-2.0418612661590907	3.002769735386363	5.547628045613636
O	-2.163315206159091	-0.47750067461363654	7.137527565613636
O	-1.4294001911590908	-2.923478264613636	4.277164495613636
O	-2.171002416159091	-6.624658994613636	4.103246875613636
O	-1.2075463631590908	-9.619841784613635	2.0015464956136366
O	0.6280018538409092	-10.375622884613636	7.325919545613637
O	-0.17071389115909086	-6.715560534613636	7.974953695613635
O	2.288883103840909	-3.832103074613636	7.620592485613637
O	2.683588993840909	-0.16770897461363643	8.545874835613636
O	2.9750262738409092	2.1740412853863633	5.555677075613636
O	4.047555703840909	5.771691105386363	5.234977545613636
O	6.242302103840909	5.570224745386364	8.441910765613637
O	-7.648488576159091	-9.267394284613637	-5.508186184386364
