28

O	1.1288873923138296	29.859603684079172	8.140515815110247
O	1.7271975446589685	30.655467605635785	7.412013354691565
O	3.0571764209809027	30.35398952432518	7.073657904237131
O	1.3658548310506775	32.03936752505579	7.266963439883895
O	0.5108343821968353	32.48296018088225	8.108301633928088
O	-0.24640520170455682	31.52605586248722	8.884989585856705
O	0.3043001107310992	30.186143385611732	9.027515819513258
O	-0.6175390204544555	29.162069637142416	9.247642074360515
O	-1.3129425773983516	32.09776777264937	9.284775027773847
O	-1.1969285298578483	33.45787775693358	8.957047284931956
O	-0.21125071177038612	33.68181491292117	8.131927207897895
O	-0.049036737432076594	27.849767106842478	9.348953437811256
O	-0.2799488960108121	27.506050557529754	10.767138211780775
O	-1.2275994441326035	28.37450463531193	11.4655741640893
O	-2.607347362219306	27.902761452088537	11.7386755744953
O	-2.556677443056456	26.699391670084736	12.625693824739804
O	-1.205223577252719	26.077301829622193	12.505039585820166
O	-0.6010905515715808	26.11864119321071	11.140779536741597
O	3.61798069612046	29.11055362437208	7.436005419734132
O	4.1072658927044365	28.421497424246216	6.369198047597041
O	4.74513819078518	27.246199654747794	6.579027229085178
O	4.905155442183599	26.79190584719137	7.854039629415093
O	3.81772871970802	27.08866601987176	8.687719611732797
O	3.202733613371088	28.330126942956717	8.511280464104138
O	5.715979394379995	25.2222578559814	7.943681078150908
O	5.287117227845434	24.35236113956785	9.058980615346446
O	7.16309564200341	25.521611201792776	8.091746948732505
O	5.610142696992935	24.31187609967268	6.497320371956615
