30

O	-1.0547615171885565	27.77529053905445	13.350355482647334
O	-0.5883194929988205	25.88798551071134	11.784159930769324
O	0.32067899747403794	25.52821237228127	10.764012862914125
O	0.9070694797404888	26.73768218941769	10.53553209400755
O	1.1417695620996768	27.246800072434162	11.920491669314265
O	-0.1131125736934081	27.01230350387963	12.547657129299457
O	0.863943567452155	29.265226823393427	8.465655463094965
O	1.4388883697534118	27.993869183009174	8.4355142193739
O	0.6457661273478825	30.00251707429537	7.277649957929291
O	1.6152992692997452	30.109768137526835	9.144364573034585
O	2.560793402190586	27.722062071522068	7.584935649906676
O	1.1708526287212329	27.453536740987687	9.588531361634779
O	1.4448272336679486	29.47388559749659	6.313545319772452
O	-0.26287353270786273	31.043920732393154	7.822486830683594
O	0.9740894356113614	31.379754703193893	9.185033196292386
O	2.5699287783041056	28.64590371247111	6.527486599892631
O	0.6976176278159858	32.137111912036644	7.98311805051792
O	-0.13806490662223647	31.216791882807623	10.02854946915716
O	-0.08650120031500325	33.1505669743036	8.24036927024792
O	-0.6526013963242727	30.023446046118497	10.052943174252569
O	-0.9929344291356024	32.32405626851938	10.209059196844757
O	-1.7846465256106905	29.940185730277165	9.364199717292111
O	-0.39575620241758613	29.27887916304766	11.020923481375585
O	-2.256753913414692	32.43299708791446	9.699587028081172
O	-2.2793332328707767	29.012944273674904	10.188298858564659
O	-2.449805395001884	31.22122025268686	9.166835051685212
O	-1.166288474150636	28.397879815455816	10.558805781362976
O	-1.296626991716395	27.00470025846429	10.07120245854666
O	-3.2103578966136332	29.009481262094692	11.060293251513226
O	-1.74420276388058	26.56450387300931	11.397984141876277
