78

O	1.0928610131956522	1.9396113888260866	-0.5119413744847827
O	2.5887622791956524	3.370504438826087	-1.9702189283847829
O	2.9871756791956523	2.233232258826087	-2.7147346483847827
O	3.103980959195652	1.3505052998260867	-1.510184041384783
O	3.8925914891956523	2.1506692388260866	-0.46350931638478277
O	2.9518839291956525	2.793616298826087	0.2697880376152172
O	1.8138208591956522	3.106768868826087	-0.7614472663847828
O	4.5136575891956525	1.2608384868260867	-2.171904698384783
O	0.5541070641956524	-0.9330230711739133	1.0273084316152175
O	5.687631889195652	0.7309178488260868	-1.5754964563847826
O	6.157788759195652	-1.3850273411739131	0.45389207161521716
O	1.5023963191956522	-1.113614081173913	0.04662528561521728
O	5.328234979195652	2.632685268826087	-2.107571928384783
O	2.7077848191956524	-1.3080450111739133	0.7252901416152172
O	6.101960749195652	2.840857468826087	-0.7896018393847828
O	1.4289460291956522	-0.20217338617391323	-0.9687942093847828
O	0.23787124839565232	0.2608751118260868	-1.3648614253847828
O	7.464389669195652	2.233925618826087	-0.6247988847847827
O	-0.7724576338043476	0.18486402282608677	-0.3251119823847828
O	7.120867569195652	1.0189437558260868	-1.315676813384783
O	0.17415115679565232	0.3367512398260868	0.6515057016152171
O	1.4258808791956523	0.9939566708260867	0.48661991161521734
O	-1.9771135408043476	0.3690151238260868	-0.8706133973847827
O	-1.6020905608043479	1.3173250068260867	-1.846063618384783
O	-0.09532447580434769	1.6225579698260868	-3.5437598483847825
O	-0.25345562180434766	1.1112313808260867	-2.287939358384783
O	1.1791291431956523	1.8044095888260867	-4.262100778384783
O	-0.2564258138043477	3.152348878826087	-3.4199547983847824
O	3.7377686391956524	-0.6734112711739132	0.019568610615217197
O	4.346423829195652	-0.04731338017391318	1.3389582616152174
O	5.621822029195652	0.4755410378260868	1.5207701016152173
O	4.902182639195653	-1.710491751173913	0.027888718615217245
O	0.8039768421956524	8.565056328826087	10.026962711615218
O	3.574206139195652	6.0370265988260865	10.401641211615217
O	5.643897359195652	6.594857588826087	7.208287451615217
O	5.447940369195652	7.9227748088260865	3.680954811615217
O	4.546657719195652	5.319785768826087	1.5612011616152173
O	5.020167309195652	7.1176436288260865	-1.8021146083847825
O	3.7536416691956522	9.427575368826087	-4.274267638384783
O	1.0950171311956522	11.365123828826086	-1.2943226053847827
O	0.3449062491956523	8.120075258826088	0.5040513716152172
O	1.0919714751956522	7.160440678826086	4.075239761615217
O	1.0109006781956522	4.087276658826086	6.228665591615217
O	-1.3088598208043478	5.041027098826087	8.980268251615216
O	-3.1123682308043477	3.584662358826087	11.906974211615218
O	-6.369202570804347	-0.8065513811739132	11.817756211615217
O	-3.283348650804348	-0.20627088717391318	9.789096611615216
O	-4.025792590804348	1.285856014826087	6.377348371615217
O	-2.551585080804348	3.069667428826087	3.387221131615217
O	-3.8510064708043474	6.663735908826086	3.4975070016152174
O	-3.842861290804348	8.599847408826086	0.23918298061521726
O	-6.8362419408043475	-3.485381761173913	-3.1457387583847827
O	-10.872496960804346	0.9376779048260868	-0.8721382863847827
O	-8.215801940804347	4.822142818826086	2.8687788416152173
O	-6.851303890804347	1.6291635788260868	1.2997220116152173
O	-6.1890393508043475	-1.765684201173913	2.6961023916152174
O	-2.648749710804348	-2.057420341173913	3.5653799616152173
O	3.151457579195652	-4.940021221173914	2.9071337116152174
O	4.947942939195652	-5.271709481173914	-0.4991193966847828
O	4.694559639195652	-4.394455521173914	-4.162013488384783
O	5.774900559195652	-6.488427681173913	-7.068401378384783
O	8.545583869195653	-4.1430834011739135	-8.168319818384782
O	10.258127239195654	-4.577584871173913	-4.832923048384783
O	9.695866639195653	-8.270090571173913	-4.820411058384783
O	4.661893959195652	-0.5808727711739131	-8.505924988384782
O	0.9315718131956523	-0.8824215911739132	-8.094259968384783
O	0.6581486941956524	-4.650070911173914	-7.863239938384783
O	0.6519903451956524	-5.601082271173913	-4.162260468384783
O	1.3858176091956522	-8.941809021173913	-2.6390072183847826
O	0.9029654811956523	-10.642706071173913	0.7350373416152173
O	-2.2124094708043476	-13.258833471173913	-3.1706123383847826
O	-1.5457975808043478	-10.356781871173913	-5.5200541683847835
O	-3.7731597508043477	-7.278457571173914	-5.863845248384783
O	-4.355098400804348	-4.356227451173914	-8.237886348384782
O	-3.625105930804348	-0.8966329411739132	-6.567746458384783
O	-4.776027240804348	2.517958788826087	-7.748033088384783
O	-7.682731800804348	1.187468056826087	-9.950300258384782
O	9.334879369195653	-7.204266621173914	5.508427471615217
