75

O	0.35348355864705905	4.948765658970588	-1.1684895028372544
O	0.9740122686470591	4.508402188970588	0.0029664364627454143
O	1.7720983586470593	5.1447471389705886	0.8860187851627453
O	1.740226588647059	6.503954138970588	0.5022959111627454
O	1.0964088186470593	7.060073078970588	-0.5631060618372545
O	0.6360807286470591	6.234599548970588	-1.5494645628372545
O	-0.10847545035294093	3.788969468970588	-1.7940167128372544
O	0.11452782864705902	3.509061678970588	0.4479767391627454
O	-0.21284326235294093	2.9377302589705883	-0.8826665858372547
O	-0.22705719335294083	3.1619816589705882	1.5724178171627454
O	-1.121608816352941	1.853810081970588	-0.7580828608372546
O	-1.605228867352941	1.207296915970588	-1.9194569128372545
O	-1.7020253623529409	1.860732012970588	-2.9758178128372546
O	-1.5091212673529408	-0.12085953102941205	-1.4414582128372544
O	-0.6555208553529409	1.029644993970588	0.3242484781627454
O	-0.6484414643529408	-0.2577136710294119	-0.3061198088372546
O	0.7616929486470592	-0.459442621029412	-0.2184059478372546
O	1.5052917286470593	0.6804354599705881	0.40318131216274544
O	0.9927436186470591	0.366414088970588	1.7194135171627456
O	-0.2669113343529409	0.766650521970588	1.6503242271627454
O	1.840156818647059	0.254793538970588	3.0646312171627454
O	2.595671118647059	-0.006507301029411883	3.3008691171627453
O	2.664998768647059	2.422845941970588	1.9862756071627454
O	1.3500210386470592	1.916137544970588	3.6873209671627456
O	-7.456869401352941	10.521120618970588	2.8807037271627456
O	-4.9868998213529405	9.096831078970588	5.371163847162745
O	-2.167686351352941	7.402039318970588	3.5118426071627455
O	-0.09524157935294086	6.838107218970588	6.5568586871627454
O	0.2792779886470591	4.776321428970588	9.726297817162745
O	0.3953702386470592	-2.052135481029412	12.094398177162745
O	-2.5594368713529407	0.2965610889705881	11.833342077162746
O	-3.836424081352941	3.3373237289705884	9.959086377162745
O	-4.0709380613529405	3.2247628389705882	6.129124807162745
O	-6.5124126913529405	5.207743948970588	4.047079367162745
O	-6.923884721352941	5.758827798970588	0.36539232116274545
O	-10.62991712135294	4.759834878970588	-0.1282444861372546
O	-9.939541331352942	3.062302668970588	-5.508272422837255
O	-8.005465551352941	1.104331284970588	-2.9106462928372543
O	-5.641443071352941	1.445041999470588	0.04805606316274541
O	-7.519519831352941	0.47444493897058804	3.1826018771627456
O	-5.6191059713529405	-0.7371747010294118	6.229597517162745
O	-1.3608703943529408	-14.024031941029412	1.6971109571627454
O	5.851499238647059	-7.061496111029411	-7.948796832837255
O	3.753552318647059	-7.731022481029411	-4.825071182837255
O	0.9655573986470591	-5.308553831029412	-3.9592434828372545
O	-2.194611901352941	-7.304299741029412	-4.3370960328372545
O	-4.251620031352941	-7.998907851029411	-1.2263581728372546
O	-7.770218281352941	-7.629448321029413	-2.6973067628372545
O	-9.872122831352941	-8.581001541029412	0.3018883891627454
O	-7.158286671352941	-5.290524841029412	4.680283627162745
O	-8.002432281352942	-3.9348019810294117	1.2464213471627454
O	-4.978261681352941	-3.518859021029412	-1.0125976708372546
O	-4.541240411352941	-2.471182071029412	-4.677768922837255
O	-3.688726711352941	1.2031828099705881	-4.634836902837255
O	0.26624518864705915	6.358347468970588	-5.496656662837255
O	3.650230258647059	6.723626758970588	-4.188027312837255
O	6.224964758647059	4.995207778970588	-2.1959086328372543
O	9.98466017864706	4.857322938970588	-2.7652110628372544
O	10.751536878647059	7.055874108970588	0.2443354271627454
O	8.91115451864706	9.914795168970588	-1.3655794828372545
O	11.374373678647059	2.531623398970588	1.3923231871627455
O	7.916034398647058	3.358737778970588	2.8203585771627453
O	6.6187343586470595	-0.01582440102941196	1.7527801571627455
O	8.04995469864706	-0.18937869102941196	-1.6973425828372546
O	5.332052258647059	1.299037713970588	-3.8777258228372546
O	5.826654848647059	2.623759728970588	-7.406937632837255
O	3.6326791986470592	3.554734368970588	-10.362561222837256
O	6.915290308647059	-0.8432344110294121	-11.792146222837255
O	7.798595288647059	-1.188600091029412	-8.115885962837256
O	5.980287158647059	-3.456180541029412	-5.665645222837255
O	6.526952558647059	-5.012752231029412	-2.2217608928372545
O	3.8543165186470594	-3.991086211029412	0.3362546911627454
O	2.8633564186470593	-5.166830291029412	3.7878292571627457
O	4.215073638647059	-8.727746341029412	2.9710835171627457
O	1.8447733586470592	-9.546771741029412	7.851413477162745
