72

O	4.03311506575	-2.1792207813181816	-0.9011718927318182
O	1.8537289657499998	-0.9685126413181817	-1.0978252907318182
O	6.2733768457500005	-0.3659914343181817	2.876167826268182
O	3.48077240575	-2.5118665813181815	0.33679942426818177
O	0.1252861827499998	0.2974288204818183	-1.6166051507318182
O	6.93036296575	0.8756684786818183	3.368111126268182
O	4.39328580575	-3.426119851318182	1.151977886268182
O	-0.9121219442500001	0.1625591816818183	-2.4046501837318184
O	5.94202154575	-1.2153281413181818	4.050730676268182
O	4.63397214575	-4.362820041318182	-0.04681926673181813
O	0.3362453277499998	-1.8362353613181817	-2.361957313731818
O	5.97075721575	-3.689477631318182	-0.0916768387318182
O	1.1573978437499999	1.5041962786818184	0.27167041826818183
O	5.56646665575	-2.2224318613181815	-0.3096733447318182
O	7.494646005749999	-1.1949830813181817	2.024382526268182
O	2.8009682157499998	-0.20143565131818175	-0.9927873577318183
O	4.04031127575	-0.7808607413181816	-1.0751266177318182
O	2.31129397575	1.1191811366818183	-1.4361314237318181
O	3.71237485575	-4.578328831318182	-1.0586163587318183
O	0.9669289496499999	1.1942466716818183	-1.0867524607318182
O	1.0684716857499998	-0.7476054313181817	-2.131258333731818
O	-0.7149091842500002	-1.1610696313181816	-2.980131133731818
O	2.3913175457499998	1.3843454526818184	1.0489819262681817
O	3.62533775575	1.8491950986818182	0.7796073162681819
O	4.81567002575	1.3066865076818184	1.2931624462681817
O	4.91777362575	0.15051167368181828	1.9405736562681821
O	3.70419645575	-0.3340696693181817	2.137433536268182
O	2.5562263957499995	0.22549782868181828	1.6667361462681818
O	10.22972230575	5.509549518681818	-5.245352513731818
O	9.39495121575	1.9052175386818182	-6.003255433731819
O	6.88511422575	0.7626926526818183	-3.395387723731818
O	7.175178545750001	-2.8838066313181816	-4.902644073731818
O	5.9383406257499995	-5.504370741318182	-7.316471303731818
O	5.302796185749999	-2.5524156513181815	-10.543049613731819
O	4.10313465575	0.04985841068181829	-8.054866883731819
O	5.526546665750001	3.4665304086818187	-7.3493953437318185
O	4.938778865750001	6.178096988681818	-4.765050963731818
O	4.120214185749999	9.164987308681818	-6.990848273731818
O	0.7623641147499998	11.604202998681819	-3.133605873731818
O	-0.4276748842500002	8.229143778681818	-4.4279355337318185
O	0.5083072727499998	4.702418968681818	-5.201297943731818
O	0.8053311097499998	4.184442958681818	-8.919946103731819
O	0.46811331674999984	0.6568013796818183	-10.228663103731819
O	-7.75952582425	1.2448868616818183	-0.21829888573181816
O	-3.90103705425	5.164882808681818	-9.057037313731819
O	-4.505185484250001	4.231618038681818	-5.4309473937318185
O	-4.710201924250001	6.196614428681818	-2.211224893731818
O	-1.2965846342500003	5.963550478681818	-0.5586045615318181
O	2.97074625575	4.129154438681819	4.2115613862681816
O	3.15734608575	0.7414671226818184	5.6265678362681815
O	1.7584770777499998	-2.701882341318182	5.3857179762681815
O	1.1229710167499998	-5.236811031318182	7.951072046268182
O	4.12678769575	-7.361302791318182	6.919796666268182
O	6.488733405750001	-4.540417901318182	7.656652026268182
O	4.70116299575	-3.7453261013181818	10.931957696268181
O	-7.194659324250001	-4.745189521318182	12.921638596268181
O	0.06579134074999982	-9.198107401318182	5.231541476268181
O	1.6111733937499997	-7.520068761318182	2.2723653662681818
O	-1.7130259942500001	-6.175591621318182	0.9823194162681818
O	-3.13064633425	-5.054127811318182	4.3267853262681815
O	-2.13724058425	-1.3682507313181818	4.716291966268182
O	-2.05337344425	0.6394589526818183	7.924730296268182
O	-1.81830544425	4.292682618681818	8.846041616268181
O	-6.847294514250001	2.162062538681818	10.517089996268181
O	-6.1213306342500005	-0.8870907513181816	8.376290996268182
O	-7.266033454250001	-1.3279942313181816	4.775441556268182
O	-7.549827834250001	-4.008573951318182	2.111697676268182
O	-5.49684779425	-3.4669523913181814	-1.0343220497318182
O	-5.709558884250001	-5.0686765113181815	-4.536636763731818
O	-9.38314244425	-5.931376141318182	-4.139448713731818
O	-11.00186314425	-8.004088801318183	-6.936654903731818
O	7.8612770757499995	6.102100618681818	8.91538624626818
