72

O	0.35736819766818206	-0.9420996456749999	-1.4107178042272726
O	-0.5550248563318181	-0.15215229967499994	-1.6691195062272723
O	-0.134816089331818	1.153153727325	-1.9619909272272724
O	-1.777255951331818	-0.3707584366749999	-1.0090736532272724
O	-1.9444651413318181	-1.361928515675	-0.22948382822727242
O	-0.729748057331818	-1.997153695675	0.29874884177272754
O	0.31642087766818205	-1.9353055456750001	-0.6850339182272724
O	1.410975898668182	-2.751242835675	-0.6550448612272725
O	-1.185480661331818	-3.251295505675	0.7602495017727275
O	-2.3549794913318176	-3.0374209456749997	1.2235050917727277
O	-2.987903151331818	-1.9246346156749998	0.5720337517727276
O	2.525012868668182	-2.287024205675	-1.4347191952272724
O	3.652274148668182	-2.2304869556749995	-0.5355779502272725
O	3.425887678668182	-2.927310095675	0.7200512617727275
O	3.768000858668182	-4.391187705675	0.7024013717727275
O	5.259336128668182	-4.419196205675	0.5305407217727276
O	5.818549658668182	-3.120331585675	0.07922370177272753
O	5.0435448986681815	-2.388832295675	-0.9669970292272725
O	1.167451139668182	1.3953591703250001	-2.4513681582272726
O	2.3615144286681824	1.067304652325	-1.8716522932272723
O	3.5382061486681824	1.532344074325	-2.4550548182272722
O	3.4432675886681823	2.6483183243250004	-3.2639029782272724
O	2.289168608668182	2.816456504325	-3.9311765382272723
O	1.230856608668182	1.993765294325	-3.6700725782272725
O	4.910001008668182	3.3334683543250003	-3.876470078227272
O	6.132457348668182	2.4993722443250004	-3.6939261182272727
O	5.232823808668182	4.675310034325	-3.3348875882272724
O	4.740126988668182	3.575070434325	-5.555061158227272
O	1.381416388668182	-2.7039940256749997	-12.418349218227274
O	3.8039480086681823	-4.086739545675	-9.839172398227273
O	3.5956040386681822	-2.093294065675	-6.566011748227273
O	6.474866448668182	-3.944062985675	-4.999410078227273
O	7.719575158668182	-7.082591935675	-3.4366306882272726
O	4.6518672286681815	-9.737992995675	-5.059024138227272
O	2.066867148668182	-6.972009835674999	-4.859899268227273
O	0.18123871226818203	-5.526507705675	-7.818325048227273
O	-2.1647314913318176	-2.625813085675	-8.336061008227272
O	-5.243150601331818	-4.324830395675	-9.836575568227273
O	-8.877796101331818	-0.514089493675	-7.690812608227272
O	-7.009396621331819	-2.6000021956749997	-5.130940008227272
O	-3.613602441331818	-3.864435075675	-4.044811638227272
O	-3.318336711331818	-7.563780785675	-4.818090918227273
O	-0.734190078331818	-9.523511535675	-2.8765957582272725
O	-4.986845021331818	0.06807943332500005	9.263670281772727
O	-5.0736116213318185	-0.758072455675	5.569156191772728
O	-8.126919441331818	-6.325865535675	4.093042211772728
O	-6.857261201331818	-8.117292245675001	-1.6050992502272725
O	-6.240907641331818	-4.831567265675	0.16560827177272763
O	-7.642429011331818	-1.315708455675	-0.05464331822727253
O	-5.312560481331818	0.682542212325	-2.3439787782272727
O	-0.9497418213318181	5.592511514325	-3.8143170982272725
O	2.085925318668182	6.296651524325	-1.8442072092272723
O	4.172086308668182	4.912810314325	0.9370517217727274
O	6.099931328668181	6.898559864325001	3.5662635117727275
O	9.475038128668182	5.883045194325001	2.1306070617727277
O	8.663649208668181	7.620542064325	-1.0830436532272725
O	1.503933048668182	10.801362404325	11.200310581772726
O	8.471221548668181	3.2434651443250004	5.925384001772728
O	7.652850538668182	0.960356333325	3.012448701772728
O	4.541897148668181	-0.4239026526749999	4.724001211772728
O	3.200434228668182	2.8459015143250004	6.037967211772727
O	0.810677308668182	4.168196364325	3.390136401772728
O	-0.487035811331818	7.715532224325	2.987351631772728
O	-3.2884043513318177	9.400434754325	1.0739437817727275
O	-4.165590391331818	9.947394584325	6.671950051772728
O	-1.467628471331818	7.321185354325	7.200571271772728
O	-2.097008251331818	3.5860383543250003	7.547027891772728
O	-0.346038716331818	0.42199591302500006	8.698654701772726
O	0.057196018668182025	-2.2658309256749996	6.017556201772727
O	0.885885065668182	-5.9651657856749996	6.278315151772728
O	-0.353932168331818	-6.229121085675	9.817479081772726
O	0.861010115668182	11.029577004324999	-7.832497728227272
