77

O	-0.09855776695918417	-0.22889872697959168	-2.6231987015591836
O	-0.14936203695918415	-0.8537865169795915	-1.4618327015591837
O	0.19108122304081587	-2.225903876979592	-1.3714143615591836
O	-0.810883536959184	-0.24273461697959164	-0.44804496355918355
O	-1.219381563459184	-0.5637520969795915	0.9193710284408164
O	-1.357816546359184	0.6515912590204084	1.6814503784408164
O	-2.191196584959184	0.9412695930204084	2.7489358984408168
O	-2.980727616959184	2.0533635790204086	2.8368819884408167
O	-2.683316316959184	3.1175410430204082	2.0357116284408168
O	-1.4520485839591841	3.1081309830204082	1.4403107984408163
O	-0.852239625959184	1.8747830520204083	1.1801317984408164
O	-0.5603325899591841	-1.7064369569795916	1.1943695684408164
O	-1.207995108259184	1.2713444940204084	-1.1337179735591836
O	-0.44955062995918404	1.0330634130204084	-2.660691031559183
O	-0.3858756899591841	2.0843946130204083	-3.545712551559183
O	-0.6381360049591841	3.392499823020408	-3.1078111415591834
O	-3.6393943469591843	2.1760423180204085	4.117259728440817
O	-2.762201446959184	2.3887606740204084	5.166918448440817
O	-4.400296756959184	1.1961977950204083	4.323240028440817
O	-1.2101481791591842	4.262602053020409	-3.9492760715591833
O	-1.411267221959184	5.531231683020408	-3.5149247415591836
O	-1.370028419059184	5.839318753020408	-2.199952871559183
O	-0.8875465119591841	4.909948173020409	-1.3391799715591837
O	-0.7763442039591841	3.624523683020408	-1.7681363815591835
O	-1.7238130289591842	7.453936533020408	-1.6994856215591836
O	-1.3684275195591842	7.619668433020409	-0.29477202255918356
O	-1.344357917459184	8.368542753020408	-2.782091311559183
O	-3.352720196959184	7.8766206230204086	-1.4978089215591837
O	-10.720690386959184	3.577779843020408	-6.788290971559183
O	-10.357780496959185	4.052473863020408	-3.0362240715591833
O	-6.599646706959184	4.256724603020409	-2.1743830415591834
O	-7.215421626959184	5.269926133020409	1.4237133584408164
O	-8.217688396959183	4.091946553020408	4.865851498440817
O	-7.298796496959184	-1.1625513769795917	9.689955368440817
O	-9.854011906959185	-1.0385639769795918	6.889827488440816
O	-10.490594806959184	0.5649981560204084	3.498917188440817
O	-7.961754936959184	0.017908173020408258	0.6869702314408165
O	-8.810656996959185	-0.017087786979591568	-3.0247949515591834
O	-6.794985346959184	-0.08195391697959176	-6.215550511559184
O	-8.256804466959185	-3.1215461369795916	-7.982363671559184
O	-3.4536890569591843	-4.3970561069795915	-10.726357091559183
O	-3.315846056959184	-4.663938396979591	-6.942794701559183
O	-4.073186526959184	-2.887823876979592	-3.6422611715591833
O	-7.065071706959184	-4.584902916979591	-2.0270564715591837
O	-7.455191526959184	-4.095444116979592	1.7089400084408164
O	8.545377483040816	-5.063705676979592	1.8277359384408163
O	5.280460273040816	-4.633376636979592	-0.09357675815918354
O	1.329236633040816	-9.78651850697959	0.22357288044081644
O	-2.9692747969591844	-13.38324030697959	-1.3500277415591837
O	-5.596317486959184	-8.826578306979592	1.7924648784408164
O	-4.2578368969591835	-8.483828436979593	-1.7384624315591837
O	-1.023454283959184	-6.461891946979591	-1.9392090415591836
O	1.353594323040816	-5.609289176979591	-4.720549791559184
O	0.42455361304081585	-2.1267945669795916	-5.950359431559184
O	1.6329940530408158	4.387959823020408	-7.254963631559184
O	2.817461033040816	6.671066613020408	-4.532164651559183
O	3.6749472130408156	6.909415153020408	-0.8384703455591835
O	6.334067823040816	8.895469043020409	0.9132596384408166
O	3.8705564130408163	11.35919190302041	2.4731765784408166
O	2.901419943040816	12.498961293020407	-0.9299764585591835
O	15.411829793040814	5.557243023020408	0.9987913184408165
O	5.126967033040816	8.182841583020409	5.665862318440817
O	1.7122846230408157	6.982381933020409	4.544055278440816
O	2.757800443040816	3.3481819330204083	4.672027028440817
O	6.115149963040816	3.766572843020408	2.9384619484408168
O	5.551552843040816	3.2394324730204085	-0.8000843995591835
O	7.789636783040816	4.2599973930204085	-3.6776792815591834
O	8.094753833040816	3.425222823020408	-7.359323241559183
O	12.739580893040817	1.6905736580204083	-4.611308071559184
O	10.875006993040817	2.2629798670204084	-1.3548693915591836
O	8.908518493040816	-0.4053911269795918	0.5044880654408165
O	7.337356163040816	-1.0265462469795916	3.9088420784408164
O	3.551448213040816	-1.5586858869795917	3.849300518440817
O	1.1528561830408157	-2.9453417169795912	6.458235358440817
O	3.912297933040816	-5.056580206979592	8.125341438440817
O	3.175390073040816	-7.109515886979591	11.286854908440816
O	-0.5883981489591841	-6.741095436979591	10.764456008440817
