74

O	0.4694404606734691	-1.3933179584897957	0.5159594979020412
O	1.346786934673469	-1.9059717784897958	-0.3356436660979587
O	0.5934481406734692	-2.045047358489796	1.7196004679020414
O	-0.9335328443265308	-1.6241819884897957	0.2846220579020413
O	2.3895972346734693	-2.004352668489796	0.3538414279020412
O	1.9297061746734694	-2.139381918489796	1.6696876079020413
O	-1.8208446053265308	-0.16777355448979572	0.5586236379020413
O	3.6193632546734693	-2.9174528584897956	0.2045516979020412
O	-1.0573897593265307	0.6469184285102042	-0.7789937377979588
O	3.3618130946734692	-4.283919178489795	0.8994079379020412
O	4.55226385467347	-2.4125623984897957	1.1198270079020411
O	3.664663954673469	-3.1513437584897956	-1.1305016090979587
O	0.4670622576734692	0.48495863451020427	-1.4328760030979586
O	-1.6553008753265308	1.3855271315102042	-1.6760995930979588
O	0.21708169967346913	1.3483253015102041	-2.933600812097959
O	-1.0452102353265307	1.6531006815102043	-2.8267136320979587
O	1.299255974673469	1.0262387355102043	-3.835514382097959
O	2.6449198846734694	1.0161260855102043	-3.2292712520979587
O	3.1589579346734693	-0.07072137948979576	-2.2808990520979586
O	2.6453467746734693	2.2424285515102045	-3.313957952097959
O	4.234165844673469	0.17401188081020424	-1.3237136490979586
O	4.0089977446734695	-0.6783958534897958	-3.3592329520979587
O	5.51856232467347	-0.6239619534897958	-1.5475160140979587
O	5.176544734673469	0.29973874091020425	-3.566025142097959
O	6.181161324673469	-0.47775380048979577	-2.8079364920979586
O	0.6962731446734692	-5.146919428489796	-12.04761663209796
O	2.719499424673469	-6.459565318489796	-9.09934780209796
O	3.2612951346734693	-3.6619517284897958	-6.758881562097958
O	5.673219904673469	-5.536798928489795	-4.443554262097958
O	5.9403201346734695	-8.206132088489795	-1.7140710440979587
O	3.082211244673469	-10.940138428489794	4.396678317902042
O	2.1050530146734694	-11.706457928489796	0.8174449779020412
O	2.1889266846734694	-10.339790928489794	-2.7307757120979588
O	0.5150488636734691	-6.966926208489796	-3.5071513420979588
O	-1.0075072573265307	-5.975931898489796	-6.824158702097959
O	-2.3464074953265306	-2.761549848489796	-8.24747123209796
O	-5.8246830153265305	-3.809041168489796	-9.305696712097959
O	-8.10531171532653	1.3116934815102042	-8.59519399209796
O	-6.789442645326531	-0.37834525348979575	-5.452953172097958
O	-3.816464705326531	-2.182063878489796	-3.8419329320979587
O	-4.740057535326531	-5.874806178489796	-3.5029599720979587
O	-2.7987352753265307	-7.870557438489796	-0.9447138012979588
O	-3.613696735326531	5.716799241510204	7.58763457790204
O	-4.014935185326531	3.882970761510204	4.291963967902042
O	-7.667143825326531	2.911561231510204	4.245718747902041
O	-8.632284315326531	-0.7362090354897958	4.358978787902041
O	-12.478165015326532	-4.477625908489796	2.180815167902041
O	-7.046381095326531	-7.238150248489796	1.744927417902041
O	-8.147709955326532	-4.382797828489796	-0.47250176209795874
O	-6.42855620532653	-1.0640380084897958	0.28290582790204133
O	-6.856125415326531	2.4872542615102042	-1.0602779190979588
O	-4.049478855326531	2.960497651510204	-3.764610172097959
O	1.3237068246734691	5.881527951510204	-6.333110812097958
O	4.57632509467347	6.030908721510205	-4.425516202097959
O	6.316392624673469	5.217103381510205	-1.1300700490979587
O	8.798085214673469	7.0874540015102045	0.8754455179020413
O	11.696975884673469	4.794825121510204	0.014244393902041241
O	11.310532684673468	5.534234241510204	-3.6584051020979587
O	10.077299784673468	3.826289731510204	4.371185317902041
O	8.600678234673468	1.1236978345102042	2.2618543579020414
O	5.214262884673469	1.2345403465102043	4.008077407902041
O	4.908450124673469	4.969639051510204	4.2181647379020415
O	2.922101014673469	6.050756941510204	1.1429922179020413
O	2.6969902546734694	9.492514901510205	-0.40107805009795877
O	0.4688847756734692	11.306180471510205	-2.8631799920979586
O	-0.02432983832653085	13.695176671510206	2.2373670279020414
O	1.8087476346734692	10.702576371510204	3.6842352679020416
O	0.10795463467346916	7.618037901510204	5.105360167902042
O	0.9031322346734693	4.584527471510204	7.25193198790204
O	0.3893915966734691	1.2636505315102042	5.510613787902042
O	0.20878817867346922	-2.3564356984897956	6.743370647902042
O	-1.0357425053265308	-1.1960429284897958	10.20401926790204
O	-1.5686466453265306	-3.755465508489796	13.01911246790204
O	-1.5187419953265309	-6.660676458489796	10.570186567902041
