79

O	-2.6135575073333337	-2.4235088399999998	-2.247153211810417
O	-1.5783079403333335	2.0820594800000003	-4.153046601810417
O	-2.707262757333334	-2.5677106599999995	-3.6040775018104165
O	-2.019408946333334	-1.6647936599999997	-4.360885821810417
O	-0.8347167603333336	-1.03964493	-3.914151871810417
O	-0.7401283613333336	-1.1540041699999999	-2.580244621810417
O	-1.3620262483333336	-2.0450474899999995	-1.7070115818104168
O	-1.0457922389333336	-1.7790263799999997	-0.4372874408104169
O	0.21300743266666644	-1.0873608099999998	-0.5993664538104169
O	0.47305794266666634	-1.1389176899999998	-1.9049114868104169
O	1.4027144226666663	-0.6540038289999999	0.19909567818958318
O	2.511090782666666	-0.16303488999999977	0.8387983881895831
O	2.5027279226666668	0.3704525634000002	1.966712928189583
O	3.2692919326666665	0.5478717570000002	0.0023599181895830323
O	2.1377841526666668	0.4298075306000002	-0.9352651378104169
O	1.0077053626666663	0.6591248240000003	-0.2755579898104169
O	-0.2115881923333336	0.6587778650000002	-1.0222400108104168
O	-0.39245362733333367	1.4256507100000002	-2.0933582838104168
O	0.7820591426666663	1.9198702200000002	-2.6144568318104167
O	1.9465123326666662	1.3346882080000002	-2.129598111810417
O	-1.3745592633333337	1.1970196330000002	-4.434727201810417
O	-1.8502738953333338	1.2554664880000002	-2.989840201810417
O	-3.299470637333334	0.7827852920000002	-2.863120771810417
O	-3.8989928973333337	1.7333905800000002	-3.877533361810417
O	-3.399258687333334	1.1676178850000003	-5.175760751810417
O	-4.680101717333334	0.3769755448000002	-5.517911741810417
O	-5.335176917333333	1.52481978	-5.856283551810417
O	-5.0848168173333335	-0.3024889939999998	-4.247549831810417
O	-4.401063297333334	-0.003952409999999795	-2.947309441810417
O	-0.6704254423333336	-3.0998624899999996	0.3018570381895831
O	-2.009505898333334	-1.2355746899999998	0.31724974818958307
O	8.348963742666665	-0.4797689619999998	-10.593522521810417
O	4.681645482666666	-1.40312851	-10.366591181810417
O	3.0439427126666665	0.4852527320000002	-7.593832631810417
O	-0.3282105523333336	-0.7504323099999999	-8.627796941810416
O	-2.8333138773333335	-3.71353485	-8.600132601810417
O	-5.766145217333334	-8.66109129	-4.194463551810417
O	-2.6161965873333335	-9.073576699999998	-6.375851031810417
O	0.10070046266666632	-6.90446223	-8.041440771810416
O	2.3339031526666663	-4.63053697	-5.959186211810417
O	5.800190952666666	-3.5089608299999995	-6.707457691810417
O	8.301742942666666	-1.1255514699999998	-5.237459721810417
O	9.789244182666666	-2.0068869499999997	0.29130953818958316
O	6.399321092666666	-2.5876448899999995	-1.247629019910417
O	6.117829852666667	-6.17411981	-2.478822211810417
O	2.566651022666666	-7.50464999	-2.883876691810417
O	1.6488659826666663	0.2188620910000002	7.341914248189584
O	3.980463212666666	-5.82832875	7.421218228189582
O	7.567662502666666	-10.19305108	6.1915001981895825
O	3.6564538326666662	-9.73468628	1.479533678189583
O	6.535496452666666	-7.34816557	2.154320928189583
O	5.3422839626666665	-3.9608730399999996	3.400933648189583
O	7.089583532666666	-0.8215803599999998	4.619487028189583
O	7.210118142666666	1.5644965000000002	1.736491508189583
O	5.647807882666666	7.22158907	-1.4272852218104168
O	2.153621172666666	8.51780051	-1.8560113838104169
O	-1.4253039473333335	7.72044323	-1.033496724810417
O	-4.260486457333334	9.937061420000001	-0.14352283181041692
O	-5.984289497333334	9.48920618	-3.5249488118104173
O	-3.0467694173333335	10.799012820000002	-5.388417001810417
O	-10.437124967333334	3.905384	0.587779268189583
O	-8.153865407333333	6.87855035	-0.19184940581041687
O	-6.022966097333334	4.50355079	-2.146241837810417
O	-5.057717917333334	2.5364228600000005	0.9642351381895831
O	-4.325472757333333	5.47853906	3.1566775581895827
O	-0.6130302373333336	6.25379983	2.8061140081895832
O	1.2190213726666663	9.414321000000001	3.672905798189583
O	4.810889392666666	10.431478420000001	4.143334558189583
O	2.0115815526666667	10.872517720000001	9.060368538189582
O	-0.8345439323333337	8.911644520000001	7.498830188189583
O	-1.1883029553333337	5.10596063	7.728109578189583
O	-3.7521192773333336	2.34971194	7.110238218189583
O	-2.6846281373333336	-0.15581806099999979	4.400334028189583
O	-4.130337137333334	-3.6392144299999996	3.380578058189583
O	-5.466821707333334	-4.16426771	6.775767798189583
O	-7.507520327333334	-7.33221175	7.700850588189583
O	-6.277823687333334	-9.11377074	4.589040338189583
O	-9.960188777333334	-9.11576964	3.614776168189583
O	-13.684805717333333	-2.6635224999999996	-7.206812831810417
