69

O	2.677166705283019	1.7464794405018873	2.145618822311321
O	3.759467825283019	1.6142654685018871	0.09963945007132076
O	4.884542735283018	2.3465211185018875	2.054054252311321
O	6.120043145283018	1.722389649501887	0.14905367901132074
O	0.30609131528301897	-0.5471284514981127	-4.27140922768868
O	0.2509891962830189	0.5527348165018873	-1.9691229476886793
O	-0.872224035716981	0.5510000295018873	-1.1896779276886793
O	-0.8134166007169811	0.9655121165018873	0.13876943771132075
O	0.32327608128301893	1.3433236205018873	0.7967818413113208
O	1.452045495283019	1.1659647575018872	0.07975934321132075
O	1.390077015283019	0.8940066954018873	-1.2480704676886794
O	2.664211115283019	1.5300047505018872	0.8207504583113208
O	4.888904945283018	1.9803157085018872	0.7616689643113208
O	3.6870882552830193	2.4585644285018873	2.6326233323113204
O	0.335335140283019	-0.20148024849811275	-3.176919407688679
O	0.338289387283019	1.343169602501887	2.176415492311321
O	6.683279015283018	11.994393338501887	-0.12735484868867925
O	6.840481475283019	9.527965178501887	-3.0140071276886795
O	6.388108695283019	6.002935838501887	-1.7572656076886792
O	7.112445205283018	4.441086258501887	-5.153903947688679
O	5.769139115283019	3.603803548501887	-8.585064617688678
O	0.036764597283018896	1.2725522365018873	-12.296840587688678
O	0.8593419052830189	4.833195308501887	-11.287432787688678
O	2.813745525283019	6.830648648501887	-8.722314727688678
O	2.098047935283019	6.405340698501887	-4.995990987688679
O	2.531713215283019	9.080953338501887	-2.3447723876886792
O	2.333450395283019	9.206060168501887	1.4213054423113207
O	-0.25896155871698107	11.901268438501887	2.0376605823113207
O	-2.117481314716981	9.633389028501886	6.906415182311321
O	-2.7184276547169812	7.550723168501888	3.8007439123113205
O	-1.121086298716981	6.121501678501887	0.6719589623113208
O	-2.391102974716981	8.007113778501887	-2.375100097688679
O	-2.130707254716981	6.218014018501887	-5.708837107688679
O	-12.70517628471698	-3.855765211498113	-4.189666817688679
O	-4.618601884716981	-9.072268771498113	5.766921132311321
O	-5.685449824716981	-6.911495511498113	2.8327912423113206
O	-4.637311494716982	-3.2754366314981125	2.715891892311321
O	-7.8801605847169816	-1.3502508614981128	3.078639562311321
O	-9.06823558471698	0.7409294699018872	0.13919903191132077
O	-10.39286690471698	3.8078694485018874	1.9665162423113207
O	-11.76761638471698	5.783808528501887	-0.9658459576886793
O	-7.065574624716981	5.4346449185018875	-4.8903032776886795
O	-6.717618304716981	6.215236258501887	-1.1968216176886792
O	-5.331452174716982	3.3145265585018873	0.8200315243113208
O	-4.591634194716981	2.663078258501887	4.465389202311321
O	-0.918753490716981	3.477413348501887	5.101360572311321
O	5.324981075283018	1.9723148385018872	7.0070112723113205
O	7.321711165283019	-0.8093010814981128	5.3397882923113205
O	7.130268705283019	-3.461001901498113	2.628534772311321
O	8.511365895283019	-7.026181851498113	2.754945182311321
O	11.23649751528302	-6.312630591498113	0.19625391421132077
O	12.74777601528302	-3.7310543614981126	2.483968102311321
O	-1.415808680716981	-14.504682161498113	7.302167422311321
O	7.627133155283018	-8.552885051498112	-1.8974758276886792
O	7.103453045283018	-4.914087611498113	-2.873670997688679
O	3.330938225283019	-5.137834321498112	-2.4652768376886796
O	3.319049525283019	-7.083410981498113	0.8047489563113207
O	3.180055815283019	-4.510494301498113	3.6103016023113206
O	4.056789055283018	-5.003986471498113	7.271480222311321
O	3.455207925283019	-3.1356712214981126	10.51584381231132
O	0.7877166352830189	-8.122863051498113	10.681734212311321
O	1.408978815283019	-8.432562771498112	6.945470792311321
O	-1.0452987167169812	-7.335038491498112	4.2538158623113205
O	-1.693227124716981	-7.791729331498113	0.5386243633113208
O	-1.599952644716981	-4.5536994714981125	-1.4821595776886793
O	-2.769611414716981	-3.6636340714981124	-4.983598047688679
O	-5.414029514716981	-6.468543811498113	-4.95916309768868
O	-7.443343774716982	-7.183396521498112	-8.126478297688678
O	-6.508948984716981	-3.8408598814981127	-9.66016807768868
