30

O	1.795168089431647	28.362534619317415	8.79233599902821
O	0.7798044697595856	27.824630035568823	9.519222326785616
O	-0.24092810971202971	28.712159658725565	9.718255181592129
O	-0.16638854475120124	30.048397422190806	9.192490604124727
O	0.8231817249034958	30.340247337604602	8.230808550020523
O	1.8621649891116725	29.492261065300436	8.051869720745774
O	1.0394847356566235	31.655281292124293	7.674716094579445
O	0.18657122435123674	32.67697193493208	8.127876279027468
O	2.023130023399755	32.004056395559225	6.997258102274316
O	-1.321311726231069	28.190360699706194	10.442296074980549
O	-2.2199460453911932	28.969994700667435	11.190619861085056
O	-2.0383812136831336	27.14276863107806	10.293791633134184
O	3.0458544780296064	29.426575699789694	7.295158010582583
O	4.097819948501684	28.49037776380876	7.307218421393826
O	1.1644710481031941	26.526936214779443	9.997129177832974
O	2.5813332914333955	26.040651748618043	9.708724690063589
O	2.8700980458085152	24.610805543757863	9.701143330863125
O	4.135913396403837	23.995664777449722	9.346899872325807
O	5.024582389085	20.574066148964928	8.205481690335349
O	4.876725934209958	21.655152098384526	9.232753279337906
O	4.6000591886845505	22.939571859968147	8.568974229597947
O	5.924956918049024	23.15331457443545	7.972943016432599
O	6.159518227815715	22.050331581708512	6.9798566915807605
O	5.1672355370145215	21.09394010733966	6.93352834466816
O	4.408501542577877	24.497221005940666	5.411341507029105
O	4.949560427211792	25.593541039396943	4.8211503382511225
O	5.030783515892524	26.80075679383929	5.538101198847118
O	4.210567977169543	27.199256798787594	6.629850162775678
O	3.46044294062927	26.080697155157758	6.844989318693681
O	3.477817642125485	24.810112558478362	6.343440951202586
