79

O	-0.19050752765957446	-3.4487761397336167	-0.8905586401276593
O	-0.6126814376595744	-3.947180679733617	1.0976796018723407
O	-0.9004164216595745	-4.6052853697336165	-1.2525506951276593
O	-0.7513985476595744	-5.252869339733616	0.7516711018723408
O	-4.411123067659575	-1.1694468247336167	-1.3856226081276592
O	-3.778329117659575	0.14496086026638344	-1.1007685951276591
O	-6.308185767659574	-7.388873159733617	-0.4155759891276592
O	-6.262750567659574	-5.166717149733616	-0.4709553891276592
O	-2.392614005659574	-1.8047419227336166	-1.5565678481276592
O	-3.5062400976595747	-3.8832575997336165	0.6923794368723408
O	-3.7486839676595745	-5.245767539733617	0.2751371368723408
O	-4.235812277659575	-3.5469837297336166	-1.5664336381276593
O	0.35524843234042547	-3.2768554697336167	0.3793870878723408
O	-3.6291111276595744	-2.2148966897336164	-1.7166328081276592
O	-4.988807257659574	-5.7269652797336175	-0.3286548313276592
O	-3.5454023976595743	-4.489355539733617	-1.9005108881276593
O	0.5420353723404256	1.1049870502663834	0.7903008418723407
O	-2.5624188586595746	-7.403469589733616	-1.8063258081276592
O	-2.6090928266595745	-7.948405279733617	0.3960018818723408
O	-1.2468177716595745	-5.610106049733616	-0.4321286831276592
O	-0.5065867376595745	0.6671806702663834	0.1788096138723408
O	-0.8870814896595745	-0.8036033337336166	0.0362736018723408
O	-2.5457479246595742	0.41723340026638334	-0.6004135841276592
O	-2.0482877426595745	-0.8351143187336166	-0.6525585111276593
O	-6.992209047659574	-6.275711759733616	-0.8031649181276592
O	-1.7243918725595744	-7.257315159733617	-0.6372745321276592
O	-5.3696520276595745	-6.810223029733617	0.4056645318723408
O	-4.675434197659574	-3.6235008897336165	-0.2512837122276592
O	-1.6089730826595745	1.4470242802663833	-0.31669755302765923
O	-0.4603366976595744	-1.3964395967336167	0.9983507118723407
O	-0.43617010765957454	-8.147310079733616	-0.09621651412765919
O	0.7710781123404258	-1.9366154987336166	0.9202207718723407
O	-10.365773097659575	-3.4706726697336165	7.092982881872341
O	-6.901320327659574	-5.013019109733617	7.343410461872341
O	-5.000237727659575	-4.578038439733616	3.9896580718723405
O	-2.1864063756595744	-6.690858929733617	4.946299831872341
O	1.0573935923404256	-6.943060759733617	6.9862687118723406
O	7.020324762340425	-3.2376674297336168	8.87078436187234
O	3.6107001123404254	-3.1617051697336165	10.49716843187234
O	-0.04815479765957442	-3.8008921297336165	9.835564231872342
O	-1.8794666696595743	-1.8482785227336167	7.130880391872341
O	-5.521005727659574	-0.8868909877336166	7.091234341872341
O	-7.874596407659574	0.5998409302663834	4.568881991872341
O	-9.307879307659574	3.5801349802663833	6.464195391872341
O	-10.178086137659575	6.807507590266383	1.8561389418723406
O	-6.544076397659574	5.995803980266384	2.6391838118723405
O	-4.1315002676595745	3.190962670266383	3.5171885518723407
O	-3.1102822376595745	3.4419539202663834	7.1253164018723405
O	0.1241356823404256	1.7396796502663832	8.069859601872341
O	2.378960232340426	6.0315067702663825	-3.891002268127659
O	2.606781662340426	9.597032030266384	1.5006212318723406
O	1.7983337723404256	6.510420010266383	7.890256601872341
O	-1.1454778976595743	7.598808080266384	5.78193762187234
O	-0.8343294386595744	6.617392720266384	2.108476391872341
O	-2.8920495876595744	7.4473688602663835	-0.9568532811276591
O	-5.079152987659574	4.4061500102663835	-1.4874742781276593
O	-6.945489827659574	-1.5304631947336167	-4.7778195881276595
O	-4.618736417659575	-3.9826052797336167	-6.0546190981276595
O	-1.0804682106595744	-4.933081499733617	-6.180016708127659
O	0.7955706423404256	-6.603650039733617	-8.97883022812766
O	0.8875917123404256	-9.920180409733618	-7.084220828127659
O	-2.8446155476595747	-10.189914349733618	-7.1662755281276596
O	5.019727762340426	-7.635366549733616	-6.63584639812766
O	3.328703952340426	-7.054262489733617	-3.357811108127659
O	4.547850782340426	-3.4473282697336165	-3.1954933581276594
O	3.795363082340426	-2.4630729297336167	-6.774650128127659
O	0.2836800023404258	-1.0308579232536166	-6.893066278127659
O	-1.9785352076595744	-0.6129252727336166	-9.899352138127659
O	-5.177252987659575	1.2598129902663833	-10.68205216812766
O	-0.8917589036595744	3.323447080266383	-13.844537668127659
O	1.5090588323404257	1.4149309602663833	-11.595230368127659
O	3.198115022340426	2.8571706502663834	-8.500186748127659
O	5.946987622340425	2.0195749902663835	-6.02423715812766
O	4.802095762340426	1.5927358102663836	-2.4209758081276593
O	6.695016632340425	1.3397117002663834	0.8679452118723407
O	9.581281442340424	3.586530360266383	-0.5801112531276592
O	12.744215242340426	4.329024770266383	1.4535919118723408
O	11.038561842340425	3.1906665302663835	4.646484351872341
O	13.766202342340424	0.5566243102663833	4.706332651872341
