23

O	-0.46566865660539913	30.259599882558682	10.863703887202353
O	0.11472915638582137	29.547845238972947	9.975603663018079
O	-0.2347118637856071	30.204426379553233	8.791302217306125
O	0.20780034115788126	31.492685466192864	8.434341335457251
O	-0.17906916875253243	32.72365863004961	8.310807694909393
O	0.7121463769552925	33.30236158194098	7.3396025504079745
O	1.5581777609806677	32.440500445617914	6.909669733498642
O	1.4842312191604932	31.32354086696648	7.814723775531618
O	2.1987409918713894	30.153739734944526	7.5146317951891675
O	2.471527202894852	29.33906242049257	8.541656144816713
O	3.270863085611026	28.345119973917296	8.159981512815977
O	3.5482655323980152	27.04961372807013	8.5932643999561
O	3.7729864217074214	26.138572850709295	7.600101639186597
O	4.245812814304575	26.605024815012165	6.404054384764565
O	4.614473820561864	27.94561407894574	6.30033406976937
O	3.830813659163688	28.83859608612771	6.977808693030941
O	3.327961683929902	30.089859974546886	6.818205843880105
O	-0.0016609964944225286	28.108392442781728	10.287308818588341
O	-1.1485219270796896	27.580001543803192	10.888333375519702
O	-1.0978778677836714	26.19951814050336	11.098639694551164
O	0.10488241445688296	25.50366593592785	10.949592075852726
O	1.2685321210500045	26.22615617286436	11.028098835813996
O	1.1526549674609687	27.595768572553567	10.893506754534613
