27

O	-0.28555267891449676	26.638520760648028	11.309506702627163
O	1.2456310225534635	32.19321348360154	7.388931994149299
O	6.268106750630634	25.069264056053647	7.408123168142419
O	0.9494573015973088	29.979220398338278	8.22212757405103
O	0.48007891519854307	27.185469366033693	10.32066264735234
O	-0.5350762221151025	33.44085239124401	8.375382126767613
O	5.038189686147802	24.867780301430834	9.636185263920812
O	5.053179358860889	25.268506552562712	8.23018056150806
O	0.11672557480946766	28.451784781561337	9.881230734494945
O	3.0743561772616035	30.588378442652072	6.7420260167787305
O	-1.7759704978967714	31.70214511604186	10.152633016280744
O	-1.3991899357854765	28.80716635891648	11.569492268319118
O	4.08858127140646	23.939516331042466	7.787157603535746
O	-1.0448222998428465	27.547232227407505	12.068785705716415
O	1.1992575820190448	26.19019329376014	9.658137107521911
O	2.022970158857978	25.386548125237116	10.502230475882593
O	-0.8251390664295747	29.336757559347827	10.438126381118721
O	-1.1086886995140435	30.63975445218119	9.813425001612421
O	-0.15223249137462974	31.10865661685676	8.8342829753366
O	0.24963649693098222	32.26437491930736	8.255191915046456
O	1.9143475554456466	31.066000187591843	7.30535203440792
O	3.5692208968670913	29.335170953477377	7.139923405337288
O	3.0359596625835956	28.699713897344033	8.256907312976836
O	3.78215309977385	27.66712717703639	8.74434851774455
O	4.379056243473952	26.822827527564403	7.86459693319585
O	4.653179880356356	27.358557437312257	6.64574979911623
O	4.19393960406682	28.568643290527394	6.244906162830385
