76

O	0.2131260058541663	-0.8538124807708329	-2.352216965020833
O	0.26821749385416627	-1.326597701770833	-1.1454963150208333
O	0.9529921348541662	-2.3729469417708327	-0.6452703520208332
O	0.9308739948541663	-2.356451831770833	0.7217872769791668
O	-0.3280688671458337	-2.058737601770833	1.2563359279791668
O	-0.8119168791458338	-0.902876716770833	0.8337696329791668
O	-0.5095898930458337	-0.554570941770833	-0.4088915520208332
O	-1.0049446151458337	0.588082194229167	-1.0429496050208333
O	-0.6144524814458336	0.23436034622916696	-2.3452867450208332
O	1.7833347548541663	-3.302521141770833	-1.2589375350208334
O	2.692712654854166	-4.096516941770833	-0.4326181420208332
O	2.5089391048541665	-4.499581681770834	0.9371448579791668
O	3.103688254854166	-4.232032781770833	2.176669294979167
O	2.5111695248541666	-4.280973521770833	3.479595604979167
O	1.5611445148541665	-5.206912941770834	3.641668954979167
O	0.7276469348541662	-4.915019571770833	2.627277404979167
O	1.2793531848541662	-4.989254491770834	1.3394258849791667
O	-0.43174227814583366	-2.184093611770833	2.6240190449791667
O	0.6304429848541663	-1.7970059217708332	3.433672774979167
O	0.1175484788541663	-0.615563336770833	4.159392474979167
O	-0.4503418929458337	-1.134449381770833	5.367679184979166
O	0.3465638868541663	-2.284729501770833	5.6935581949791665
O	1.7131735648541664	-1.2903665817708332	2.631459284979167
O	1.3532632748541662	-0.07710974777083303	2.098669434979167
O	-0.5337283292758337	0.10572995322916696	3.239360384979167
O	-2.0465476851458337	1.4726514882291668	-0.4283496190208332
O	-2.8803381351458337	0.719601739229167	0.6596462419791668
O	-1.4667671831458335	2.387877988229167	0.6694349209791668
O	-4.737358865145834	-11.900966351770833	-1.8442100550208333
O	-4.525363365145834	-10.301883651770833	1.5741691349791667
O	-1.7901898451458336	-7.717309981770834	1.4153686549791666
O	-1.8155965251458337	-7.089176871770833	5.196982874979167
O	-3.5825457351458336	-5.430417901770833	8.054515594979167
O	-7.061530395145834	0.736515475229167	10.101158484979166
O	-8.377102455145833	-2.303042991770833	8.323839654979167
O	-7.421778235145834	-5.195628231770833	6.1198000849791665
O	-5.926800295145834	-4.5968774117708335	2.7246501749791667
O	-6.266577355145834	-6.783417511770834	-0.37875921502083326
O	-4.535397555145834	-6.8628788817708335	-3.748788635020833
O	-7.462812905145834	-6.721937811770833	-6.119397965020833
O	-4.539711445145834	-4.119303221770833	-10.212198155020834
O	-5.038033925145834	-2.113999371770833	-7.045023875020833
O	-4.680551955145834	-2.2588067917708328	-3.277595065020833
O	-8.144590165145834	-2.344961861770833	-1.6649854150208332
O	-8.421507175145834	-1.2090642617708331	1.9444335049791668
O	2.5495749148541664	9.706398608229167	-2.432989435020833
O	0.6132681248541664	6.504507788229167	-3.143530885020833
O	-5.819507585145834	7.299811358229166	-3.849201705020833
O	-11.236197145145834	6.025400458229167	-5.482035765020833
O	-10.314312845145833	2.9510710282291672	-0.2768785670208332
O	-8.783758565145833	1.998574888229167	-3.611700865020833
O	-5.043700225145834	2.737026048229167	-3.8385669650208327
O	-2.4972033251458337	2.468577428229167	-6.657350065020833
O	-0.6469499601458337	-0.8865528337708329	-6.163203545020833
O	4.604094014854166	-4.751612731770833	-4.623032295020834
O	6.792719844854166	-4.182361391770833	-1.7440589650208331
O	7.305019264854166	-2.077045411770833	1.2570259959791668
O	10.478445554854167	-0.828258267770833	2.846946654979167
O	10.237795354854168	-3.217618411770833	5.802697224979166
O	10.379427954854167	-6.202692251770833	3.5233325149791668
O	14.841458754854166	7.0775018882291665	-0.7499509050208333
O	8.691442184854166	1.0548121482291668	7.071445014979166
O	5.525231234854166	-0.876560322770833	6.542831574979166
O	3.8338321748541664	2.036280028229167	4.858490864979166
O	6.684430524854166	3.234851748229167	2.685579764979167
O	6.277043244854166	1.490925848229167	-0.6900976650208333
O	8.805820124854167	0.859914785229167	-3.356544585020833
O	8.787937774854166	-0.22276053177083302	-6.954255345020833
O	10.793375254854167	5.102632408229167	-6.532200095020833
O	9.524641654854166	5.162089998229167	-2.964355385020833
O	6.094547034854166	6.409872208229166	-1.8371260750208334
O	4.215000064854166	7.405262918229167	1.3115384669791668
O	1.1002279748541661	5.384642048229167	2.0089707949791666
O	-1.8652235651458335	5.8699459782291665	4.358391994979167
O	-1.4493527031458338	9.681648568229166	4.315104934979167
O	-6.151678915145834	8.996871608229167	7.160763524979166
