22

O	1.6897264501296967	31.045886638117306	8.215692819146609
O	3.0781659952771365	31.147427495135933	7.708498218999321
O	2.799714092695939	31.38879116886664	6.2930782816650765
O	2.716567895447379	29.96743258103335	6.308615280232998
O	1.8819113372640999	29.168780102239285	7.073787512932482
O	0.8803756584148714	30.046499464679425	7.698805637289096
O	0.6205874424314115	29.327615010287104	8.90822074549319
O	1.9635305772450982	28.854070609241997	9.266623388282818
O	2.016190455531313	27.321743612916052	9.415403042727663
O	2.8267256058167685	26.668515998328694	10.413750663785754
O	4.117180840137406	26.02833324618556	10.114288165348306
O	6.437139935479415	25.459689970901874	8.61541147957163
O	4.790534276915908	25.446022981344008	9.513425924790155
O	3.606973356128612	26.321737109318157	8.050643144405734
O	4.584709733295287	23.521832473014566	9.216469414999969
O	4.093091856780726	25.36497084422161	7.0695278985847505
O	5.259625491371576	26.10660128523355	6.612959514903081
O	4.6978910978096815	27.39221719072393	5.9876086082275215
O	4.1103386661606685	28.313743479470226	6.975257733852155
O	4.438431984742795	27.63975529992365	8.209563989456168
O	4.045530149704261	29.593519113861703	6.601361832577291
O	0.8335029800741074	32.45262665477944	7.695833760291098
