18

O	0.307950777836671	34.23808624338861	7.990516629171217
O	5.563175965085895	24.087050420763806	6.796010933994209
O	6.061375438197381	25.157298873653495	8.037727048853217
O	7.528994807087436	25.298593817352625	7.820637123046368
O	5.896426942222821	24.421322005613938	9.32337879953223
O	5.166433082745523	26.63665395531031	7.918212371827369
O	5.247910684253271	27.488047952897414	6.8700363645717815
O	4.329682268493961	28.490549973171234	6.649635907081816
O	3.3625957653172884	28.80425816416665	7.590341087588877
O	2.352284992084881	29.683799638789235	7.194572439751048
O	1.4772879626026165	30.494902398194625	7.920415301860359
O	0.4250351401406891	29.841404693425687	8.589000087130698
O	-0.42883359691053036	30.622514748589936	9.14034331019108
O	-0.49200701817953574	32.00404488224426	8.98058037591649
O	0.20809100898340072	32.506192937336216	7.929664456590347
O	1.092024023591088	31.68487223900467	7.371360777370739
O	3.380771664171517	28.01754144635202	8.702462615253232
O	4.174067190335837	26.897168439340433	8.8171986165881
