68

O	0.52454106968	-6.056160364366999	-1.8270362821000012
O	1.50804756868	2.511399985633	-0.7123264321000012
O	0.49800827068	1.7080234266330003	-0.4653800131000012
O	-0.81086464332	2.1554651556330002	-0.08865314710000122
O	0.64890837668	0.40236792663300014	-0.7827693641000012
O	-0.32441683672	-0.6334060243669999	-0.5462439421000012
O	0.15051984067999996	-1.985338474367	-0.4435446321000012
O	-1.46865360132	-0.4261061943669999	-0.1361861681000012
O	2.3308870286800003	0.2731383096330001	-1.1002078101000012
O	2.6917982586799996	1.9478752596330002	-1.0233167221000012
O	3.91849178868	2.6673753156330005	-1.2099752521000011
O	4.9840089786799995	1.9847524426330003	-1.8973572921000013
O	5.97568609868	1.3939999686330002	-0.9331153771000011
O	6.06163966868	-0.0870861443669999	-1.1803303741000013
O	-0.78227730632	-3.4097500243670003	-0.6941059501000012
O	0.54282405668	-4.392922144367001	-1.2307347551000012
O	1.63123179868	-3.6831875243670003	-0.8083837171000012
O	1.25478007868	-2.410038044367	-1.1207086151000012
O	5.15691495868	3.3745121756330003	-11.509888332100001
O	5.03104309868	-0.20250306436699983	-10.255894552100001
O	5.12306509868	-0.24245829436699973	-6.462930732100001
O	5.37314545868	-4.027730874367	-6.308482882100002
O	3.49341581868	-7.326468184367	-6.537971542100001
O	-2.58588961132	-10.835233204367	-4.849976012100002
O	-1.91758787132	-8.712909104367	-7.930974882100001
O	0.29007129068000004	-5.885011934367	-9.1852342421
O	0.29380315268	-2.520410164367	-7.353771222100002
O	0.95878552868	0.8205985336330002	-8.9744435521
O	1.43920366868	4.301841425633	-7.678747332100001
O	-1.21642437932	6.213961975633	-9.6237518821
O	-1.96456221132	10.159072815633	-5.610045612100001
O	-2.9447676313200004	6.638320635633001	-4.651206292100001
O	-1.80566685132	3.0201832556330004	-4.623396332100001
O	-3.76727772132	1.0702496599830003	-7.222060902100002
O	-3.95105940132	-2.6784168543669997	-6.763879372100002
O	-4.729656111320001	0.8656480316330002	8.849819607899999
O	-4.04396939132	1.9365042086330002	5.274847737899998
O	-7.33565760132	3.426561815633	4.118547877899998
O	-9.204729041319998	1.6532058026330003	1.335970487899999
O	-10.43293941132	4.632680825633001	-0.6763047101000013
O	-12.49680181132	2.852713645633	-3.3129981921000016
O	-8.59260056132	-1.5297207543669997	-5.064564622100002
O	-7.62755867132	2.099518075633	-4.524818132100001
O	-5.608763301320001	2.681796795633	-1.3411091321000013
O	-4.24567285132	5.776378535633	0.3947632158999988
O	-0.58975475432	6.1615775356330005	-0.6892050651000012
O	5.96566127868	6.360709605633	0.40383790589999874
O	7.90438797868	3.641902455633	2.1513995878999985
O	7.504144408679999	0.2214662496330002	3.7205404578999985
O	9.19246155868	-1.179898784367	6.823151227899999
O	11.306682888680001	-3.6311629943669996	4.813964907899998
O	12.941066388680001	-0.7908414143669997	2.9660280978999984
O	7.6141159286799995	-5.899846794366999	6.739874787899999
O	6.58424893868	-5.383726914366999	3.114597867899999
O	2.99309153868	-4.564726704367001	4.022776037899999
O	3.75199221868	-2.2969462543669996	7.006419877899998
O	3.89272011868	1.2382222006330001	5.615108667899999
O	5.43379781868	4.318849165633001	7.176065937899999
O	5.2558261886799995	8.063621925633	6.646259937899998
O	3.13972252868	6.750659415633001	11.736463667899999
O	3.09317464868	3.116403405633	10.6414537679
O	0.10230842868000001	1.394348916633	9.0370990179
O	-1.15284970032	-2.103093024367	8.2470681479
O	-1.70367457132	-2.774444294367	4.528815507899998
O	-3.5863029213199997	-5.538076494366999	2.7183290878999986
O	-5.90281097132	-6.189784274367	5.717509667899999
O	-8.396868591319999	-9.093188804367001	5.560660677899999
O	-8.03100499132	-9.384909904367	1.7902817578999988
