80

O	-0.06347236411914925	-1.091320137093617	6.338140305851064
O	0.3930014158808508	-0.591057218093617	5.165292275851064
O	0.06386808588085069	0.083797054906383	4.047329935851064
O	0.3803918558808508	1.355906510906383	3.5741478558510638
O	-0.40945929111914925	1.886043980906383	2.5471703858510635
O	-0.39144387911914924	2.717361610906383	1.3346701998510637
O	-0.9398641151191492	0.661590155906383	2.0367615258510634
O	-0.5238171281191493	0.24935808090638303	0.8204841171110637
O	-0.41698826311914927	-1.059697931093617	0.5654473448510637
O	0.18874071588085073	-1.324804139093617	-0.6233785741489364
O	0.30717566588085066	-2.6943184290936166	-0.8470188141489363
O	-0.0708946341191492	-3.592185049093617	0.11068681685106374
O	-0.6112800571191492	-4.948599429093616	-0.4535796041489364
O	-1.6506682391191492	-4.864884459093616	0.6275214668510637
O	-1.3157927758191492	-4.669884509093617	2.009974645851064
O	-0.04271387411914929	-5.382517089093617	1.7624030008510636
O	-0.40025107211914923	-6.689066579093617	1.3413166698510637
O	0.8659009158808508	-7.291809669093617	1.1873014548510636
O	1.3913500258808507	-7.123169439093616	2.582967695851064
O	1.2157898958808506	-5.794182489093616	3.229936905851064
O	0.029023035880850756	-5.860843339093617	3.9469508058510634
O	0.17026176588085074	-4.932386659093617	4.987857995851064
O	0.5853082258808509	-3.5587397990936167	4.307267895851064
O	-1.1353037113191493	-4.5972773090936165	5.240410375851064
O	-0.9322032961191493	-6.800988239093617	3.7587948758510636
O	-1.0010921531191492	-7.423457279093617	2.4212450158510634
O	0.7727523258808506	-4.337158479093617	1.0733514998510638
O	0.028518535880850848	-0.291024501093617	-1.5602005141489361
O	0.4379399558808508	0.9343221809063831	-0.9400605841489362
O	0.7535272958808508	0.9204589609063829	0.5026313658510637
O	1.3908993858808507	0.11079393190638301	1.5231294898510637
O	1.207130445880851	-1.299594369093617	1.9338418458510638
O	-1.0175344341191492	-0.802578000093617	3.039631965851064
O	-12.943100714119149	-2.9921243490936167	-2.150474484148936
O	-11.014508414119149	-6.193220109093617	-2.5514691441489363
O	-9.544172084119149	-6.692347299093616	0.9584883398510637
O	-8.37478885411915	-4.877204099093617	4.091923465851064
O	-4.8854363441191495	-3.796960009093617	3.8372494558510635
O	-4.541437814119149	-2.6021851890936167	7.412474195851064
O	-5.10354535411915	0.284170688906383	9.778118085851064
O	-8.564036904119149	1.784146540906383	7.496179085851064
O	-6.87689001411915	0.9444150809063829	4.202082835851064
O	-8.13942555411915	-1.400307689093617	1.5082416328510637
O	-6.96406022411915	-2.7702286290936167	-1.7488209341489365
O	-9.545520214119149	-1.5711704890936171	-4.2633920641489365
O	-10.151029414119149	-1.459511129093617	-7.972303224148937
O	-6.681088294119149	0.428851763906383	-11.775989754148936
O	-5.82589820411915	-1.341412549093617	-8.566763434148935
O	-5.141515054119149	1.056066870906383	-5.696621544148937
O	-4.720462134119149	1.338523370906383	-1.9126548841489364
O	-7.792237484119149	3.1324541809063833	-0.5944980741489363
O	-7.41853210411915	4.906577440906383	2.720397295851064
O	7.27590609588085	8.317333420906383	-2.686387154148936
O	4.063380195880851	6.292247600906383	-2.941163104148936
O	-1.1583074095191492	9.907529420906384	-3.9436277741489363
O	-6.2779214441191495	6.870340620906383	-3.1533617541489365
O	-2.683603634119149	5.6774566209063835	-3.2628943241489363
O	-0.6468352651191492	3.7566239509063832	-5.720830234148936
O	-0.6836368441191493	0.15607751490638302	-4.919791324148936
O	2.369492825880851	-5.526294659093617	-2.9030198041489363
O	4.53308120588085	-5.407870519093617	0.3098591688510637
O	5.98180074588085	-3.4949771890936168	3.043620965851064
O	9.504997785880851	-3.690547159093617	4.467017905851064
O	8.359334675880852	-5.065771209093617	7.800922615851063
O	7.118520655880851	-8.133415199093617	6.059150885851063
O	10.094712485880851	-8.448067619093617	3.7941853058510633
O	5.512969075880851	-0.5656457230936169	7.978796415851064
O	5.1703929758808505	2.479717490906383	5.709102655851064
O	8.067061735880852	1.568091190906383	3.499464035851064
O	6.90405491588085	-0.300621542093617	0.4247050398510637
O	8.765584625880852	-2.457130999093617	-2.036836474148936
O	8.180821245880852	-3.8881035790936167	-5.525973854148937
O	12.383523085880851	-0.07608239969361699	-5.7043357741489364
O	11.370122885880852	1.060160220906383	-2.2196709341489367
O	8.951876385880851	3.933635350906383	-1.4701922641489362
O	7.823956475880851	6.175260360906384	1.4014961228510638
O	4.107801755880851	5.887188620906383	2.250530445851064
O	1.8341825358808508	7.965835670906383	4.471544945851064
O	3.9892355658808505	11.198943620906384	3.863667305851064
O	3.3151798358808504	-12.370448279093617	-3.3581458941489366
