72

O	-0.03903900571363605	0.40163938622272727	-1.796064227068182
O	-0.10996498331363605	1.4204343374227273	-1.1096237750681819
O	1.104006967886364	1.8790904774227273	-0.5752606170681819
O	-1.290481462113636	1.8355523274227272	-0.41067065306818185
O	-2.252655542113636	0.9976859754227273	-0.3609319310681818
O	-2.091083132113636	-0.27154284057727274	-1.0387695320681818
O	-0.772416714113636	-0.5676555185772727	-1.5542802040681818
O	-0.630458899113636	-1.6343431425772728	-2.410589861068182
O	-3.257778952113636	-0.7714593425772727	-1.170384466068182
O	-4.083368992113637	-0.0973345305772727	-0.25286608106818176
O	-3.568162812113636	1.0439312104227274	0.11205725893181806
O	0.608431144886364	-1.6594814725772726	-3.132149731068182
O	0.763223824886364	-3.0274644525772727	-3.587908541068182
O	2.123790827886364	-3.570272102577273	-3.372084731068182
O	2.239143927886364	-4.758829242577273	-4.271043711068182
O	1.2999969078863638	-5.872043662577273	-4.086753281068182
O	-0.09901238081363606	-5.3345260725772725	-3.9786338210681818
O	-0.22674088911363605	-4.042773092577273	-3.233589661068182
O	2.347199097886364	1.3847554574227272	-1.013688326068182
O	2.729448467886364	0.08370002442272728	-1.190614848068182
O	4.030827757886364	-0.18254257557727271	-1.623133087068182
O	4.958506297886363	0.8561059464227273	-1.4558601898681818
O	4.459760257886364	2.065380527422727	-1.7809344840681818
O	3.157153607886364	2.3361287474227277	-1.5314524770681819
O	6.600163327886364	0.5489502184227273	-2.034674596068182
O	7.5141459078863635	0.5801307044227273	-0.8698606830681819
O	6.741658947886363	-0.7631757525772727	-2.7014030510681817
O	7.1747662978863636	1.7469739674227274	-3.1067171710681816
O	2.758715497886364	6.058896747422727	-10.714131141068183
O	2.7046418478863643	2.2692127474227273	-10.566880141068182
O	2.790292157886364	1.0368845864227274	-6.956894331068181
O	3.1674525378863643	-2.5338365925772726	-8.014415501068182
O	1.423828687886364	-5.579977582577273	-9.343827831068182
O	-1.912913002113636	-3.552015492577273	-11.233333371068182
O	-1.957072802113636	-0.9138974025772728	-8.511044751068182
O	-1.377428172113636	2.7952855574227273	-9.040879061068182
O	-0.934061818113636	5.782095937422727	-6.784208391068182
O	-3.676189272113636	8.131920637422727	-8.018028721068182
O	-4.376273112113636	10.591559047422727	-2.945393131068182
O	-5.271312612113636	6.905379157422727	-3.1067504810681816
O	-4.1056610521136365	3.480808747422727	-4.2017289710681816
O	-6.052306982113636	2.3655620774227275	-7.252205601068182
O	-6.167592142113636	-1.3441056125772728	-7.977411601068182
O	-6.188315302113637	-0.6039527785772727	4.925016178931818
O	-11.457032312113636	0.22241572682272728	1.1175333089318182
O	-9.884983782113636	2.422719167422727	-4.353080221068182
O	-7.9017786021136365	2.116334367422727	-1.1441231540681818
O	-6.517415982113636	4.522263287422727	1.4311489089318181
O	-2.879507102113636	5.237929827422727	0.47324079893181814
O	3.787593307886364	5.204450817422727	1.3819792989318183
O	5.684052307886364	2.174174727422727	2.298289718931818
O	5.365050637886363	-1.5268489325772727	2.7569904189318177
O	7.129824507886363	-3.748225052577273	5.276009868931817
O	9.268565207886365	-5.408954892577273	2.595497478931818
O	10.874127587886365	-2.1361343425772725	1.786449238931818
O	11.238837487886364	-1.1399995325772727	5.404425548931819
O	4.015041727886364	-4.174020642577273	14.490559468931817
O	5.635905147886364	-8.205527732577274	3.723918878931818
O	4.537191827886364	-6.604980692577273	0.4635581389318182
O	0.955989036886364	-6.206169402577273	1.6758620189318183
O	1.7139843978863638	-4.966210972577273	5.1542195489318186
O	1.7638416978863638	-1.1725203925772727	4.9250238789318175
O	3.297763187886364	1.3022355684227271	7.346989878931817
O	3.069148417886364	5.031456457422727	7.9766806589318175
O	1.0256050878863638	2.1902483374227275	12.474969168931818
O	1.018520187886364	-0.9343267525772727	10.308051368931817
O	-1.951819382113636	-2.1730089025772727	8.279920478931817
O	-3.155825542113636	-5.279610222577273	6.460779978931818
O	-3.770274032113636	-4.8168169325772725	2.7196723189318184
O	-5.696656812113637	-6.937257812577273	0.22856997893181807
O	-7.843669142113637	-8.551245152577273	2.8505288689318182
O	9.852116467886365	8.667810297422728	1.6384509989318183
