25

O	-0.46719832057666655	31.898793042597415	8.289231123784882
O	0.056163699906901066	30.585419402315594	8.31200209373624
O	1.202096449537052	30.543306279743526	7.554975542774608
O	1.4614343312256506	31.74283386717115	7.122322783762822
O	0.5656808795851542	32.632223854341134	7.741241304895525
O	-0.3634821738574605	29.53117348663766	9.050638514556942
O	0.4143646383819153	28.47100082558819	9.163114652031956
O	1.4215798204139924	28.366616167582585	8.259755191254966
O	2.005982883667135	29.500671529206745	7.722804155551646
O	3.126638603572869	29.102286613556892	6.909876020277915
O	0.5149657078204941	27.59414553116269	10.339315760354705
O	3.9639366055004404	28.000997619868848	7.195310640914048
O	3.727295668722622	26.538259723839868	6.972210515075156
O	4.4516031778459055	25.762552458576373	6.036881946231183
O	4.51382963849485	24.384557208282054	5.994313355183811
O	3.9437401935051506	23.62816071081165	6.97559227496142
O	3.1545712751058845	24.310426939434585	7.857743545342124
O	3.4604262863988122	25.670263101632898	8.058730921110133
O	0.9936088913300003	26.33204143886033	10.16960925264255
O	0.6954241409217983	25.317898149548448	11.031774489540021
O	-0.4380346308434542	25.45185561577595	11.827486346345184
O	-0.8262811937695711	26.731673154352382	12.097178462210978
O	-0.5816641258188235	27.723227899229286	11.194240778799363
O	-1.226792847788175	32.350565767716766	9.568049136535102
O	-0.12497492050754211	31.742075908858574	10.411059185301712
