72

O	-1.4823030610925925	-2.5785878015518517	0.09970810501851904
O	-0.21353673009259244	-4.460462481551852	-0.5414155999814809
O	-0.8621944920925924	-5.546273771551851	-1.066009994981481
O	-2.0958420010925924	-5.824119831551853	-0.399164353981481
O	-2.280698391092592	-4.6646965415518515	0.406540010018519
O	-1.0990977950925924	-3.7988819415518518	0.381681012018519
O	-1.1004122000925924	0.5818202910481481	2.119736624018519
O	-1.5088794110925925	-0.3208689205518519	3.060241894018519
O	-0.9566649280925924	-1.513039271551852	2.521945344018519
O	-0.12517598609259245	-1.435186011551852	1.396768234018519
O	0.7951632589074076	-0.40329886455185193	1.1786878440185191
O	0.3057238069074076	0.7180878674481481	1.847301264018519
O	1.5924271989074075	-0.9496464915518519	0.11641190801851903
O	1.0253359489074074	-2.2526398215518517	-0.35478569798148096
O	-0.25051302709259243	-1.8871285615518518	-0.05592941428148097
O	1.5914498589074075	-2.780560481551852	-1.3234980359814807
O	-2.9248933410925924	-0.2711477275518519	3.280350454018519
O	-3.4067273410925925	0.6669894554481481	4.198062584018519
O	1.7100229489074075	-12.467971161551851	6.051005734018519
O	-0.7397721350925924	-9.86440456155185	7.340118934018519
O	-1.9505140710925926	-7.643906151551851	4.5543204440185185
O	-4.438266141092592	-5.781926301551852	6.662504064018519
O	-4.972329051092593	-3.1922138015518517	9.38676356401852
O	-3.0555200510925924	3.411562348448148	11.723035354018519
O	-1.3987063840925924	0.08248983044814812	12.44717905401852
O	-0.9427740280925925	-3.452144841551852	11.120046454018519
O	0.5346702529074077	-4.021201031551852	7.631281734018518
O	2.523084538907408	-7.038291801551852	6.573289654018518
O	3.9750085789074077	-8.328316251551852	3.384858454018519
O	7.642091598907408	-8.703639831551852	4.139939624018519
O	9.318636978907408	-7.728222501551851	-1.1948220159814809
O	7.662962508907407	-4.815166321551851	0.547462253018519
O	4.6015902389074075	-3.765684991551852	2.5396572440185192
O	5.632621878907408	-3.134848101551852	6.115719874018518
O	3.389883828907408	-0.909297371551852	8.197096284018519
O	6.433766838907407	12.171852938448149	2.2829093040185193
O	0.4957997639074076	6.947203308448149	-9.07699659598148
O	1.5733908789074074	7.240764188448148	-5.450938435981481
O	2.735950538907408	4.144993678448149	-3.597595695981481
O	6.402617188907407	4.773751898448149	-2.9506482359814807
O	7.549360548907407	5.177544088448148	0.6428541470185191
O	10.851630358907407	3.2882213284481483	0.5136434030185191
O	12.087374958907407	3.867773768448148	4.050933244018519
O	7.071563658907407	2.476626628448148	7.269877364018519
O	8.371553968907408	0.4248927972481481	4.365634014018519
O	6.309637878907408	0.8032685684481481	1.2023148040185192
O	6.534790338907407	-0.5369167515518518	-2.310314315981481
O	4.444825068907408	-3.6727002615518516	-2.588006255981481
O	-0.6185625510925924	-7.281480361551852	-5.040280485981481
O	-4.248293981092592	-6.070350331551852	-4.926794425981481
O	-6.437316601092593	-3.2112195315518517	-3.835249125981481
O	-9.429757861092593	-1.744470541551852	-5.642411055981482
O	-11.896863241092593	-3.067954151551852	-3.059144025981481
O	-10.862113141092593	-6.603131021551851	-3.795943665981481
O	-8.111613561092593	4.3483217084481485	-13.12419744598148
O	-4.496404391092593	8.036455018448148	-13.082822745981481
O	-11.074178441092593	1.5341347984481482	-2.288951075981481
O	-8.919580461092593	-0.25097259055185195	0.319444703018519
O	-6.092043141092593	2.235101888448148	-0.15322651998148096
O	-6.085235921092592	2.3233856784481484	-3.9189171459814807
O	-3.655668231092592	-0.3452458225518519	-5.121475585981481
O	-3.4318482810925923	-1.886183201551852	-8.56496299598148
O	-0.9051007630925925	-3.9400211215518515	-10.494865545981481
O	-1.5732067910925924	1.0751797314481482	-13.00246124598148
O	-3.403903261092592	2.234428348448148	-9.887997095981481
O	-1.7492609610925924	4.011054428448148	-6.960930305981481
O	-2.7135459710925924	6.101091948448149	-3.9493819959814807
O	-1.6469493910925925	4.631572858448148	-0.6552475889814809
O	-1.3448927500925925	5.897935678448148	2.9055742340185193
O	-0.8831383810925924	9.573259588448149	1.610399374018519
O	-0.7138486490925924	12.492502438448149	4.087174694018518
O	-0.06162675809259244	10.152511228448148	7.0095436240185185
