68

O	-1.4613451400000002	-2.4423865247291663	-2.6783379067708335
O	-2.0742489870000003	-1.1056906947291665	0.6014472772291665
O	6.629342793	-1.1072811447291664	2.7304556332291665
O	-0.32392495200000004	-2.6132011147291663	-0.16404985777083347
O	-3.590186457	-0.8255970947291664	-1.2130420167708336
O	5.409536273	-0.28896754472916636	4.763364373229167
O	5.524385323	-1.3465216647291665	3.6885201732291666
O	-0.04869387000000003	-1.1373898247291665	1.9627465932291666
O	5.993386633	-2.738948134729166	4.578978193229166
O	-1.605869637	-2.229743734729166	-1.2697451167708336
O	-2.505897787	-1.4853654447291664	-0.5693100277708335
O	-0.973945641	-1.6414102047291663	1.0858381202291665
O	1.3271801229999998	-1.3938191247291665	2.093212113229167
O	1.6669238530000001	-1.9033151447291663	3.3172996932291663
O	2.890041873	-1.4496909847291664	3.8125439532291665
O	3.9483532630000004	-1.4255091847291663	2.9624832732291666
O	3.606528203	-1.0798309247291664	1.6870446332291664
O	2.328826473	-1.3381096947291664	1.1777201342291663
O	-2.191120697	-1.7120900747291665	-3.3353754167708334
O	-0.048161770000000104	-2.388161434729166	-3.1023424767708336
O	0.18042968799999992	-11.456864714729166	6.345017013229167
O	2.359318783	-10.924111514729166	3.2743312432291667
O	2.515097803	-7.227387694729167	2.3460993532291665
O	5.086624743	-7.799719294729167	-0.3758170117708335
O	5.753290133	-8.936553844729167	-3.9021200467708335
O	2.320510663	-11.650218814729167	-4.159750696770834
O	0.21024690299999993	-9.279773324729167	-2.0589927467708335
O	-1.4431159630000001	-10.052467714729167	1.2469075952291666
O	-3.259912237	-8.087661124729166	3.9001445532291665
O	-6.574860167	-9.923647314729166	4.164792623229166
O	-9.505982877	-5.2899812847291665	5.647609073229167
O	-8.013274457	-5.223766844729167	2.1704813032291668
O	-4.890659787	-5.816303714729167	0.14028501022916648
O	-5.216793687	-8.988704444729166	-1.8588806167708336
O	-2.983512927	-9.348286704729167	-4.881042856770834
O	-5.634305187	6.436214405270833	-6.511988076770834
O	-5.765950227	3.243774495270834	-4.445531546770834
O	-9.651057827	-1.3407038947291665	-6.868978386770833
O	-8.786354707	-6.7083484147291665	-4.156360256770833
O	-7.604189017	-3.239165014729166	-3.2520053867708336
O	-8.404614937	-0.7297909847291664	-0.5224612287708336
O	-5.672825207	-1.2286573347291665	2.1078437132291663
O	-0.746752017	0.8025114172708336	6.173638313229167
O	2.416079363	2.2895294252708336	4.875076483229167
O	4.225498523	3.037700815270834	1.6591602232291665
O	6.450448383	6.034787125270833	0.9000341252291665
O	9.626966293	3.9553335652708337	0.8141100912291666
O	9.132451923	2.978341005270834	4.402402943229166
O	8.168223243	6.4707184152708335	5.442511913229167
O	11.302463193	7.8275769852708335	3.7714325832291666
O	13.528560593	5.283895415270833	5.516614743229167
O	2.546962183	14.665969885270833	-1.3051503867708336
O	8.174706273	4.7477989552708335	-3.5797602667708337
O	6.971433073	1.1978580562708336	-2.8822018767708335
O	3.6704950829999996	1.7405216952708336	-4.673931686770834
O	2.925934873	5.230772485270833	-3.2977921767708334
O	0.7760996029999999	4.5684249352708335	-0.20130795677083346
O	0.09310995999999994	6.966355525270833	2.6866079632291666
O	-2.400279147	7.147264755270833	5.542571823229166
O	-2.7313366869999998	8.949068005270833	8.874274103229167
O	-3.159593617	11.538111485270834	2.0375464132291663
O	-0.9361548580000001	9.747132775270833	-0.4719454537708335
O	-2.207795657	7.453803535270834	-3.2272844367708333
O	-0.9733421980000001	5.874950865270834	-6.443487826770833
O	-1.0430545260000001	2.0737461952708336	-6.432944046770833
O	-0.6965621660000001	-0.5280260407291664	-9.253939216770833
O	-2.144589377	1.9135682552708335	-11.845646156770833
O	2.011918183	1.6044095552708335	12.569827143229167
