16

O	2.657462895845703	27.524371579954718	7.355163537948361
O	2.264641936490481	27.46697697378455	8.658813341552106
O	2.476955493887236	26.267162114532873	9.13388941780033
O	1.384209765534184	28.365845290219315	9.020465260215175
O	1.315467199938757	29.56643393270704	8.426239477325874
O	0.1353020354977568	30.290107112313496	8.858188341950376
O	0.1159897398653888	31.70337329504783	8.451538779010024
O	1.4250333308104628	32.20374563980158	8.398330706263428
O	-0.7346597661707679	32.36477447759614	9.184750098454094
O	-1.941328540108243	31.98996978193961	9.819689893671676
O	-1.7329699571815267	30.62706737976249	10.402551136455957
O	-2.4837836734840586	30.276679224394243	11.326810957079914
O	-0.7764267908436593	29.788884895996585	9.714924925169345
O	2.168258030871452	29.774039232039694	7.435596358597753
O	3.039432668098634	28.796400430430435	7.040969232810559
O	3.729998002590163	28.752125949167777	5.967105254062151
