21

O	2.503883840458138	30.03642779904147	7.043255578581704
O	-0.18150326887993007	33.164651076086656	8.351159549324104
O	-1.9455725974389046	28.238964752133263	9.870687461706844
O	-0.5970177976494091	30.300377824715866	9.142109081729272
O	0.40873766725032157	30.694646053417948	8.253544839280675
O	1.447728263863919	29.854139730445972	7.958387746249316
O	1.36044490358901	28.575704921257028	8.503529260252655
O	0.1851171889811869	28.02613868787144	8.936401433031694
O	-0.7414410741941164	28.92503973259671	9.480951235999221
O	0.5697334994005454	32.078730061425425	7.790736301082032
O	3.7205587850253865	29.275016341969078	7.110470524146411
O	3.6241420726748954	27.856385625278932	6.638539725116541
O	4.38289128831798	27.50142931852668	5.5181990589645
O	4.911349747408044	26.217417978075524	5.38804852525231
O	4.945643780220715	25.361175456849192	6.453870200485138
O	3.925010012275294	25.53254865521071	7.382734676847634
O	3.4811562857682103	26.811183376101447	7.546674127649398
O	1.4584027796490895	32.41127322719334	6.983536238708862
O	5.41416109323485	24.079704471069206	6.239732139736773
O	-3.048859233647561	29.079961047952775	10.004378711172922
O	-2.012213276314408	27.356650487472844	10.725314007688535
