68

O	-5.224751104307692	1.527992612673076	-1.298456560846154
O	-4.9366997843076925	1.043489813603076	-0.05773550754615404
O	-6.005395674307692	1.086973908673076	0.694812331153846
O	-3.672882684307692	1.083230127173076	0.2815346111538459
O	-2.693566594307692	1.010876688973076	-0.632220216846154
O	-1.403422022307692	1.2865637596730761	-0.03006066134615404
O	-0.25781945430769215	0.983171288973076	-0.9010405118461541
O	-0.5691976043076921	-0.0942953603269241	-1.7430072408461539
O	0.826590675692308	0.873850120673076	-0.18636681184615406
O	1.2388490956923077	1.481954461673076	1.021908297153846
O	0.046923495692307915	1.5283105806730761	1.9262356491538462
O	0.25461811569230774	1.636270200673076	3.145233999153846
O	-1.2383036233076923	1.606736273673076	1.2686680291538461
O	-3.081954964307692	0.928313218673076	-1.8947825708461539
O	-4.409013104307692	0.945991200173076	-2.225021310846154
O	-4.924494424307692	1.126014613973076	-3.379965090846154
O	-7.326296554307692	10.235175419673077	-5.131446960846154
O	-7.287349964307692	9.397225279673076	-1.427936580846154
O	-6.528759684307692	5.716672039673076	-0.935457774846154
O	-7.165070244307692	5.936580819673076	2.858769989153846
O	-5.700582944307692	6.788315159673076	6.2370303091538455
O	0.2137375556923078	7.009521569673076	10.429134569153845
O	-0.9472672763076921	9.584329439673077	7.884514929153846
O	-3.0732437843076923	9.932207359673075	4.745286689153845
O	-2.3161393333076923	7.869995549673076	1.613071639153846
O	-2.971315454307692	8.971046869673076	-1.959909940846154
O	-2.7125462743076922	7.447359809673076	-5.382544060846154
O	-0.3428082443076921	9.752793649673077	-7.236488680846154
O	1.767490255692308	5.654334689673076	-10.601776630846155
O	2.447994655692308	5.240923009673076	-6.8878391908461545
O	0.9135051056923078	5.262626889673076	-3.425033660846154
O	2.0057068356923082	8.415811699673075	-1.604481380846154
O	1.9066538656923078	8.455581569673075	2.170979069153846
O	6.694047375692308	-6.809074640326924	0.570196684153846
O	5.320041505692307	-3.6435279803269243	-0.969780030846154
O	8.358289465692309	-1.843925920326924	-2.311539300846154
O	9.323483545692309	1.454879021673076	-0.714530400846154
O	10.398550145692308	3.417436579673076	-3.796569270846154
O	11.561269845692308	6.627997019673076	-2.154535490846154
O	6.896374465692307	7.763286359673076	1.6352793191538462
O	6.481160475692307	6.671606679673076	-1.967106310846154
O	5.363365775692308	3.077345859673076	-2.370343040846154
O	4.735289825692307	0.770288687673076	-5.291165150846155
O	1.1124360956923078	0.886644836673076	-6.2650433108461545
O	-4.992197314307692	-1.9227725503269242	-6.892353720846154
O	-6.7842359143076925	-3.783779350326924	-4.029265900846155
O	-6.385408004307692	-4.822928040326924	-0.39452346984615405
O	-7.422911234307692	-8.164736970326924	1.204061069153846
O	-10.226635514307691	-6.551835620326924	3.227098649153846
O	-11.946218254307691	-5.441058420326924	0.05826576235384596
O	-1.9390726853076923	-16.081206230326924	0.05222902295384596
O	3.2172458356923075	-15.939765930326924	0.287663040153846
O	-6.436406274307692	-7.237581380326923	5.9984548791538455
O	-6.260076664307692	-3.534500270326924	5.179182289153846
O	-2.4724307893076922	-3.604978370326924	4.796680409153845
O	-2.2616220303076924	-6.803355730326924	2.767762659153846
O	-2.365668289307692	-5.836494410326924	-0.9086705048461541
O	-3.126505284307692	-8.029008980326925	-3.900398510846154
O	-2.636503962307692	-7.854927840326924	-7.655629760846154
O	0.44589071569230776	-12.096574130326925	-5.581099940846155
O	-0.1754325743076921	-10.677962830326923	-2.112811830846154
O	2.1286254556923074	-8.226239460326923	-0.33292214284615407
O	2.781354335692307	-6.846292370326924	3.1452696991538462
O	2.361082945692308	-3.050446330326924	3.421287889153846
O	3.4527589856923075	-0.5992536203269241	6.1490541191538455
O	6.338955635692308	-2.848137720326924	7.275336429153846
O	8.40658284569231	-1.8367303403269242	10.337719769153846
O	7.170810995692308	1.7471095696730758	10.196874069153846
