69

O	0.8006606074999998	-0.11920794447380922	-0.010770084285714354
O	-2.4271856125	-1.8532449044738095	-1.0452491562857142
O	1.4028904874999997	1.6578555485261908	-2.9259348802857144
O	1.6472777874999998	-0.3775366244738092	-2.7472008102857144
O	0.30706165549999975	4.338109985526191	-1.1882282262857142
O	3.2463511874999997	0.3840912595261907	-4.275126900285715
O	-2.6809613525000002	3.644463485526191	-1.6156266972857143
O	-2.1189790025	1.2205343908261908	-1.1952601232857143
O	-1.1444065045000003	0.2785810285261907	-1.2848681952857144
O	0.0400753334999997	0.7575747985261907	-0.8527000158857143
O	0.13660278349999977	2.1047160435261905	-0.3840684512857143
O	-0.4824219086000002	3.1646088955261904	-0.9661962971857143
O	-1.7546278225000003	2.6472135555261906	-1.2249145062857143
O	-1.1871520975000003	-1.1884115944738094	-1.3353331902857142
O	2.0147276474999996	0.8686415085261907	0.2511481797142856
O	2.5021976075	1.0764644175261906	-1.0739335752857144
O	2.4155379774999997	2.0077088885261904	-2.0071258202857143
O	2.0086555274999998	0.6816398975261907	-3.5624822102857143
O	2.4803113275	-0.25701059447380925	-1.6380106332857143
O	0.31485441749999976	5.691097875526191	-0.7265592392857143
O	1.4205574774999998	6.665258755526191	-0.8355448685857143
O	1.7353744074999997	4.387928445526191	-1.1320677192857143
O	2.8072887074999997	5.298266165526191	-1.4094190442857144
O	-0.22120214650000025	-1.960643394473809	-1.0525005502857143
O	2.7710433974999997	6.610737795526191	-0.9812001686857144
O	-3.7300304525000003	3.0687933055261905	-2.3938216802857144
O	-3.4274168225	4.344234605526191	-0.8454002667857143
O	3.6927889275	3.662389925526191	-11.661415390285715
O	1.1685343174999998	5.660536395526191	-9.627114040285715
O	1.2163030174999998	4.742231925526191	-5.999642140285714
O	-1.3971168975000001	7.476384215526191	-5.191280990285714
O	-5.0695153825000006	8.42286703552619	-4.8319798202857145
O	-6.317937542500001	5.932358025526191	-8.225906840285715
O	-3.8520698225000003	3.1880826155261905	-7.339859130285714
O	-1.0739123355000002	1.8197426635261906	-9.448733030285714
O	1.7140783075	-0.6676797744738092	-8.968811280285713
O	1.1116982774999997	-3.3365746044738094	-11.527903890285714
O	3.4434314875	-7.586102564473809	-8.463697840285715
O	0.4017233294999998	-5.906879474473809	-6.922605150285714
O	-1.4456543675000002	-2.7726443044738094	-6.077840810285714
O	-4.1620817225	-2.003776014473809	-8.454021440285715
O	-6.9412508825	0.2969962115261907	-7.304963080285714
O	-3.6689650025000002	-6.233407534473809	3.213004629714286
O	-6.1388844225	-5.990018924473809	-6.672798560285714
O	-4.2289692925	-5.754083004473809	-3.4074774502857146
O	-1.1020723835000004	-7.3918278244738085	-2.1824825002857144
O	1.7224323674999997	-5.123250624473809	-2.6043643402857146
O	6.8976506875000005	-1.2348758544738094	-0.08803274328571431
O	6.057681687500001	1.5679471065261907	2.3668479997142855
O	3.4636725875	2.9926760455261907	4.724047879714286
O	3.6005972575	4.307556635526191	8.136347709714286
O	3.3480920774999996	7.982581085526191	7.117015329714286
O	6.5148415475	7.729128705526191	5.096489409714286
O	3.0937699975	-2.217410854473809	15.324161609714285
O	-0.8452723715000002	6.388324475526191	8.785147149714286
O	-1.3314182475000003	6.421239575526191	5.087953349714286
O	-3.2754604925	3.1583060855261906	5.0161202597142855
O	-1.0717560325000002	1.2491281744261906	7.501294189714287
O	1.5412467774999996	-0.6294610844738093	5.425132749714286
O	4.846195957499999	-2.0989395944738094	6.511101349714286
O	7.382268487499999	-4.597213684473809	5.206134149714286
O	4.9272253675	-6.685417404473809	9.861230609714285
O	2.3320144975	-3.9386209544738087	9.531094509714286
O	-1.0092011515000001	-4.297697494473809	7.7463243497142855
O	-4.3366934425	-2.5498560944738093	7.428402489714285
O	-5.311325612500001	-1.3156854444738093	4.028822139714286
O	-8.4724409525	-0.0557886044738094	2.397575619714286
O	-10.6881910525	-2.0585366344738096	4.966483679714286
O	13.2639424475	1.4472714495261907	-0.46980069528571433
