25

O	-0.34529716101244556	32.97464379717711	8.711009978021039
O	0.6301583926163219	32.72633157433046	7.75614349693923
O	0.804227045149507	31.337721752398444	7.719614284304992
O	-0.15471135046976592	29.458156365046904	9.056175705720095
O	-0.44791890959416714	28.983194356405054	10.345140008995466
O	-1.1017696467649203	29.968474245138374	11.083242827747078
O	-1.3320616204665856	31.276166936858257	10.591633448580756
O	-0.7835792863179418	31.804095928731275	9.416942637914202
O	-0.07270198243298065	30.844857738041885	8.78977079373458
O	1.4883897315389976	33.57338038199885	7.3590175026289835
O	2.1729326511808633	30.80587722840822	7.691280905269456
O	2.00997020335402	29.525046644859323	7.867557053861226
O	3.147061651097233	28.718058665109496	7.735101754262228
O	4.157759899610054	28.758467625791376	6.822861171947299
O	5.055611624828492	27.6930577855495	6.918450840952018
O	4.891110870349284	26.754490738065673	7.936173550067184
O	4.0121966958123325	26.91559257307003	8.967752588572358
O	3.412515434267855	28.131901126715317	8.930381505557005
O	5.7035673123965545	25.244268662759353	7.914268103815804
O	5.337255437628669	24.303829622442535	8.9881600765527
O	7.145262092574729	25.548028193817995	8.147211808440707
O	5.619311540364114	24.808940918400353	6.3072126903262085
O	4.769426008813266	23.874885553436474	5.985140626966343
O	4.843855054991609	23.59813029883317	4.577586434964798
O	4.8629763342330214	22.704309770784256	6.818031356381937
