28

O	-0.9411634134827784	28.140472749717933	9.423402495943217
O	-0.041377843828555916	27.310637523102052	10.235062723577782
O	-0.31354627955798064	25.868807069309028	10.291426918946447
O	-1.0036507075989138	25.5426027578404	11.57550612648095
O	-2.1157593241421724	26.444414763841976	11.94909493624413
O	-1.7072138795906697	27.873246759633048	11.789371169702232
O	-0.16676282228019068	27.80462813795194	11.61182108356385
O	2.672544509111665	28.067633283857216	8.04659286042503
O	2.3543963446117084	26.91217123882018	8.610918370209678
O	3.327841872925854	26.250495664190858	9.355150455011183
O	4.4010069454861105	26.025890049268995	8.536818593257793
O	4.780064143307855	26.83122260533239	7.446557957385737
O	3.8443914873966154	27.756951374563428	7.192048844377822
O	7.2103568343641085	25.920891547436135	7.69563094599393
O	6.10156610091952	26.05753316767447	6.672504147905813
O	5.699691401810768	24.428359080286484	6.357768573593734
O	6.731358263950644	26.531646900503205	5.454828738770593
O	-0.770494548441657	30.823983945923317	8.260735059698451
O	-0.6028090980446226	32.26694731060169	7.950821441804944
O	-1.2013727940381507	33.2850105828745	8.373504301281686
O	0.6924024291078303	32.47694280089439	7.283715948130649
O	1.462360197848292	31.454476885354364	7.5652913354985785
O	0.920393803857008	30.94239354645918	8.807492221267193
O	-0.31910446770407686	30.460214814422226	9.308938010357146
O	-0.8495591923134891	29.398152801555703	9.90182551973869
O	1.2927550046176772	29.60384147082434	8.633372210322221
O	2.3024819131668313	29.385505148887564	7.952598565846294
O	2.295297748083121	30.4316015221572	7.019667548867692
