64

O	1.6558772584175996	0.5887677189999996	0.9246858710800001
O	3.1351747084176	-1.9088705750000006	-4.10491295892
O	1.8148221584175999	0.12844713399999952	-0.6482067979199999
O	-2.4584265415824005	2.820665965	-0.9843977589199999
O	-1.8568185415824003	2.6708359949999996	-2.21476060892
O	2.7904739484175995	-1.1402046750000003	-1.17218726692
O	2.6364263384175994	-0.7271133350000005	-2.87778339892
O	-0.6548465508824005	2.0822481349999995	-2.0643918489199997
O	-0.28375465258240046	1.1266661734999996	-1.3099849689199998
O	1.4167644084175994	-0.18419784500000036	-2.75535808892
O	-0.7194969685824004	1.5132345319999996	-0.07137901591999987
O	1.0202982284175994	0.5261507799999996	-1.67739301892
O	-1.9460823015824005	2.1687809449999995	0.10531092608000014
O	-2.3306468715824002	3.3234073849999994	-3.3697540189199997
O	2.1619945484175997	11.643483585	-6.60227336892
O	4.4200190284176	8.596987924999999	-6.3411003489199995
O	2.3466953984175998	5.496019195	-5.82598723892
O	5.3697593484176	3.233075165	-6.14788230892
O	8.365979948417598	1.6632631859999996	-4.390947228919999
O	10.958673018417599	-0.9919713150000005	1.84925442108
O	10.852797118417598	2.6032329649999997	0.6907800420800001
O	9.0374513684176	4.995267664999999	-1.6232642289199999
O	5.3234934584176	5.603271725	-1.25872948892
O	3.3026912084175994	8.626070494999999	-2.10459246892
O	-0.3275333695824005	9.603002175	-2.26666681892
O	-3.3913243315824	8.901128645	2.57475883108
O	-0.5721945874624005	6.6254289449999995	1.37297355108
O	2.6906834784175997	7.923665975	2.8293157410800003
O	5.5691478984176	5.503048885	3.03687496108
O	9.0674513084176	6.701528745	3.72743128108
O	-6.0894854915824	-5.017980275	6.5892598510800005
O	-4.9910652215824	-1.6155005950000005	5.29255293108
O	-1.9677121015824004	2.0660654359999997	9.72296811108
O	0.07106092941759956	6.938710964999999	12.134124741079999
O	4.1735990984176	5.329944745	7.9124813210800005
O	0.7941671684175996	6.827278885	7.10362779108
O	-1.7233986515824005	4.3611347149999995	5.745808231080001
O	-5.362707401582401	4.528424865	4.72979941108
O	-5.4723862815824	5.1260870149999995	0.95900857108
O	-7.1576055615824	3.5864658149999995	-5.320757738919999
O	-6.0835173815824	0.3322745029999996	-6.97256919892
O	-4.0288649115824	-2.812409295	-6.3051696989199995
O	-4.8480632615824	-6.332654725	-7.51437318892
O	-1.9154082415824005	-6.364633875	-9.95092496892
O	-3.3667846515824005	-3.459171865	-11.813597358920001
O	1.8063115484175998	-10.450699115	-3.80487602892
O	-0.7981410755824004	-8.837987335	-6.08904555892
O	0.9629906084175995	-5.494867785	-5.6237384089199995
O	0.07547258741759955	-5.593801535	-1.88293991892
O	-3.5119752915824005	-6.5319326250000005	-2.1431270089199996
O	-5.5700216415824	-3.324481285	-2.44795761892
O	-9.154397371582402	-3.015800595	-3.65397087892
O	-11.908954181582402	-0.4153479550000003	-3.49002258892
O	-13.457796581582402	-4.985131955	-0.5461565389199998
O	-9.863769131582401	-6.1799397250000005	-0.7593662539199999
O	-7.1957553115824	-5.481505445	1.87286019108
O	-3.7673036015824004	-6.754993145	2.92006476108
O	-1.0365933945824004	-4.115831015	2.81163024108
O	2.5035217684175994	-4.026393435	4.29897107108
O	1.5732204584175995	-6.433995665	7.092518171080001
O	4.3513855284176	-7.643028435	9.44164632108
O	6.686560568417599	-4.821468585	8.43358624108
O	8.9110313184176	-7.638608455	7.174101801080001
O	12.186600318417598	-8.474726185	-5.436362128919999
