25

O	2.7818190872835493	29.664216686256957	7.435739373547068
O	0.08107407907218023	33.05633356989265	8.082360060342742
O	4.804227434922455	25.548962411304615	5.625422171316022
O	0.10341656362852847	27.146190649840754	10.373513751585062
O	0.42040507472485733	23.199880903910508	12.574763543693313
O	-1.9913232526940636	28.860220393661955	10.354613779499793
O	-0.4522868427284903	30.524621427756273	9.247746637651202
O	0.6249984050831582	30.66810890673515	8.355205564039638
O	1.5666374377740604	29.714345276870777	8.162890225141977
O	1.467007490800059	28.638278206886685	9.040169673150437
O	0.2801922391221555	28.379207294174115	9.721094741834415
O	-0.724038264131633	29.33252536718227	9.877318365764848
O	0.8669702819567737	31.93981403467218	7.728224338762697
O	3.898124586471271	28.815043029434268	7.5956491675218105
O	4.177396144639208	27.503943835616177	7.076829784301336
O	4.599419287161024	26.904860841315386	5.893643653333786
O	4.48422675167807	24.613652120757074	6.575323553064723
O	3.6716698186493195	25.12027505110879	7.583855374975496
O	4.061154450934583	26.42497183212609	8.003722748308796
O	1.2309642911102903	26.21716281106007	10.331260022379384
O	1.2758649144123035	25.09433574669866	11.268908633205225
O	0.07683560172652126	24.343017077312247	11.707663577167407
O	1.8302414727639666	32.168493851409195	6.976214787028194
O	-2.919612166005277	29.576494912720054	11.098184943732262
O	-2.1707321947368037	27.63591519457507	10.677961639278804
