25

O	-2.9239619288051224	30.283046208664235	10.328430453406508
O	-4.306593225565836	28.455472971319985	12.35776852266264
O	-0.5135100677966897	32.90194536809142	8.591703112913812
O	-0.22679451858705874	31.540776764090985	8.647991192271634
O	0.9243359524976402	31.252794823977702	8.032157866086925
O	1.267840756920634	32.35309417873677	7.408121781130977
O	0.46805487994630013	33.388497609792694	7.780191444733942
O	-0.6857315926904908	30.681989727629627	9.551642536103833
O	-0.19066067008666016	29.44212916956508	9.559722413521628
O	1.0546047030982415	29.147367339583948	9.01608800334874
O	1.5978224128497822	30.081837793880283	8.142096072355393
O	2.5831063406089125	29.64556085412554	7.231859838468127
O	-0.8405982622815933	28.60564924657173	10.573930055018188
O	3.7632796300328306	28.89133625560946	7.476825839974923
O	3.8815170626898396	27.54934529782297	6.909209571777756
O	4.63020871230862	27.17593804474485	5.787764028782512
O	4.81321219918823	25.809603494125895	5.480527318716873
O	4.809731314544562	24.89926781789127	6.44514226190441
O	3.9415423513632772	25.14743539883068	7.42324725576068
O	3.775664528708664	26.478316049774254	7.789170713183597
O	-0.38318357531860386	27.343152691360373	10.682895244136327
O	-0.9713499724086114	26.490744119867436	11.617533922963926
O	-2.3074010135434806	26.747610116331472	11.924600529047927
O	-2.6115587860457263	28.104961560007098	11.98518673339662
O	-2.1530233837202304	28.774180906042865	10.847865793906223
