15

O	1.199240210941956	25.931725119242778	10.592993280016266
O	1.5354474427722837	27.38576171178832	9.952111652128723
O	2.9426788176827987	27.745273396263517	9.514419512008345
O	2.1362750596945124	27.05014429418932	8.569179890270085
O	0.4467724189223993	28.661550723954782	9.917291022148135
O	-0.6810277757856911	28.944345110816887	10.739181589932787
O	-1.1989790079754197	30.191428453098442	10.917634582085212
O	-0.5567382047595862	31.188919954181706	10.22012691305431
O	0.4177215563088601	30.839032898754073	9.265242762454095
O	1.1559976062309578	31.736758549023474	8.462923188755932
O	0.6077751273637838	32.95825460726285	8.600000261426596
O	1.6953550009187885	31.147691890400296	7.360394197928126
O	0.5706041304120538	30.269676060726884	7.090635183223339
O	1.025171460927317	29.124101483630604	7.769686425721393
O	0.7288967651452558	29.566752849611035	9.06566488341275
