71

O	0.24364320879245266	-3.0058321853811325	-1.9165455973584908
O	-0.49463125920754736	-1.9579499553811326	-1.803179267358491
O	0.23480274299245268	-0.9012175553811322	-1.2749730273584912
O	1.4600214637924527	-1.3230540853811323	-1.0711598533584912
O	1.3696277137924526	-2.7650015253811326	-1.0631363443584911
O	2.5561488137924524	-3.566294165381133	-1.3447148473584911
O	2.2167062737924526	-4.9153459853811325	-1.711973177358491
O	3.1572950237924524	-5.947653505381132	-1.500850817358491
O	3.6338163537924526	-3.2619404653811324	-0.796187989358491
O	-0.23940128820754736	0.5243518678188677	-1.111840554358491
O	0.9475745727924527	1.0258688486188676	-0.45707602635849104
O	1.9156395137924527	0.39219347061886767	0.390239457641509
O	2.5974999537924526	-0.6405252453811324	-0.372979222358491
O	2.7193218337924527	1.5785620246188676	0.838399552641509
O	4.074379403792452	1.3199824636188677	1.3328938526415088
O	4.3504940737924525	-0.17468627938113235	1.167923622641509
O	1.7620624137924525	2.256503594618868	1.764834172641509
O	2.5585829337924526	2.6320980046188676	-0.251598299558491
O	9.671556443792452	-3.8315299053811325	-9.022879487358491
O	10.320383993792452	-1.4736377953811326	-6.115736917358491
O	7.980728713792453	-2.1652369553811326	-3.2009741173584914
O	9.729071983792453	0.3271347926188677	-0.9450381923584911
O	10.244601083792453	3.9884949646188677	-0.07008639635849102
O	6.782121403792453	10.316215884618869	0.883643712641509
O	8.208239813792453	8.882080924618869	-2.325554957358491
O	9.157718483792452	5.604812164618868	-4.000280647358491
O	6.522876433792453	2.8557566246188677	-4.4470870073584905
O	6.478060413792453	0.3150885566188677	-7.23509437735849
O	4.465351263792453	-2.7215286553811326	-8.104013407358492
O	3.0819540537924524	-1.9376516953811325	-11.51477033735849
O	-1.6543907162075473	-5.0058880153811325	-10.80080943735849
O	-1.2890214462075473	-2.0146758953811323	-8.50965710735849
O	1.0177254997924527	-0.19383035038113228	-6.11931965735849
O	2.2491629737924526	2.9861454846188678	-7.773201197358491
O	3.5158821137924527	5.736258654618868	-5.520104427358491
O	-9.207589126207548	10.474241094618868	0.152781666641509
O	-9.842001946207548	-2.0819787553811326	5.949480062641509
O	-8.383181696207547	0.8835609606188677	4.083502202641509
O	-6.156717616207548	0.3075168486188677	1.0709178426415091
O	-8.201291256207547	1.6677224846188676	-1.8215150873584909
O	-6.862392676207548	4.698288414618868	-3.658972277358491
O	-7.7170938962075475	3.7649191646188678	-7.251061537358491
O	-6.5725322462075475	6.9068068746188676	-9.04105248735849
O	-1.0373478462075472	7.720348634618867	-6.529652627358491
O	-2.3622851562075473	4.379701334618868	-7.739306427358491
O	-3.3713502562075472	2.0310439446188675	-4.939434787358491
O	-4.907318986207548	-1.422276585381132	-4.733162117358491
O	-2.0513905862075474	-3.9402947653811324	-4.386659857358491
O	1.3208287517924526	-8.811052155381132	-1.265218887358491
O	2.6837493537924524	-8.433378135381131	2.2801128126415087
O	2.9549951437924524	-5.890493625381133	5.086327382641509
O	2.6985327337924527	-6.628043545381132	8.81449799264151
O	6.3907344837924525	-5.934947995381132	9.420105122641509
O	7.348814483792452	-8.72985412538113	7.099521222641509
O	-10.102120646207547	-4.882721885381132	11.80401006264151
O	3.8061298237924523	-2.1983400953811323	10.76453656264151
O	5.204470673792453	-1.2034445153811322	7.363296492641509
O	1.9502653137924528	0.45855022481886765	6.369459592641509
O	-0.42269348120754735	-2.2219131553811327	7.567034942641509
O	-1.0052604262075473	-4.595673945381132	4.64412652264151
O	-2.3636296662075473	-8.136951445381131	4.779638762641509
O	-3.7973473462075473	-10.613433445381132	2.286085562641509
O	-7.780029446207548	-9.151164885381132	6.03276762264151
O	-5.512344576207547	-6.312270295381133	7.137361892641509
O	-5.653145396207547	-2.7794731353811324	5.741106362641509
O	-4.439495896207547	0.7159418046188677	6.596431762641509
O	-2.1821791162075472	2.269579284618868	3.9843021226415085
O	-1.0010444062075474	5.851269374618868	3.372114262641509
O	-4.076958636207547	7.313119654618868	5.102584372641509
O	-4.283148726207547	11.100547554618869	5.6185025926415095
O	-1.5486522162075471	11.756540054618869	3.066394252641509
