24

O	3.444781979593628	29.1670156713938	7.103544387624074
O	2.7197517370771966	28.576052385398626	8.141030978095634
O	2.8446256214127543	27.37820475159804	8.750313599049054
O	3.802333355365352	26.672540397331495	7.988384181026812
O	4.502981338643629	27.11351063196849	6.905107385300498
O	4.52042556126895	28.453942622905334	6.642144710308842
O	3.0382929141899706	30.502830804773843	7.090046686883767
O	1.4594239822723114	29.14759655860018	7.9984114296945
O	1.9135893226774556	30.514530405360144	7.638649309362894
O	0.331706372545035	28.699068315751077	8.167491332431158
O	0.8051449453174887	31.37194442643052	7.409627158577173
O	1.0248705440444505	32.70705457096409	6.997487765377352
O	2.0451245057760676	32.97161371038434	6.333156783257257
O	0.050701470826683095	33.315041614991394	7.823965440071648
O	-0.13641657776823068	31.14371797275439	8.47231327928057
O	-0.3702997541952716	32.48746333174549	8.913168921591193
O	0.1730208311267269	32.312426013489066	10.221233152502444
O	0.7134431899630135	30.941593884928224	10.48083834569243
O	-0.6151458381111613	30.371445254259296	10.54053706775347
O	-0.9920439162246152	30.364411389960736	9.271840296898388
O	-1.1742741575968585	29.386558608882055	11.66194366538722
O	-1.0935405587743852	29.274401744003743	12.484008903411214
O	1.114967716988533	28.41447304947709	11.063539461614017
O	-0.9828200757897124	27.86993971405983	10.636637868909414
