75

O	-1.2824325665957446	-0.6328259401127663	1.5346938446317022
O	-3.0259344495957445	-0.2246604801127663	0.5335837296317021
O	0.6733693004042554	-1.4910872101127663	2.518182934631702
O	-6.364652819595744	4.147196039887234	-2.9932836053682976
O	2.8481308604042552	4.040577059887234	0.6365299046317023
O	0.6877572904042557	0.6723173728872338	1.4441849646317022
O	0.10876624040425553	-0.5595026001127663	1.7759915446317023
O	-1.6799356305957445	0.2916670798872337	0.6580648346317022
O	-3.8786564995957447	0.49322273988723375	-0.12417747936829782
O	1.7571816104042557	1.3201335438872337	0.8142022846317023
O	1.6451911004042556	2.2290278698872337	-0.3881374384682978
O	2.3094831104042557	3.4113848398872335	-0.5388714813682978
O	2.2235133304042556	4.089240229887234	-1.7566787653682978
O	1.0056740504042554	4.107725049887233	-2.4388449153682976
O	0.16145486040425538	3.0934248298872338	-2.115655085368298
O	0.4810671504042554	2.149094109887234	-1.1806063663682977
O	-3.5394499995957447	1.2047702452872338	-1.2408781983682977
O	-4.3815799695957445	2.041090256887234	-1.9042594553682977
O	-5.705915529595744	1.7580164358872339	-1.7663892853682979
O	-6.061441549595745	1.0657096730872337	-0.6653309433682978
O	-5.135428069595744	0.7603291658872338	0.28823039763170216
O	2.9193799704042553	0.8006951928872337	0.9071377846317021
O	-7.056452979595745	1.9060707538872337	-3.996536335368298
O	-8.284618629595744	2.5172931898872335	-2.073897355368298
O	3.593925620404255	3.2578806798872337	1.4290778946317022
O	3.4338663104042557	5.131934659887234	0.40390415263170215
O	-0.6820732655957445	1.6837963878872337	0.8715839546317024
O	-6.9274430695957445	2.570685199887234	-2.6805249253682977
O	-8.096431779595745	7.567699779887234	7.124085454631702
O	-5.683452049595745	8.874843109887234	4.499843974631702
O	-4.831090479595744	6.107978699887234	1.9909317546317022
O	-2.8680574395957446	8.437985629887233	-0.2558212443682978
O	0.3939528204042555	10.288891159887234	-0.8041688903682978
O	7.542937770404254	9.819573329887232	-0.3542373920582978
O	5.133978190404255	10.926655409887234	2.372888674631702
O	1.4998315004042553	10.594403479887234	3.435479524631702
O	0.03918275040425545	7.141806309887234	4.099215644631702
O	-2.748234239595744	6.313824429887234	6.517096284631703
O	-4.815099519595744	3.263441519887234	7.299942204631702
O	-4.230725199595744	2.8310347798872337	11.046169884631702
O	-4.920224139595744	-2.793494550112766	10.914415584631703
O	-1.9311981915957446	-1.4682980101127663	8.967818744631701
O	-0.7529469955957445	1.0841040292872337	6.4106181446317025
O	1.2544443504042553	3.7667727298872338	8.221349784631702
O	3.6091517304042555	5.814309129887234	6.088272744631702
O	5.884684010404255	-8.224634840112767	-1.5751701553682977
O	3.885285070404256	-6.046325800112766	0.8598355646317022
O	7.208422530404254	-4.206395160112766	6.1022732846317025
O	4.359175130404255	0.1920816368872338	9.200246704631702
O	3.158755460404256	-2.051860750112766	6.347160174631703
O	0.7721164704042556	-4.936539990112766	6.085940794631703
O	-2.5511851495957445	-3.466065180112766	4.859905164631702
O	-7.699433139595744	-2.8600105801127658	0.6123826246317021
O	-7.263160859595745	-2.086185160112766	-2.9973762653682976
O	-4.598314159595745	-1.1782895801127664	-5.546730925368298
O	-4.472814929595744	-2.1493477301127664	-9.180182525368298
O	-5.276731419595745	1.3818232568872337	-10.387574215368298
O	-8.612861569595745	1.2299839977872338	-8.748783085368299
O	-1.2744244475957445	-10.959346250112766	-11.708126715368298
O	-0.6603646155957446	0.5728582688872338	-10.716686415368297
O	-0.9785656515957445	2.6579558898872335	-7.573109695368298
O	1.7004109104042553	0.6076447348872337	-5.795602785368298
O	0.5022988004042555	-2.832642360112766	-6.8248650453682975
O	-1.9079567335957446	-4.022800920112766	-4.118938705368298
O	-4.499024369595745	-6.795593900112766	-4.396909935368297
O	-6.591343329595745	-8.814202220112767	-1.9653320353682977
O	-2.9826680095957445	-12.243512150112768	-4.704661625368297
O	-1.1591132705957445	-9.148136050112766	-5.920890245368298
O	1.8189677104042556	-7.574700220112766	-4.155994855368298
O	4.5655587304042555	-5.035290690112766	-4.7879849053682975
O	4.538957730404256	-1.9894082001127662	-2.500273205368298
O	7.1896054404042555	0.6618504698872337	-1.8590628053682978
O	10.048796160404255	-1.6831884401127664	-2.689444935368298
O	13.634108860404256	-0.32677258011276633	-2.7491299053682976
O	12.664799560404255	2.7555195298872337	-0.7388142023682978
