24

O	1.4373425940829763	28.641237756668662	8.373464365306347
O	0.29912467754093797	27.97073345641665	8.737056421972026
O	-0.7466899263326536	28.76414269330541	9.214505659544624
O	-0.64470600965651	30.16916353367234	9.024352153558432
O	0.37659360395822317	30.72269257809427	8.260133383925805
O	1.4569162742282522	29.93466249807541	7.866447393523575
O	2.6216966907689976	30.474944407059546	7.280381207132376
O	-1.9518232438855612	27.98997542532654	9.44603983518759
O	-3.065693528285712	28.835270960225895	9.59629883868835
O	-2.026020405974798	27.081599911600996	10.280620866569793
O	0.4717625722845369	32.11257823994885	7.835364497607436
O	-0.34856493456227877	33.15673027791312	8.388540595506115
O	1.4017734424216561	32.53982865210387	7.112116995891898
O	3.8825708767591665	29.855573367160346	7.560522153216442
O	5.276738174233744	26.418541630757304	5.842842114914514
O	4.44235366917172	26.312520478428247	6.953465635044088
O	3.704087089420022	27.405179288715885	7.197607807940449
O	4.099579215126964	28.61506781266702	6.727357486308424
O	5.192044046872805	28.69162794133879	5.868229636802384
O	5.322286542002718	27.53853956243965	5.099905656849188
O	6.330952377753606	25.022128696929858	5.657504109478269
O	7.354373241835242	25.296325586500515	4.645175728375134
O	5.427280832296523	23.88662186932203	5.376642994993144
O	6.846907908409786	24.720201564769177	7.2363807916752645
