71

O	-0.14567983208599933	0.658808168856	-0.4632943488399994
O	-0.9881586790859993	0.20870363485600008	-1.4160692128399996
O	-1.9396466500859995	1.0317557148560002	-1.8360618528399995
O	-1.6963630600859991	2.3583151338560002	-1.7902479928399995
O	-0.47930647468599935	2.371482288856	-0.6235852858399995
O	1.1406200199140009	0.3481772448560001	0.1816007081600005
O	-1.1631430060859993	-1.2180893451439998	-1.2934447168399994
O	-2.4203064800859995	3.5238567348560004	-2.0742336228399996
O	1.5441721399140005	-0.8188858451439998	0.3590404821600005
O	2.7048911099140005	4.303411644856	0.5062266041600005
O	2.9897013499140006	3.282455474856	1.3567766271600004
O	2.7300056699140005	1.980533679856	1.3972007671600006
O	2.1692229399140004	1.4013037444860001	0.31866917616000057
O	1.8516578699140007	2.4901781548560002	-0.5962349498399995
O	2.0425508599140008	3.8280219048560005	-0.5809230128399994
O	-0.15906628708599935	5.835322754856	-0.11150161483999946
O	-1.1400238400859992	4.779294894856	-0.3693157249399994
O	-1.9104914500859995	4.756520644856	-1.6239048228399993
O	-1.5961343200859992	5.866949434856	-2.4855153128399996
O	-1.1245047040859992	7.097600474856	-1.8577675528399995
O	-0.11305121808599933	7.121081084856	-0.7933266178399995
O	2.3087105199140003	6.771067964856	-11.01282483284
O	4.4544085499140005	7.052448884856	-7.876317202839999
O	2.4297131399140004	6.315696734856	-4.823916622839999
O	5.1274174599140006	7.2380834748559995	-2.3624585128399995
O	8.449416049914001	6.178900104856	-0.8189420958399994
O	12.003297769914	0.4789201298560001	2.2428317471600003
O	11.721708669914001	1.491555388056	-1.3851004628399997
O	9.611075869914002	3.351895564856	-3.9432928728399994
O	5.988262619914001	2.330775679856	-4.526823682839999
O	4.0182089299140005	2.6874959648559997	-7.7317454228399995
O	0.4121748239140006	2.237100821856	-8.72459145284
O	0.6753809499140006	-0.27236774514399986	-11.54868063284
O	-4.433165070085999	-2.547157305144	-10.60018603284
O	-1.8837331700859994	-2.992597705144	-7.819273042839999
O	0.6637799799140006	-1.2044035751439999	-5.563593152839999
O	4.124863779914	-2.218518505144	-6.691018572839999
O	6.9422592599140005	-1.849969405144	-4.198878662839999
O	-4.246977450085999	-6.598367685144001	6.2907319071600005
O	-3.2974379500859996	-5.3609034051440005	2.8424913271600003
O	-2.9472599900859993	-8.534027805144	0.7989615571600005
O	0.4872159109140006	-9.412991025143999	-0.5377012888399995
O	-0.43349660578599936	-10.693457225144	-3.9966302628399997
O	2.9769535999140007	-11.789797625143999	-5.233959832839999
O	6.341934559914001	-6.882643965144001	-3.7991819328399994
O	2.9118128399140004	-6.704101075144	-5.409100182839999
O	0.1669379799140006	-5.559602015144	-3.0319961828399995
O	-3.6032234100859997	-5.1815155051440005	-3.3548287228399998
O	-4.238845160085999	-1.4616968551440002	-4.135397362839999
O	-6.932830530085999	4.524224974856	-2.9974508528399997
O	-6.176586410085999	6.479452224856	0.16539171816000053
O	-4.347979850085999	6.346823974856	3.4854380971600003
O	-5.351694410085999	7.548902344856	6.8951167171600005
O	-2.8911625700859993	10.463897444856	6.864525027160001
O	-4.546603810085999	11.922918874856	3.8224923171600005
O	-1.1583657040859994	6.915444434856	9.48038821716
O	0.6978524199140007	6.635042264856	6.183639137160001
O	0.5199239919140006	2.8109585848560004	6.272421067160001
O	-3.0871675300859995	2.4940143948560003	7.284779997160001
O	-5.131442510085999	2.294290912856	4.075985137160001
O	-8.834370510085998	2.8853417548560003	3.6161363171600005
O	-11.465873630085998	2.161909933856	0.9911390271600006
O	-12.643578230085998	-0.7492629151439998	5.693915197160001
O	-9.161067980085999	0.10048223485599994	6.945077977160001
O	-6.091931150085999	-2.0968889351440003	6.453185317160001
O	-2.5717560400859996	-2.5163776751439997	7.82616512716
O	0.1641829469140007	-2.165197855144	5.229257577160001
O	3.8775700299140006	-2.9795387851440003	5.193813457160001
O	3.3501880999140004	-5.857414885144	7.83591623716
O	6.416246809914001	-7.668251325143999	9.22868721716
O	8.635052109914001	-6.4205942651440004	6.405402457160001
