22

O	-2.7686912910430443	30.855360414365713	11.303465951682744
O	-0.6512673348390111	28.667586860639318	10.819250894592805
O	-1.4877184210947012	27.626503941339195	10.521981173248662
O	-1.069658355112886	26.293309771170513	10.450145294257478
O	-0.03983791042609194	25.954236336083962	11.286113975018175
O	0.9521733022587808	26.882200575894345	11.445723768961056
O	0.6103643289467819	28.217728896744756	11.245816811585563
O	-1.4754511732621887	30.987599029247853	10.147589603260464
O	-1.2705881874279874	32.112496859953445	9.337405790872833
O	-0.12036565461224158	32.179241784536586	8.547371129243668
O	0.6726529708598925	31.03548562947242	8.405277141389803
O	0.18161210380574225	29.91906634320087	8.961130355907901
O	-0.5932239629938071	29.929706278915596	10.061242366948553
O	0.43878788656942797	33.07041229500901	7.709860820717569
O	1.4709552038476628	32.57324443682487	7.073980861630806
O	1.7477819582551346	31.346860690864553	7.58171983070324
O	2.6669411582938185	30.495771512118214	6.947141462438925
O	3.0191347669255997	29.184290945411515	7.296775532926441
O	4.259183187568095	28.49159075782805	6.819377356004489
O	3.9847015830569736	26.995574742153607	6.9152145407156205
O	3.401339111170063	26.63128849035119	8.27491931986905
O	2.476030612983489	28.707496739830482	8.312013553205475
