29

O	1.5535151311299773	31.61881899735196	7.647251325516753
O	2.6811124480104707	29.951332962615737	6.835875837153783
O	0.13494507379505907	33.47811614642713	8.028348071286112
O	3.2819809301582787	23.57306782292611	8.683530998909092
O	-0.3735400529847721	31.26842432818927	8.793837777400777
O	0.46415745874742004	32.21795891958775	8.206221638063793
O	1.6515137976807464	30.31869622546471	7.833077245517682
O	3.573248071382093	29.131407185106582	7.355619797906233
O	-0.8633183134207393	30.961952768749647	10.062883456398225
O	-0.46801530442525463	29.68199429458213	10.671950282745513
O	-1.2007936284610123	29.27264932574221	11.714872289699773
O	-1.2973528462864101	27.945247328244758	11.892589690395802
O	-0.2873406214525547	27.099893728979485	11.436253964008717
O	0.34498222849047777	27.511619825905697	10.271052837808895
O	0.581877322620661	28.853465896047606	10.188597317859745
O	4.049850225703349	28.154743646247017	6.471709763936454
O	4.2211616532141845	26.85472973092257	6.930887365432548
O	3.806043028195824	26.412704087886112	8.165614653202164
O	3.658060721754556	27.38414580507483	9.08651063825097
O	3.588189266219494	28.65456678590281	8.616361669936994
O	-0.6705853466960838	25.752421057677207	11.478085281524066
O	0.32437394451525936	24.918244493090782	10.978381972176136
O	1.0618797563095543	25.363577863706105	9.926892773373226
O	0.5758001486955284	26.519273573497177	9.312911733806096
O	-1.9376966568249079	31.55613322311345	10.401828696046046
O	5.516744283121767	24.47765808875087	8.050725484299885
O	4.207085751065081	24.75614294580285	10.247438816663102
O	0.11111483496248815	29.662487372959923	8.160736190557344
O	4.324884655701395	24.881317571764864	8.801651448670496
