68

O	1.2137938864522722	2.1652201629681818	-0.831845458704545
O	0.28783721645227245	1.151312960968182	-1.056922013704545
O	0.8470141764522723	-0.06456029303181793	-0.9558520257045449
O	2.1526142364522727	0.18063101086818206	-1.0575596027045449
O	2.4036893964522728	1.5009109829681822	-0.8533285707045449
O	-1.0199440420477277	1.266345792968182	-0.8700846977045449
O	-1.8241846385477276	0.20261462096818209	-0.8441715847045449
O	-1.2393727565477277	-1.057669447031818	-0.7969473137045449
O	0.14192027645227245	-1.231113847031818	-0.9036512897045449
O	0.7664378864522723	-2.476963187031818	-1.119620432704545
O	-3.2056708435477272	0.6041231059681821	-0.7377335097045449
O	0.5302627864522724	-3.734335097031818	-0.519425200004545
O	0.3588355364522724	-4.930878687031818	-1.323897837704545
O	1.2861899664522725	-5.735146897031818	-1.9220192827045448
O	0.9386046264522723	-6.973554687031818	-2.533155862704545
O	-0.23915867754772768	-7.555317727031818	-2.393237922704545
O	-1.1835670015477278	-6.815370617031818	-1.801780882704545
O	-0.8815740665477276	-5.4958098270318185	-1.355627826704545
O	-3.7493012535477277	1.1021774729681821	0.46089195729545507
O	-5.153507153547728	0.9773390109681821	0.4521050772954551
O	-5.781773233547728	1.629725662968182	-0.5741429299045449
O	-5.042966513547728	1.6766270929681821	-1.7340725527045449
O	-3.6740890135477278	1.4239513229681822	-1.7678917027045449
O	-2.819879403547728	2.274197882968182	-2.460369872704545
O	-0.6201991265477276	-6.101066307031818	-11.274420152704545
O	-3.697593423547728	-5.014596787031818	-9.255295252704546
O	-2.8876063335477276	-4.330357297031818	-5.567219412704545
O	-6.4001695835477275	-3.8504211370318178	-4.412470102704545
O	-9.184037243547728	-1.4003125070318179	-4.343616592704545
O	-10.964472653547727	5.425144282968182	-3.3662072527045446
O	-9.783572263547727	3.778900332968182	-6.537411302704545
O	-7.8587205635477275	0.8506016299681821	-7.892083272704545
O	-4.213367433547727	0.3913028349681821	-6.916311022704544
O	-1.4953255295477277	-1.2900035170318178	-9.003740672704545
O	2.0699766564522726	-2.318047087031818	-8.459862132704545
O	3.949240166452272	-0.566349429031818	-11.170640452704546
O	8.770309626452272	-0.10286100903181794	-8.224150242704544
O	5.764573916452272	1.691811202968182	-6.7782949327045445
O	2.126314496452272	1.462068032968182	-5.804929142704545
O	0.014744216452272418	3.4307693629681824	-8.335258302704545
O	-3.422048223547728	4.560815242968181	-7.178418352704544
O	3.8751024464522725	5.792908442968182	3.233070987295455
O	3.4915197864522725	9.980976662968182	-1.613048682704545
O	2.3026311564522723	7.3036383129681814	-6.838107262704544
O	3.3041501164522717	5.830181902968182	-3.5168168727045446
O	6.421732606452272	4.149110702968182	-2.178334532704545
O	5.833323946452272	0.33513830046818205	-2.430648922704545
O	5.532757526452272	-5.494543167031818	0.35232842629545513
O	2.7696822164522725	-6.477357097031818	2.978981907295455
O	-0.19928021554772768	-5.043837287031818	4.920078047295456
O	-1.1306602466477276	-5.6562985570318185	8.640533627295454
O	-4.391401103547728	-7.457236487031818	7.679786447295455
O	-2.4318914335477277	-10.081230707031818	5.931757687295455
O	3.953035046452272	-1.483548327031818	15.695284747295455
O	-5.376518343547728	-3.119104397031818	8.918094757295455
O	-5.514252003547728	-3.0568458170318182	5.113999037295455
O	-3.8533488135477274	0.33953728386818205	5.080317427295455
O	-1.0995578923477276	-0.3048535900318179	7.5865639272954555
O	1.9038649864522725	-1.5229907770318178	5.575021297295455
O	4.941668706452272	-3.3761652670318183	6.924314057295455
O	8.495566176452273	-4.066183687031818	5.728958257295456
O	8.746938286452274	-0.8179263570318178	10.253198247295455
O	5.026705306452272	-0.19181980803181792	9.836263647295455
O	3.542551716452272	2.7060255629681818	7.881907117295456
O	0.24614704645227237	4.5563831629681815	7.5324918372954555
O	-1.2037716245477277	4.453478952968182	3.9804416272954555
O	-3.9468569635477273	6.5593719229681815	2.417926517295455
O	-3.407885133547728	9.525792272968182	4.835965237295455
