72

O	-1.6286241502500003	-1.6817489435227275	0.28253991383181853
O	-1.0593482052500003	-2.8253716235227273	0.1905347738318186
O	0.5558688097499997	0.8844779954772725	-1.2670469106681814
O	-2.22473534025	7.511355056477273	-2.8174039261681814
O	-0.04525409725000029	-2.7373936535227275	-0.7805358361681813
O	-0.13910952225000028	-1.6160653335227273	-1.4139537577681813
O	-1.2151013092500003	-0.9240306435227275	-0.7950362521681814
O	1.2174557397499997	-3.382394993522727	-1.1592903991681813
O	2.1678650297499997	-2.2130359035227274	-1.2085376171681814
O	2.0834447497499995	-0.9317116335227276	-1.9380796421681814
O	0.7292722797499998	-0.8792492535227274	-2.4200262961681815
O	2.8509913897499994	-1.3416314635227276	-3.218621026168181
O	-0.5902388432500003	0.38802339347727244	-0.6686129131681814
O	0.6503486597499997	1.7502458754772725	-2.3172610061681813
O	-0.3486308312500003	2.8872667464772723	-2.0747276631681815
O	-1.7074611902500003	3.1620195464772722	-2.2001092481681814
O	-2.42181954025	4.008372566477273	-1.3569404955681814
O	-1.8302971502500003	5.238108906477272	-1.3730100054681813
O	-0.4675772819500003	5.250676486477273	-1.4599048441681814
O	0.1433603937499997	4.142705666477273	-1.8433690791681814
O	4.15420863975	-1.7301610135227274	-2.7742643761681816
O	2.1303418697499996	-2.5881089435227276	-3.5499136461681813
O	3.0052126897499996	-0.13874320352272762	-4.025732336168182
O	3.78150317975	0.9032059724772725	-3.3056083661681814
O	-1.5914620802500004	0.8691995154772725	-1.1091588311681815
O	-3.9414071502500003	6.806280746477273	-1.0365799701681815
O	-1.6901779702500004	7.661049956477273	-0.3722670071681814
O	-2.50849759025	6.833433246477273	-1.2885874326681814
O	-7.85547786025	2.6686756364772726	-9.800175446168181
O	-4.09095234025	3.073783386477272	-10.153469226168182
O	-2.4608036002500002	3.2897735364772727	-6.741118406168182
O	0.9665693497499996	4.025959296477272	-8.113342216168181
O	4.03588793975	2.7825679064772726	-9.797490746168181
O	2.14380391975	-0.6730319835227274	-11.730941266168182
O	-0.1610462262500003	-1.1923545435227274	-8.775848336168181
O	-3.9184179302500004	-1.0898971135227276	-8.744363206168181
O	-6.54467135025	-1.0746770235227274	-6.075341766168181
O	-8.74483409025	-4.026318853522727	-7.108285846168181
O	-10.410609080250001	-5.195382033522727	-1.8061212161681814
O	-6.70710171025	-5.628545003522727	-2.4755647561681817
O	-3.6122406702500003	-4.055525473522727	-3.9859497161681814
O	-2.7306504302500003	-5.743326113522727	-7.248855466168181
O	0.8286967397499996	-5.288985353522727	-8.431040736168182
O	4.29335855975	-6.211027323522727	7.296343103831818
O	1.8017823697499997	-5.704879083522727	4.459494793831818
O	1.1595623797499996	-10.899577213522727	0.6004869738318186
O	-1.8993625102500002	-9.582739913522728	-4.462071896168181
O	-1.3621108912500002	-7.570767683522727	-1.2745759417681815
O	-3.59995183025	-6.626018113522727	1.6540120338318187
O	-4.86531660025	-3.0738350735227273	0.9411077638318186
O	-5.35512055025	3.583480676477272	1.9936633038318188
O	-2.4972612402500003	5.670191066477273	2.675948623831818
O	1.2239910397499996	5.822972156477273	2.7162385438318184
O	3.5077760097499997	7.7938940564772725	5.010855123831818
O	4.57651016975	10.152366446477272	2.2158137138318184
O	1.0489255297499998	11.351717386477272	1.8032031638318184
O	5.36133142975	4.566328836477273	13.979631833831819
O	7.90837762975	6.852974376477273	2.925249943831818
O	6.11871397975	5.644342586477273	-0.16523580616818134
O	6.24889508975	1.9828441684772726	0.9108327238318188
O	5.34897650975	2.5508031764772725	4.597016163831818
O	1.5488357197499996	2.1686332764772724	4.788021343831819
O	-0.7855077642500004	3.3450646564772724	7.542119693831818
O	-4.36242483025	2.6517139564772725	8.565948383831818
O	-0.7993282782500003	0.8577741324772725	12.624369033831819
O	2.0220858797499996	1.2748684234772725	10.116324333831818
O	3.31416546975	-1.4939014135227275	7.873172853831818
O	6.31643951975	-2.286285613522727	5.701495023831819
O	5.49857941975	-2.8485545235227274	2.062240073831819
O	7.44951806975	-4.371861093522727	-0.8270430191681815
O	9.56033886975	-6.523672943522727	1.5342654538318186
O	-9.51993181025	9.050434346477271	3.128981013831819
