21

O	-1.9033758214327114	31.59333758275056	10.30651279581704
O	3.001374631718419	28.98821253561598	7.449107150594884
O	1.8261720144933364	32.34394925932589	6.779618748119468
O	1.8998724879027342	31.014869416980762	7.276222893316879
O	3.9554836221409753	27.909631445033476	7.133113699791036
O	-2.457400406981823	30.381933890767105	9.795559703745747
O	-2.1089287338839506	29.50413961116232	10.948765218670417
O	3.806035699598435	26.83756744472848	8.159992644637649
O	1.3015247577951201	30.730820195875218	8.516535061006975
O	-0.048466075897050764	31.19969506524875	8.57340974444637
O	2.920511697740019	26.77482336569417	9.313962783348146
O	-0.35899337319351776	29.816175420672497	11.046213555125867
O	-0.2649636413308665	32.631706750022225	8.095267189768467
O	-0.49062817856816343	31.239376930573464	9.955164095900287
O	1.728068936157391	27.773546581932724	9.493272382349712
O	0.9779034744198838	33.18514202291078	7.556114736989622
O	-2.46438403519005	32.84509943863759	9.727936474865354
O	2.684177528959415	28.86125865617497	8.810850905959668
O	-3.030537122635341	30.113469926049117	11.959983059910241
O	3.0811009954957607	30.29417218586508	6.909808592931408
O	4.7105409942715015	25.86785254581511	7.8806331048097755
