21

O	0.19793093704984469	31.158153455146696	8.890367780588347
O	0.4971827945749374	31.902631733873278	7.805773359197517
O	1.6465293860064611	31.660043407900314	7.189907123826096
O	2.1444949447639194	30.407121233099808	7.24702133618646
O	1.342383503846272	29.858205281348198	8.624631764501556
O	-0.9233328430770863	30.808508065139687	9.777759549406191
O	-0.08032047267714085	33.21889458798072	7.929614243812693
O	3.306939593844882	29.765629597892037	6.799316012506996
O	-1.8381317620390416	31.60857963256254	10.059546468658286
O	-0.10520549352073096	26.6538685567612	10.293359558750065
O	-0.7255951140502109	27.443593950785665	11.208976419815555
O	-1.1817499580015924	28.690765562109448	11.23268396817369
O	-1.2071793635584511	29.389807030759904	10.082071369807057
O	-0.5353741085999641	28.554074862609554	9.095271462255678
O	0.006796864491732585	27.316227066324608	9.112122504632998
O	2.9748455505626588	26.780288374144476	9.098413798920374
O	3.196074597069738	28.16735775267572	8.684847691298996
O	3.605055546767267	28.486679889679888	7.306841608331542
O	3.770367882779748	27.310054017942786	6.492919911334992
O	4.130665842024526	26.066479908834218	7.167243678412266
O	3.4873848753212715	25.60705002786305	8.404877622613597
