69

O	-3.5711867266046506	-1.0707899701860466	1.0990355946976744
O	-4.583791276604651	-1.3102379501860466	0.1525258186976744
O	-2.277994340604651	1.9628761498139533	0.2274595146976744
O	-1.8529711956046506	3.2689026198139537	0.5125139996976744
O	-2.3913604676046507	4.349514909813953	-0.2369949763023256
O	-3.1481191466046505	4.140843499813953	-1.3490179903023256
O	-3.7099125866046503	2.8687624998139536	-1.3094942303023256
O	-3.1854644466046507	1.7645856778139533	-0.7315258753023256
O	-2.8979553366046504	0.5702282898139535	-1.5425134353023258
O	-5.701491646604651	-0.5283519701860465	-0.2881607333023256
O	-6.4685215366046505	-1.4210337301860463	-1.2123868043023256
O	-6.618175346604651	-2.8443846201860463	-0.8137195543023257
O	-5.323915576604651	-3.501498710186046	-0.36175707040232563
O	-4.31263398660465	-2.4161572301860463	-0.7861205093023256
O	-4.973226236604651	2.6601164098139534	-1.7807511453023257
O	-0.9445633846046506	-1.5392622401860465	2.078174274697674
O	0.4854588933953494	-1.8840282001860467	2.335103474697674
O	0.9439949633953495	-3.0430334701860464	2.5348815646976743
O	1.3485825333953494	-0.7243853601860467	2.0207187246976743
O	0.6811927333953494	0.12265963581395334	1.2830002846976742
O	-0.13030479660465066	-0.8056395001860467	0.4906279926976744
O	-1.2844293116046506	-1.5572349101860463	0.9384991746976743
O	-2.5234748916046508	-1.8127969901860466	0.5847181356976745
O	-0.9984424026046506	0.09492978481395342	-0.04807253330232558
O	-1.1043198286046505	1.2134360678139533	0.42721994169767435
O	0.20372481339534954	1.4001774998139533	0.9191689246976744
O	-5.701806106604651	7.192301539813953	8.679677384697674
O	-7.66072909660465	4.5516221198139535	6.771993084697674
O	-5.879287566604651	3.4839770798139535	3.6324809046976743
O	-8.59129988660465	1.3877524228139535	2.2689066246976743
O	-10.41982354660465	-1.8030559501860464	2.5562457946976744
O	-9.158792756604651	-2.7297292601860463	6.598671134697675
O	-5.763730326604651	-1.1109847301860465	5.995212194697674
O	-4.4053763066046505	1.8694668888139534	7.9105218746976735
O	-1.3978342096046505	4.085201899813954	7.649328594697675
O	0.25305354339534936	3.8141874098139534	11.012560124697675
O	5.474739043395349	4.660544339813954	8.981665184697674
O	3.7255897133953493	1.5305848668139532	7.766642774697674
O	0.5767903233953493	0.10011838581395338	6.330622904697674
O	-1.3148877826046506	-1.8966173501860464	8.950673714697674
O	-3.7811899166046503	-4.480663210186047	7.673010064697674
O	7.020487293395349	-7.1021621601860465	-3.7087228453023258
O	5.663172863395349	-4.8958202601860465	-0.8986051843023256
O	5.899092593395349	-7.857555160186047	4.894182054697675
O	2.513890273395349	-4.825768680186047	8.993473044697675
O	3.746149093395349	-3.8240919701860467	5.550759204697674
O	6.243946313395349	-1.3695985201860466	4.1598706546976745
O	4.270499953395349	1.8041064078139533	3.2197379746976744
O	2.553010823395349	6.616724729813953	-0.9966876923023256
O	0.4713823333953495	5.764167289813953	-4.115379065302325
O	-1.1019883626046507	2.9916426198139536	-6.180749905302326
O	-1.3242721176046506	2.4659490998139533	-9.897305965302326
O	-5.08249452660465	3.1494063698139536	-10.040703685302326
O	-4.51994628660465	6.653915289813953	-8.720160765302326
O	-4.278091746604651	-1.5201852701860465	-10.199301335302327
O	-5.32507396660465	-0.9603390801860466	-6.613221285302326
O	-2.7280085966046506	-3.257836810186047	-5.203326375302326
O	0.13403093339534933	-2.2425838201860464	-7.421607495302325
O	2.0481858133953494	0.4047241998139534	-5.451615595302326
O	4.520936683395349	2.9721667098139535	-6.715542585302326
O	7.144362293395349	5.287694389813953	-5.255374085302326
O	9.61666506339535	1.4722970048139534	-8.626584895302326
O	6.357819313395349	-0.4695680501860465	-8.628052955302326
O	5.447574933395349	-3.2677335301860464	-6.226440895302326
O	2.9553807433953496	-6.090605700186047	-5.839822705302326
O	0.7812917533953494	-5.893616250186047	-2.7299474553023257
O	-1.3207729466046505	-8.575877980186046	-1.0304272113023256
O	0.6781936833953492	-11.384649510186048	-2.4288719053023256
O	1.6591606733953495	13.300492189813953	-2.6677834053023255
