76

O	-0.568222614002223	-0.08237685442444453	3.348172014267111
O	-1.632452632002223	-0.47907671442444455	5.702168334267111
O	-2.498084472002223	-0.1452876344244447	7.969160514267111
O	-0.346373331002223	2.277954335575555	4.047015024267111
O	0.2989439879977771	1.3139098045755553	3.2505368842671114
O	-0.773985629002223	3.3680700755755555	3.096962254267111
O	0.15356484799777692	3.3458309455755555	2.0422948242671115
O	-2.1323350560022227	3.0188447755755554	2.562925994267111
O	-3.152881582002223	3.8318600655755555	3.0165903442671116
O	-1.9691934880022228	3.0170186555755554	1.0732114562671113
O	-2.575885842002223	4.1986877655755555	0.6188107457671111
O	-0.49524591400222295	3.025585365575555	0.8991447382671112
O	0.669349057997777	2.3387646955755557	-4.013320665732889
O	-0.20989384500222297	-1.1932759244244444	2.4414194542671113
O	-2.427276502002223	-1.7381588644244448	5.754161804267111
O	-3.506340832002223	0.6821911805755554	7.2644832742671115
O	0.308915547997777	3.4662200355755552	-3.3524074057328885
O	-2.148840152002223	0.32172078657555536	3.105219444267111
O	-2.652492512002223	0.7667691155755554	5.247614274267112
O	-2.724470022002223	-1.7939267144244444	7.891549704267112
O	0.029982877997777102	3.4885963855755553	-2.0486648757328885
O	-0.276868561002223	-0.6799459844244446	4.852539454267111
O	-0.9906997920022229	-0.025030884424444677	7.185385744267111
O	-2.078359820002223	0.6321544315755554	9.32448251426711
O	0.16584379799777693	2.3680028155755553	-1.3383671257328889
O	0.593652977997777	1.2413887855755554	-1.987736085732889
O	0.7887875479977771	1.2029287268755553	-3.337860165732889
O	1.152486997997777	0.0218108555755554	-3.990673575732888
O	0.755013517997777	0.2594499545755554	-1.1089815857328889
O	0.44904600799777694	0.8126850745755554	0.07386460026711117
O	0.06932588799777695	2.0855613135755555	-0.010055129732888801
O	6.919840827997778	11.122590205575555	-0.34429745473288886
O	5.461399597997778	9.085072925575556	2.4988930542671115
O	2.332725157997777	7.250053935575556	1.3316339882671113
O	1.565779167997777	6.068613105575555	4.814514604267111
O	2.404392717997777	3.5641383955755552	7.536683044267112
O	3.7423841279977768	-3.3759222944244445	8.810574384267111
O	6.286674017997777	-0.6714239744244446	7.998213904267112
O	6.472243397997778	2.7008414255755557	6.307396434267112
O	5.545284667997777	3.0836622355755554	2.6388564742671115
O	6.875475787997777	5.611790925575555	0.24250776226711118
O	6.189201917997776	6.701267315575555	-3.308952215732889
O	6.392608547997778	2.5472683755755554	-7.407281695732888
O	5.325777387997777	2.1344263085755553	-3.8193252357328884
O	8.204420507997778	1.1113490996755555	-1.6404462657328887
O	7.440167977997778	-0.6367573444244445	1.6070438542671113
O	10.147152017997778	-1.0175158744244448	4.234513114267111
O	-1.731202565002223	-4.898783034424445	-6.487171995732888
O	11.850681017997777	-4.010077364424445	1.0095802202671111
O	8.770133107997777	-4.726861804424445	-1.0630293757328888
O	8.310785777997777	-2.8893298844244444	-4.3399984257328885
O	4.702799887997777	-2.653443404424445	-5.453530035732888
O	2.886020617997777	-1.2506120444244444	-8.47166923573289
O	1.753218837997777	2.276180755575555	-7.563577175732889
O	-2.824917942002223	7.055404335575556	-6.750632675732889
O	-5.7075152520022225	6.7286701255755546	-4.298609315732889
O	-7.1833423720022225	4.365218565575555	-1.745689835732889
O	-10.884238612002223	3.6983511555755553	-1.0878839657328887
O	-10.836652042002223	5.488849565575556	2.2533274242671113
O	-9.878715222002223	-2.2717217844244444	5.0842413042671115
O	-10.645721342002222	0.7719483285755554	2.9055164342671116
O	-7.051848192002224	1.9226132805755554	3.3643597342671114
O	-5.654157482002223	-1.1254478544244444	1.5378330742671111
O	-8.150648492002222	-1.1275423044244448	-1.3529041257328889
O	-6.613842792002224	0.9594754895755554	-4.1278580257328885
O	-8.338768592002223	2.5509907055755554	-7.107139005732889
O	-9.981886562002222	-1.4501794444244447	-7.626557105732888
O	-7.232839892002223	-3.6673210244244445	-6.200749005732889
O	-6.345022402002224	-5.546967484424444	-3.0368005357328887
O	-3.1063839020022233	-4.395862554424445	-1.3423674157328889
O	-0.920599343002223	-6.109306894424444	1.2540613022671112
O	-2.206927332002223	-9.521323674424444	0.5276285252471112
O	-1.052834507902223	-12.537931774424445	2.5954010442671116
O	1.7990502479977772	-10.567685874424445	4.145526534267111
O	-0.10706561200222309	-11.166067574424444	7.396857404267111
O	-4.923086872002223	-1.1806912944244448	14.48130650426711
