24

O	-0.23451867495316914	32.27476798539473	8.579497475988852
O	0.06573516865749296	30.9498414642437	8.589744708396365
O	1.2030824379488703	30.809042400204746	7.906990639181177
O	1.44553018230696	31.89980611358894	7.246155684857865
O	0.6784169891256591	32.87561787464765	7.71980162744559
O	-0.4162701697193567	29.981920035028033	9.384343204475615
O	0.2957515722837575	28.862012466118237	9.469993206467324
O	1.394677401389091	28.64265758104606	8.683412853805354
O	1.7809785975360943	29.624715829603897	7.804849903549827
O	2.972146658341004	29.277503923713333	7.065851119472089
O	-0.012851138936834205	27.802269233831016	10.441311562577496
O	3.9131690628464137	28.286307831208592	7.4046294000340405
O	4.036742902368615	26.904170970180406	6.95544469989882
O	4.962797223868802	26.40132572686874	6.038599713113378
O	5.070085209357416	25.098527053010333	5.602859350039942
O	4.671037210123566	24.14291658920013	6.494074732472635
O	3.923155911433093	24.520156084386656	7.5725221636688556
O	3.7154525942893875	25.876284269528256	7.872940209675836
O	-1.0110344197113346	26.958156485303785	9.903514216979008
O	-1.7829796401140694	26.136683578826386	10.6801791728081
O	-1.6755376669902398	26.2364019405424	12.049735937315834
O	-1.2712894102795875	27.48694025445353	12.499262146174846
O	-0.5358484917028643	28.31382088012334	11.652076490103902
O	-1.8181364873338604	33.038333931880494	9.263308885804987
