70

O	-1.7188838842558143	-0.3585340679372092	-4.273104722268977
O	-0.20859899925581415	-0.7275283079372094	-2.2494314632689765
O	-3.457578254255814	4.328290132062791	-3.8948927022689768
O	-2.3876167342558143	0.15472820906279072	-5.508153622268977
O	1.1790441557441858	-0.8120528779372093	-0.5301020242689767
O	-3.0907589142558143	5.754665492062791	-4.187712542268977
O	-2.748627684255814	-0.8784973779372093	-6.517186902268977
O	2.298537455744186	-1.4296070379372092	-0.07180189226897671
O	-4.810453354255815	4.35590143206279	-3.2788782122689764
O	-2.163959574255814	-2.246947547937209	-6.4841500222689765
O	1.5340814757441859	-2.492767827937209	-2.0589025252689765
O	-1.2711391392558142	-2.595610537937209	-5.366013722268977
O	0.5601133357441858	1.7069766430627906	-0.10372719226897664
O	-0.8392161763558141	-1.530028037937209	-4.451581002268977
O	-3.641239964255814	3.536847032062791	-5.407208292268977
O	-0.07217881925581415	0.3508749100627907	-2.7830276122689765
O	-0.8590796652558141	0.7254411210627907	-3.8572641722689767
O	1.0613079657441857	0.6485396700627908	-2.0394491352689768
O	1.050254645744186	0.6114313180627907	-0.7328347032689767
O	0.9331975557441857	-1.322482317937209	-1.9494970832689766
O	2.348309075744186	-2.551371157937209	-0.7774878612689767
O	-0.4304580472558142	2.5447493120627906	-0.7995589202689767
O	-0.2699105292558142	3.636288222062791	-1.5418663862689768
O	-1.1875356912558142	4.199563642062791	-2.428757602268977
O	-2.257271454255814	3.5379185220627907	-2.880158432268977
O	-2.494789834255814	2.444261082062791	-2.1488342012689765
O	-1.5885091422558142	1.9877315420627908	-1.1785437592689767
O	5.7121842657441855	8.238905552062791	-7.417976812268977
O	4.290496105744185	5.00407546206279	-8.745097192268977
O	1.881867765744186	3.468578122062791	-6.239524152268976
O	1.052502105744186	0.7900734663627907	-8.767854142268977
O	1.9744802357441857	-2.581301037937209	-10.407103812268977
O	6.232749315744186	-2.184766097937209	-9.862725462268976
O	5.815165235744185	-0.32114606793720923	-6.6021493422689765
O	6.971046335744186	3.143635072062791	-5.774286732268976
O	6.430797245744185	5.44501780206279	-2.8559626822689768
O	10.086912825744186	6.23778142206279	-1.9363505082689767
O	8.919465995744186	7.16367826206279	3.5043381177310238
O	8.283282065744187	3.6244153020627907	2.3311867477310235
O	6.775511105744186	1.5509580890627908	-0.3370146022689766
O	9.434973225744187	0.05173184706279077	-2.5609726322689768
O	8.489607575744186	-3.033512587937209	-4.544682142268977
O	1.8671493257441858	-4.198128367937209	6.619672107731024
O	10.740420625744186	-2.374536827937209	1.4091657077310231
O	7.382851215744185	-2.054900527937209	3.156670007731024
O	5.955010335744185	0.3408685590627908	5.715897227731023
O	3.9840836657441856	2.948689782062791	3.7567003077310233
O	-1.5090178522558142	6.174600602062791	1.7666021477310234
O	-4.612707564255814	4.59925017206279	0.7530625077310231
O	-6.244046604255814	1.3121948510627908	0.1285448077310234
O	-9.726327074255813	0.2203670210627907	0.7893666977310232
O	-10.647419514255814	0.3184405420627907	-2.8989838822689764
O	-9.918836114255814	3.992707672062791	-3.1084963822689766
O	-11.721804974255814	4.62776949206279	0.16223796773102328
O	-12.183209074255814	-2.837939137937209	9.700428617731024
O	-9.806712714255813	-4.1564200479372095	-1.4218065617029767
O	-6.718430414255814	-3.1176329479372096	-3.235769942268977
O	-4.3979332942558145	-4.866249967937209	-0.7725249892689767
O	-6.150096654255814	-3.7627217479372095	2.4038921877310235
O	-4.413696594255814	-0.49777313793720934	3.4231115377310237
O	-5.755087764255815	2.1321818620627906	5.758655837731023
O	-4.408453864255814	5.10891432206279	7.627425847731024
O	-6.464009904255814	-1.2632337979372092	8.435112397731023
O	-3.696391704255814	-3.6841788179372092	7.401061617731024
O	-3.117223304255814	-6.72175149793721	5.192000457731024
O	-0.6325392232558142	-6.2528429979372095	2.373442837731023
O	1.3214988757441861	-8.64025758793721	0.07339910773102343
O	1.0628502057441858	-11.436438457937209	2.5883672877310238
O	2.266181755744186	-14.88937675793721	1.4129130677310233
O	-4.807143204255815	12.38027314206279	1.0060268177310234
