36

O	-3.117087890682476	35.185143335709505	11.694081983053948
O	-2.043256629537474	34.11065234644524	11.744157297019727
O	-2.562199509540021	33.10444367296029	12.426304687551184
O	-3.935636844829221	35.11198904385323	12.228719205064552
O	-4.054503827753723	34.62969123968656	10.884531356633484
O	-4.404804491452163	33.493394507529544	10.277379244896505
O	-3.9323617563179716	32.346863971641646	9.480444450613891
O	-2.5627013110797447	32.31561761424362	9.163426087858188
O	-1.7753453714169547	31.170939481435333	9.343423240949257
O	-2.309988307263057	30.07460454590256	8.818449285714511
O	-3.6324926863932387	30.04247992428867	8.772766675340964
O	-4.286325301397351	28.800518282306488	8.665133115441433
O	-4.2750702451516975	31.966663300592526	12.819251818974674
O	-5.471329345803495	32.64268664163645	12.365814405304977
O	-5.949235791950648	33.801388388881875	13.154325351012965
O	-2.9865832385650526	31.782499660753114	12.319434496685592
O	-6.183841194269338	32.931666002276174	14.063028338808408
O	-6.110660461179634	33.467309927632094	15.297004454645343
O	-5.325454287077829	34.65634739733679	15.41203772440956
O	-5.788900922317959	35.67855623867676	14.761441281825844
O	-5.596387099526563	36.95263294356412	14.940634536082056
O	-3.0767018205075285	34.26459127832604	13.146446577406575
O	-5.944155503788309	35.136173301651446	13.450394934456074
O	-4.223783405954092	34.21906358920414	16.263426679416582
O	-4.200297470402777	31.010826489124966	9.663316486150519
O	-4.098400746185577	32.77956545067832	16.424107020061797
O	-3.0720543069863187	31.99853099994917	15.961873737716841
O	-3.071550869284696	30.544746823587253	16.165019972847855
O	-3.847705574946284	29.742004178108576	16.92024445521333
O	-4.969028946193307	30.532468873732597	17.188258003364737
O	-5.136410745127552	31.780975904416714	16.41708636069172
O	-3.661813763021356	28.827253306882927	17.935737482279492
O	-4.663775124156585	31.08822240780013	13.488719673926106
O	-4.603027764815234	37.53953148915063	14.308516041451105
O	-5.865988311862695	38.162470335118904	15.387733604216605
O	-6.554663447677955	37.52444178498131	13.986588887210383
