31

O	1.9519542357369801	25.017331917306134	10.960065881004422
O	2.7260425732620472	27.926205674582622	7.520185701451524
O	2.0519764368563758	28.93269575827547	8.212873370231232
O	2.0920372492439894	30.286160220797132	7.970431791932564
O	0.9159322631608855	30.944055305245897	8.94670244026158
O	1.8331979903581976	30.188904874726948	9.981633759338633
O	1.79153831546252	28.84924604328502	9.54879395777056
O	1.6488332417244085	29.71226074690485	6.81505777205607
O	0.3134363672583841	29.89628564112683	7.215980868921557
O	0.39457041511088964	31.380485307600317	7.003199349945165
O	-0.43672790542706885	32.1980370179537	7.811311643770133
O	-1.266380678539543	31.45098532144184	8.82277341950986
O	-1.0123999473285696	30.03912775785402	9.218657422375077
O	-0.1346936418493635	29.212564751725303	8.368224436290866
O	-1.203758090662416	29.53166368255454	10.592451983707097
O	-0.28493238026109635	29.018141970362702	11.602591448977538
O	-0.5634092118121906	27.852512842390816	12.354458141403432
O	-1.804301195164337	27.823102195121752	13.024933978650779
O	-2.5110934176244823	29.027132789510482	12.537243185738781
O	-3.8765720996425674	28.854509214751644	12.524794652878223
O	-2.3838612198936495	28.778257581825883	11.031575993201873
O	-2.6356495277169083	26.844984962852777	12.438394287249274
O	-3.1501470110666734	25.97755202676508	13.586735204482105
O	-2.105666474690712	25.868337028063795	14.465595823228906
O	-1.7486449293870878	25.871836180940857	11.828234079093825
O	-0.6183598837240342	25.599258018747456	12.831382162620024
O	-0.38019249050477955	24.418957065326776	11.981215336156852
O	0.2835842061142836	24.819599889046682	10.755017567309716
O	0.07986079478502517	26.217965683134143	10.413537469178785
O	-1.3399731669970312	26.350187463491636	10.512324590679496
O	0.8123333445807184	26.484933574330405	9.37373735229918
