67

O	2.2988440949999998	0.14362174668979488	-0.08104600326734675
O	2.968360255	-0.9449385343102051	-0.7402386558673467
O	1.4425530949999996	0.7961371334797949	-1.0176127948673468
O	2.035703925	0.3669002486897949	1.3111502401326531
O	3.6336387749999997	-1.664308634310205	0.36234821713265325
O	4.136868284999999	-0.7350785943102051	-1.5059183098673468
O	0.04567389629999964	0.5519941196897948	-0.4972247358673467
O	1.7331220549999995	0.8508168089897948	-2.2565445398673467
O	0.8454635449999996	1.083194524689795	1.7080843301326532
O	2.9304843249999997	-0.09620102131020514	2.0538324001326536
O	4.742271295	-2.4657174443102052	0.30725983213265323
O	5.100253094999999	-1.6417580243102052	-1.832289529867347
O	-0.13138424080000036	1.3788360116897949	0.6730360201326533
O	-0.7765996000000004	0.7030897716897949	-1.7066401598673469
O	5.188699825	-2.741391384310205	-0.9839888878673467
O	-1.2805342450000003	1.7599216396897948	1.038391360132653
O	-2.0036927450000004	1.3211775226897948	-1.9668314298673468
O	-0.30793244700000033	0.14058785968979493	-2.7662203898673465
O	10.252937005	7.728729455689795	2.8627734701326535
O	10.068573305	5.467812345689795	-0.18927942586734675
O	7.745755505	2.565243005689795	0.48170935113265323
O	8.571937775	0.8325793848897949	-2.7868896998673467
O	7.984148455	0.7029402936897948	-6.528438289867347
O	3.0478683749999997	1.289885669689795	-11.779752669867348
O	5.082847275	4.044630485689795	-10.165095769867348
O	6.974678555	4.936364165689795	-7.004298229867347
O	5.2175737049999995	5.003702215689795	-3.6543599798673467
O	6.0240996849999995	7.116410335689795	-0.6267354408673468
O	4.871502384999999	7.259612505689795	2.962375080132653
O	3.7030774049999997	10.869639725689796	3.2922350501326534
O	-0.20824323900000036	9.713159475689794	7.252781080132653
O	-0.8044485520000003	8.115361235689795	3.863799950132653
O	0.7621783079999996	6.154546655689795	1.0701176201326532
O	1.3399315749999996	8.378138215689795	-1.960346949867347
O	1.6599025449999996	6.593136875689795	-5.304509619867347
O	-9.598050185	-3.305188994310205	0.4436765761326532
O	-7.039908235	-0.5697253843102051	1.0369431701326532
O	-8.248366785	5.026864775689795	-2.0211786298673466
O	-8.013632155	10.732675585689796	-3.1189149198673465
O	-3.108449735	8.242734835689795	-5.812093389867347
O	-3.4611561450000004	8.777774045689794	-2.0708794398673467
O	-4.079318265	5.526687895689795	-0.15509565536734674
O	-4.802520915000001	4.709328135689795	3.4956425501326533
O	-1.4330736250000005	3.671594245689795	4.990514750132653
O	2.716295975	-0.5145618143102052	7.997577130132653
O	3.5960249149999997	-3.902693824310205	6.609702400132653
O	2.9472989349999996	-6.184060794310205	3.6783458601326533
O	2.565863335	-9.963644574310205	3.6987412901326535
O	5.893725855	-10.534515274310206	1.9372683401326531
O	7.754884745	-8.829836564310204	4.707388560132653
O	-5.920051795	-13.970937274310206	6.330282830132653
O	2.339341485	-10.934673074310204	-1.171354339867347
O	3.757264995	-7.471008554310204	-1.8191766798673468
O	0.32115130799999964	-5.950359104310205	-2.3275088098673464
O	-1.4369899550000005	-7.6788132943102045	0.5919540171326533
O	-1.1746017550000005	-5.323948044310205	3.5805023301326533
O	-1.5642451550000005	-6.116170524310205	7.2480543301326525
O	-2.0800055250000002	-4.174724564310205	10.459088730132653
O	-6.632082865	-7.3771243443102055	9.426991940132654
O	-5.297487655	-7.944159064310204	5.923341990132653
O	-6.202561915	-5.825830364310205	2.8746371801326536
O	-5.978680325	-5.953206594310205	-0.9251810178673467
O	-3.8651147750000003	-3.131474514310205	-2.4546650698673464
O	-3.4457238450000003	-1.8195255043102052	-5.994668439867347
O	-7.052496995	-3.032901094310205	-6.956375769867347
O	-8.239901955	-2.723969564310205	-10.575140469867348
O	-5.511751055	-0.22649886431020516	-11.414506869867347
