63

O	-1.9671888512291666	-2.0430217378124995	-1.8370105033541673
O	-2.2432256812291667	-3.1432051978124993	-2.4988812433541674
O	-1.7039201102291668	-4.258799227812499	-2.0702478433541676
O	-0.4492931702291667	-4.0554306278125	-1.6250507533541674
O	-0.3861832572291667	-3.0681316578124993	-0.7412964443541675
O	-0.9017085867291667	-1.9033810078124995	-0.9961821163541674
O	-3.4009257812291667	-3.396792607812499	-3.1217147533541674
O	0.28469505877083323	-5.0210868878124995	-2.1119348533541675
O	-1.2847702852291667	-1.0069057578124994	0.20360871864583255
O	-0.6729491932291667	0.11213904918750062	0.18876570864583256
O	-1.4773136742291668	1.2577215141875007	0.5365669736458325
O	-2.8595637912291667	1.3760571071875005	0.29536249364583256
O	-3.5442966612291666	0.2222385701875006	0.08236460064583256
O	-2.667326621229167	-0.8439041378124994	0.46028707664583257
O	0.5708339187708333	-0.13128702081249943	0.7938552336458325
O	-6.681789341229166	-11.1611610778125	2.5039432366458323
O	-8.478686701229167	-7.848023647812498	1.9484964466458325
O	-6.344075301229166	-5.5437608478125	-0.13415009535416744
O	-9.038167361229167	-2.846617167812499	-0.4867503333541674
O	-10.771825091229168	0.06973263718750056	1.1607001466458327
O	-9.985383031229167	5.853344852187501	5.366027176645832
O	-10.529026171229168	2.2582132021875005	6.425720826645833
O	-10.096718461229168	-1.3157319278124993	5.266065086645832
O	-6.668506881229167	-2.6782374378124993	4.398818676645832
O	-5.433504201229166	-6.260803207812499	4.679319236645832
O	-2.345468601229167	-8.164549437812498	3.7083749466458324
O	-1.1523606072291668	-9.614037277812498	6.987110596645833
O	4.387025368770834	-9.6233416778125	5.643307846645833
O	2.757017158770833	-6.207730397812499	5.822454806645832
O	-0.22604168522916668	-4.1415036578125	4.890592556645832
O	-2.5089617112291664	-3.5436301778124997	7.7511089166458325
O	-4.808394921229167	-0.5553923378124994	7.528912726645832
O	4.682812388770833	10.3996115221875	9.519103796645833
O	7.452314818770834	6.703260702187501	0.19429227964583254
O	5.775458848770834	3.5117754321875005	1.4444068966458325
O	7.185921038770832	3.0277543121875006	4.885269126645833
O	4.947609458770833	3.3035507321875004	7.898664296645832
O	6.347592698770834	0.5027765401875006	10.058723316645832
O	1.2252863587708331	-1.1384232378124994	9.625282056645833
O	2.8617474887708334	-0.4373430578124995	6.267008906645833
O	5.565675538770833	-2.0195092378124992	4.214028336645832
O	4.041956698770834	-4.352340157812499	1.7815796866458327
O	2.6233125587708335	-6.300644887812499	-4.623780573354168
O	0.8064356887708333	-3.9877089378124997	-7.0830675633541675
O	-0.5279165552291667	-0.4573795378124994	-7.6432937333541675
O	-0.27790984522916673	1.7657260721875006	-10.707760383354168
O	-4.012619091229167	1.4334071731875007	-11.464939583354168
O	-3.6904971012291665	-2.2907269778124992	-11.878503583354167
O	7.9835105087708325	6.524684092187501	-12.479907983354167
O	-3.1267651812291666	5.5840269121875	-9.335072883354167
O	-4.620566761229167	3.4964735221875007	-6.594041353354168
O	-2.1763503012291667	4.7524932221875	-3.9795254733541676
O	0.9830956187708333	4.689233282187501	-6.135774383354168
O	2.6532464987708333	1.3238058131875006	-5.524208663354168
O	5.199841198770834	-0.5343693178124993	-7.604586163354168
O	7.667341548770834	-3.3901163278124993	-7.168958173354167
O	10.516360758770833	1.3719842521875005	-7.948331453354168
O	7.270320608770833	3.251545392187501	-7.390675033354167
O	6.183081778770834	4.658034122187501	-4.046006513354167
O	3.6751617487708335	7.1258403621875015	-2.5994201033541677
O	1.1612637287708334	5.6154255421875	-0.21971472335416745
O	-1.3120105642291666	6.9933337621875005	2.3057122466458324
O	0.8601553587708333	10.197048502187501	2.7734445766458324
