75

O	-1.595575108113636	2.076925091590909	-0.914428403097727
O	-1.698594535113636	1.224435851590909	0.032953390902273005
O	-1.805324681113636	1.619495221590909	1.344659998902273
O	-1.878502059113636	0.40829658059090923	2.035846848902273
O	-1.486889238113636	0.4159313295909092	3.3174189989022733
O	-0.5287822851136361	-0.6185962904090908	3.175806038902273
O	-1.091847436113636	-1.820142258409091	3.4853842289022734
O	-1.460207307113636	-2.835270968409091	4.225424618902274
O	-1.3321934771136361	-4.046109438409091	3.699613808902273
O	-1.4932402101136362	-3.589447528409091	2.033449788902273
O	-1.391095052113636	-1.8561625684090908	2.120632468902273
O	-1.3623074411136362	-0.7234941444090908	1.3343559989022729
O	-1.2825640451136362	-0.2235367344090908	-0.007310819097727017
O	0.0988853768863639	0.07240412309090921	-0.579271542097727
O	-0.29132145211363614	-0.1746065534090908	-1.756224581097727
O	0.21612765088636388	0.00762849789090921	-3.050178671097727
O	-0.1373663651136361	-0.1841938394090908	-4.319519361097727
O	0.5927998208863638	-1.1184640084090909	-5.053340961097726
O	1.903459910886364	-1.3783535384090908	-4.849681751097727
O	2.235084880886364	-1.0805454784090909	-3.521332351097727
O	1.529147500886364	-0.10387258820909079	-2.909505281097727
O	2.705565870886364	-2.9029740084090907	-5.085930081097727
O	2.726731510886364	-3.1596064684090908	-6.492201351097727
O	4.174204000886364	-2.839864408409091	-4.727781151097727
O	2.084577420886364	-3.974105578409091	-3.965487751097727
O	0.40474912088636383	-2.956084758409091	-0.499847164097727
O	-0.6055531271136361	-3.619471128409091	-1.064663080097727
O	-0.8513005642136361	-2.954607818409091	-2.219959811097727
O	0.026929472886363826	-3.157250758409091	-3.340442531097727
O	1.2893934608863638	-3.306363688409091	-3.011846421097727
O	1.387910950886364	-3.1064030584090907	-1.684840364097727
O	-12.759267809113636	-2.710724168409091	-5.558760101097727
O	-7.703130119113636	-4.415217968409091	-8.158320591097727
O	-5.952904629113636	-6.779299768409091	-5.768390611097727
O	-2.975503619113636	-4.987082448409091	-4.377826281097727
O	-1.6641052551136362	-8.222321438409091	-2.6582452210977268
O	-1.8602980021136362	-10.342762118409091	0.41374889890227307
O	-6.148766989113636	-9.66096214840909	1.189732038902273
O	-5.820538899113636	-6.0296197484090905	0.18281935190227294
O	-7.588709449113637	-4.174557798409091	-2.6136289210977273
O	-7.259109719113637	-0.7621057134090907	-4.192624981097727
O	-10.796676159113636	0.6407835835909093	-3.8459161310977272
O	-9.014834269113635	6.058455721590909	-3.642540911097727
O	-7.871759459113637	3.8392917515909093	-0.777270800797727
O	-6.335472739113635	0.5519414635909092	0.11004334790227299
O	-8.915078699113636	-1.824519888409091	1.6262017889022728
O	-7.694834529113637	-4.674066938409091	3.8256786989022733
O	0.47340565088636377	5.139714131590909	6.273161638902273
O	-5.447169239113636	4.323771241590909	8.852869468902274
O	-9.094668779113636	1.328439881590909	5.166847638902272
O	-5.6453778191136355	2.7506851115909092	4.535436478902273
O	-4.378942089113636	5.743087131590909	2.643940868902273
O	-3.2948641191136363	4.650445861590909	-0.805189086097727
O	1.334178880886364	3.281739071590909	-5.572791881097727
O	4.496537470886365	1.621807211590909	-4.794859591097728
O	6.493968460886364	-0.1698354504090908	-2.1677094810977273
O	10.166378290886364	-0.28855795640909077	-1.6315110730977271
O	10.458663990886365	-3.897338648409091	-2.861490031097727
O	9.231331290886365	-2.8896427884090907	-6.251642411097727
O	11.389265490886364	0.2417358945909092	-6.319063281097726
O	10.371059790886365	-3.7820000184090907	1.8455558789022728
O	6.909351710886364	-4.868915788409091	1.008043098902273
O	5.311246370886364	-2.7462857984090907	3.735961558902273
O	7.423785590886364	0.3854630025909092	3.191283868902273
O	5.487943160886363	2.592245411590909	0.7924811989022731
O	6.716400650886364	5.447482771590909	-1.361176098097727
O	5.174738120886364	8.26784141159091	-3.353305551097727
O	8.239167980886364	10.386115281590909	0.9551422289022731
O	8.361899630886365	6.876560811590909	2.412728978902273
O	5.891575750886364	5.447738311590909	4.919541048902273
O	5.5719284608863635	2.578007431590909	7.389313928902274
O	2.595186870886364	0.31178257059090925	6.775971778902273
O	0.8118558708863639	-2.376280698409091	8.810684888902273
O	1.9778924008863639	-0.7626765204090907	12.155742078902273
O	3.334250500886364	3.899638751590909	-12.100667721097727
