18

O	3.3095658556780783	28.37572453420708	8.838421398812347
O	2.9116999194157	28.3421852584283	7.596534395040248
O	3.7873943245769808	29.071030897336346	6.614113968116023
O	3.4072237778979675	30.479215191916726	6.5247884037707475
O	2.1790723355477835	30.83135723970816	7.106850189583421
O	1.669181849823604	32.03798740327269	7.249303365481108
O	0.5920695615007411	32.23309088434936	7.982798453178656
O	-0.0037855130591308017	31.142621645958485	8.539040718663053
O	1.0506519095855695	29.887455429626264	7.996315487747529
O	-0.09418186864383674	33.502522989665856	7.9965399909372765
O	-0.9045043486670392	30.976870950263937	9.688627516827712
O	-0.6618864821178332	29.808490762659666	10.552688807973144
O	0.6453437121380156	29.29992566017697	10.589768674696598
O	0.925614558936914	28.01339046905214	11.072017117686766
O	-0.00876830070009002	27.06568604805354	10.661791910234868
O	-1.307415575938627	27.51661364459568	10.89888986195521
O	-1.5737513989402936	28.88516425629213	10.944885181378195
O	-1.6724219498039283	31.911239195255014	9.988080928963695
