78

O	-3.068210717617021	3.7549396530638295	-0.2882618003404256
O	-4.645810587617021	5.75446644306383	-1.2065047443404255
O	-6.544136977617021	7.243133373063829	-0.5936193423404257
O	-3.7278005376170213	3.7590463230638296	2.0319771856595743
O	-2.624053407617021	3.9171403630638295	1.2586634156595744
O	-3.2706339576170214	3.3101688430638294	3.3752032756595742
O	-2.705575797617021	2.0455713120638297	3.075748575659574
O	-2.135161578617021	4.14723242306383	3.8155001056595745
O	-2.200025836617021	4.27501825306383	5.189467575659575
O	-0.9137858876170211	3.3354895230638295	3.366321525659574
O	-0.624856563617021	2.5461522160638297	4.4631814756595745
O	-1.635240232717021	2.4985506830638293	2.373667175659574
O	1.6256197523829792	-1.0668058469361705	2.8232528656595743
O	-2.216985318617021	4.503000143063829	-1.2050087943404257
O	-3.875204297617021	6.85279345306383	-1.7168089243404256
O	-5.800136017617021	8.20134367306383	-1.4295208643404256
O	0.815564452382979	-0.6542813769361704	3.7994500956595743
O	-2.9955858276170213	2.2139699360638296	-0.7396174163404257
O	-5.593274827617021	5.61369163306383	-2.5680091643404257
O	-7.453694947617021	7.64833902306383	0.6711603206595743
O	-0.20027309761702106	0.12666993306382945	3.456264875659574
O	-4.487424107617021	4.3849025830638295	-0.4990504413404256
O	-5.402703297617021	6.36931925306383	0.1912539726595744
O	-7.406706797617021	6.48087080306383	-1.7836904143404257
O	-0.32151799761702105	0.5642761630638296	2.1779208756595745
O	0.44079182238297876	-0.012261476936170412	1.1739703956595744
O	1.528070732382979	-0.7652311069361706	1.5318370356595743
O	2.251076362382979	-1.3662463469361703	0.48315815165957443
O	0.157375582382979	0.6230624630638295	0.0081865525595744
O	-0.3227568776170211	1.7921189350638296	0.4379620276595744
O	-0.9697149116170211	1.5638624480638295	1.5818014156595743
O	-6.511663877617021	-6.01404730693617	8.672913895659574
O	-7.750444517617021	-3.3317928669361705	6.397205795659574
O	-4.925729157617021	-0.8661139469361703	5.855392285659574
O	-7.3733873676170205	1.2458399360638295	4.1786968856595745
O	-9.395636717617021	1.5594989980638294	0.9908781716595744
O	-8.253495317617022	2.0843100200638296	-6.8223261043404255
O	-9.490694907617021	-0.6950032169361706	-4.466510574340425
O	-9.185770077617022	-1.9461087369361705	-0.8980753093404257
O	-5.7827300476170205	-2.537285616936171	0.6974088096595744
O	-5.138056627617021	-5.018709336936171	3.3374309856595743
O	-2.201753486617021	-5.965444546936171	5.460488685659574
O	-1.853521731617021	-9.667878656936171	4.667137045659574
O	3.763203282382979	-9.677016656936171	5.602619395659574
O	2.6065358623829793	-7.616407026936171	2.6731799156595746
O	0.12516507238297891	-4.941702426936171	1.5798068556595743
O	-2.470484216617021	-6.491325916936171	-0.6516241303404257
O	-4.347250767617021	-4.25373342693617	-2.9816602943404256
O	-7.447635537617021	-5.558148916936171	-4.698101204340426
O	-8.083864567617022	-3.526953456936171	-7.857376284340425
O	7.5608481123829785	0.7408857430638296	-2.5196101543404255
O	5.697971282382979	-4.244269816936171	-6.167849894340426
O	0.8953187523829789	-9.021709556936171	-9.742313454340426
O	-4.306982197617021	-8.13971145693617	-7.028797134340426
O	-1.157521396617021	-6.136024856936171	-6.386468704340426
O	1.160812992382979	-7.377260716936171	-3.6739999443404256
O	3.3753016223829793	-4.65085939693617	-2.2557402343404256
O	6.1283676523829795	-4.52991146693617	0.3001950106595744
O	4.536209662382979	-3.48311688693617	3.6002512956595742
O	3.976721832382979	0.3043582130638296	8.984133705659575
O	3.125937072382979	3.9520241930638296	8.691628365659575
O	2.465396172382979	6.67196921306383	6.207805335659574
O	3.699085902382979	10.26505420306383	6.415622255659574
O	0.2651860323829789	11.633381463063829	7.216109245659575
O	1.4291639623829788	12.301332543063829	2.5915728056595744
O	-0.7463149286170211	9.32138951306383	2.7205413656595745
O	1.2122917623829788	7.50585688306383	-0.13398820034042558
O	4.530206252382979	8.279269703063829	1.2563878356595743
O	5.421512692382979	5.37647419306383	3.5364593056595743
O	8.066974062382979	5.365717013063829	6.246712185659574
O	10.595879162382978	7.01716077306383	3.096217615659574
O	9.065036762382979	5.5173568930638295	-0.053369868340425605
O	6.705736332382979	6.413489713063829	-2.8964058443404257
O	3.598778052382979	4.19819625306383	-3.1017146243404254
O	1.445793582382979	3.3618029630638295	-6.111257424340426
O	3.505620112382979	4.7626068130638295	-8.644553764340426
O	2.2167621323829794	5.02985234306383	-12.240405704340425
O	-0.752878727617021	2.7827086340638294	-11.644646204340425
