28

O	-0.1467051449263952	27.278093167975904	11.163681157316072
O	-0.9087862659678958	30.927808143692513	9.626495807355328
O	-1.4555890131771663	28.696392080617603	9.992041519120201
O	5.425989358714066	24.95562562782875	8.552338473996176
O	-0.892013479850065	28.019723805598925	12.22249284649667
O	0.7426408792231123	31.363085029194444	8.131533767033584
O	6.813786609974991	25.285090112215983	8.123551278988971
O	-2.28818696462237	27.524007329446384	12.46593992860733
O	1.3227448967426954	32.38584175467958	7.5919275180099755
O	5.404460249851852	24.524661499238917	9.974473633147555
O	-2.2405694167701866	26.17096542268198	13.169098811433663
O	-0.3974666341956581	33.119134919740404	8.64058546324316
O	-0.8514760503990324	25.641917558494768	12.975948786787885
O	2.2949110905590233	29.769292909540493	7.405999073981797
O	-0.2864220722108819	25.85059207563673	11.610398264498198
O	5.069667328438199	23.542963290510066	7.664204864892428
O	-0.48752924749857485	29.680663653720778	9.722869190178132
O	0.8242649463826629	29.41488582314442	9.349032279932638
O	1.3119719998489108	30.186208913239653	8.318622157228257
O	-0.2794665327208059	31.810833399499977	8.850030453098494
O	0.49612715351931347	33.42920253978086	7.702836530942358
O	3.104733823276313	28.696510179905395	7.798530751516358
O	2.5886467731684473	27.78810651220209	8.66530272264427
O	3.493818753266039	26.836805746212917	9.12528747751321
O	4.453455836723238	26.366171925381515	8.269727225683846
O	4.626551300749143	27.076568353782285	7.131022624301734
O	3.922752092105968	28.2007486146982	6.825066007553675
O	-0.8033694014597224	27.422127094028962	9.879954971463329
