75

O	1.7182391730454545	2.5699131149659085	-2.3639717208772724
O	1.7382484130454543	5.088866625965909	-3.265545591877272
O	3.2084912930454546	7.205602765965908	-3.4503674518772725
O	0.3041308930454544	2.4427154179659087	-4.373277761877272
O	0.9809994630454545	1.5838990989659087	-3.4836363018772722
O	-1.1284093719545456	1.9875496769659087	-4.371809751877272
O	-1.0934646939545456	0.6218357559659087	-4.1356763318772725
O	-1.8017258469545456	2.6527618109659086	-3.1771874318772726
O	-2.6597694369545457	3.6702207059659084	-3.5729109218772725
O	-2.5060119769545457	1.5250367989659086	-2.4938094318772723
O	-3.853931906954546	1.6500564741659087	-2.745370261877272
O	-1.8402939089545456	0.31897840596590865	-3.0481808918772724
O	-3.1487109569545457	-3.6782172640340915	-0.17959548187727226
O	2.5989607530454544	1.8585188029659088	-1.4188695472772723
O	1.7884690430454544	5.575195575965909	-1.8596694698772724
O	3.117070873045454	7.204672785965909	-1.9597668838772724
O	-3.8143605069545456	-3.0699337840340917	-1.1919796348772724
O	0.5147144730454544	3.3298704659659086	-1.5140368623772724
O	0.1789643430454545	5.122049395965909	-3.773547791877272
O	4.811658793045455	7.001997255965908	-3.7407450518772727
O	-3.3546124669545456	-1.9685782140340915	-1.7871283508772724
O	2.5944598730454542	3.672418775965909	-3.2231301518772724
O	2.5907427930454543	5.963433405965908	-4.389397691877273
O	2.179010063045454	8.412716615965909	-3.9304906718772727
O	-2.1139421669545455	-1.5114301640340913	-1.4890959282772722
O	-1.3966567149545455	-2.2312196440340912	-0.5743964958772724
O	-1.9763716569545458	-3.1937256240340917	0.23474453812272777
O	-1.2334845159545456	-3.7488319940340915	1.2971466181227276
O	-0.24205301295454562	-1.6053070640340914	-0.40425652187727223
O	-0.21131968995454564	-0.5821170240340912	-1.3071792088772722
O	-1.3017583339545455	-0.5902621840340914	-2.0792105448772724
O	-1.9139862999545456	-3.8631492940340912	-10.780378401877272
O	-2.8822261969545457	-2.060098744034091	-7.563557531877272
O	-0.7008783569545456	0.8660160789659087	-8.411166761877272
O	2.840778183045454	2.3520115199659086	-8.348681431877273
O	8.930131113045455	2.738683785965909	-4.626191401877272
O	7.991801273045455	0.056047895965908756	-7.149135011877272
O	4.901126633045455	-1.4749236040340914	-8.692766571877273
O	2.304703863045454	-3.196718994034091	-6.523836851877272
O	0.05149492304545433	-6.0142955040340915	-7.524023451877272
O	-2.8687998969545454	-7.8848029340340915	-6.013420611877272
O	-1.9927642769545457	-10.315620874034092	-0.8236701218772723
O	-0.45851149895454557	-7.089113474034091	-2.0756650828772725
O	2.864873463045454	-7.816419914034091	-3.7555790018772726
O	5.326976093045455	-4.9646534440340915	-4.033229471877273
O	8.324368703045455	-5.273293434034091	-6.331828641877272
O	-0.6151263309545456	-2.9976071740340915	7.253325218122727
O	7.483168853045454	-7.369848804034092	-0.1282640918772724
O	4.308375893045454	-9.307728274034092	0.5889393281227278
O	1.6942836930454543	-7.325753514034092	2.4954964081227278
O	-1.7451125119545456	-8.085653664034092	3.922492808122728
O	-4.290627736954545	-6.913341854034092	1.3198210081227277
O	-9.502585816954545	-3.3326628340340916	-0.8031010158772723
O	-9.507499156954545	0.46148985596590864	-0.7828715218772723
O	-7.364564466954545	3.448771215965909	0.10339364812272778
O	-8.512401456954546	6.722952235965908	1.731553528122728
O	-7.941088826954545	8.72500330596591	-1.4660465512772722
O	-4.082380136954545	6.4792949659659085	12.683557618122729
O	-0.7537013089545456	10.490137855965909	2.2445095081227278
O	-4.312694326954546	9.37519626596591	1.5105479081227278
O	-2.9878741269545457	6.858561435965909	-0.9876364248772723
O	-1.2345324369545456	4.844964825965909	1.7390227781227277
O	-3.9637721169545457	4.872458835965909	4.307272938122728
O	-5.974271216954545	1.6892601284659086	3.6651131081227275
O	-9.483847636954545	0.9184700499659086	4.871536868122728
O	-7.879010786954545	2.125550414965909	8.736845318122727
O	-4.198692556954546	1.1858943799659087	8.435075878122728
O	-0.8268525449545456	2.7688890459659086	7.683702358122728
O	0.9380292930454545	1.3297637479659086	4.617665398122728
O	4.538760053045455	1.6361046279659086	3.368217288122728
O	5.875660153045454	2.300873510965909	6.879428908122728
O	9.598518653045454	3.0668742059659087	7.434625868122728
O	10.513507653045455	1.7920107679659087	3.9748606281227277
O	11.589189553045454	5.396304045965909	3.3575224881227275
O	5.918053983045454	12.784101325965908	-6.103476851877272
