75

O	-1.9331230939619055	4.779101508866667	0.14909844407619044
O	-2.5755442692619055	2.4144483508666665	-0.7065971749238096
O	-2.8235859672619057	2.8444054888666663	1.8952799450761906
O	-2.2060269652619056	3.7679801288666663	-0.8963965249238095
O	-1.8389732945919055	2.4687301388666665	-2.4255310349238095
O	-3.3647699102619057	4.701512688866667	-1.3685636449238094
O	-1.5421645822619057	-0.41400493113333336	1.0661374850761904
O	-2.0569094352619057	1.2747744448666665	-1.6012349349238097
O	0.21317896973809436	-1.1742382211333335	2.2157169150761904
O	-2.7674371172619057	0.1756713988666665	-1.1458733649238095
O	-2.6689419422619056	3.2090688988666667	4.249570245076191
O	-0.7070462502619057	1.6955364468666665	-1.7978673649238095
O	-1.6624851642619056	1.9916035568666666	7.71727339507619
O	-1.4236182142619056	1.8066392748666664	-0.41862620492380964
O	0.16390133973809462	-1.2628873311333335	-0.2638100749238095
O	-1.4054268842619055	0.6294624648666666	0.19902772707619043
O	-0.49303918026190563	-1.3453906611333333	0.9963632110761904
O	-0.47000613026190563	-0.9329003711333337	3.4147485350761904
O	-1.8813609484619056	-0.5238467311333335	3.3812553650761905
O	-2.2579008662619056	0.8643003588666666	3.2823354350761904
O	-1.2674101362619057	1.9261670328666665	3.0671432950761903
O	-0.16094255026190551	1.4842761794666666	3.8450984650761906
O	-0.09080256026190558	0.11973939886666662	4.411436685076191
O	-2.0004578222619056	3.2250810988666663	3.0094528050761906
O	-2.3666083062619054	4.256379568866667	5.09943992507619
O	-2.5150260912619053	3.7628297788666663	6.5495256850761905
O	-2.1824938012619057	2.2554659088666664	6.489319505076191
O	-2.0383372052619055	2.1407432658666665	4.95998756507619
O	-2.0575478142619055	3.0082070188666665	8.717997035076191
O	-1.9147893710619055	0.7895451858666666	8.45039148507619
O	0.21086512973809457	0.06662643886666664	-0.9456428149238096
O	0.04282783973809434	0.9012071248666665	0.39320754807619046
O	-0.07807686026190552	2.2401433978666665	0.7554614589761904
O	-9.434253730261904	-6.469049131133334	5.304312815076191
O	-9.479422300261906	-2.6696521911333333	5.169277795076191
O	-6.157923750261905	-1.4407125011333333	4.502057715076191
O	-7.355022940261906	2.2425284668666663	4.82529172507619
O	-8.767343470261906	5.459825628866667	3.2980730450761904
O	-11.369931890261906	3.1104537088666664	0.6750015470761904
O	-8.708053320261905	0.4545458368666665	0.12732990507619046
O	-8.871592100261907	-3.2173152011333332	0.8338750202761904
O	-6.455350660261906	-6.103791671133333	0.8276963654761904
O	-8.185041610261905	-8.548252831133334	-1.5548371449238094
O	-3.3607815502619056	-10.872706021133334	-3.3253419249238094
O	-3.7589761702619056	-7.202421041133333	-4.158769324923809
O	-4.712032370261905	-3.905724361133333	-2.8597747449238096
O	-8.138226310261906	-2.8454710911333336	-4.108054554923809
O	-8.861819070261905	0.8848878108666666	-4.058604794923809
O	3.7908906497380945	0.2968363188666665	-6.917452664923809
O	-6.0033561202619055	-2.7040532611333337	-8.375960264923808
O	-2.4657490792619057	-2.4500069111333334	-7.14484046492381
O	0.3463125697380942	-4.815628401133333	-6.32897305492381
O	0.17836328973809445	-5.486673351133334	-2.6076927249238095
O	2.6084426597380945	-5.428434841133333	3.5659445050761907
O	3.9844355297380947	-2.3386068011333334	5.12282230507619
O	4.693782819738094	1.3592028094666666	4.7595772650761905
O	7.565501219738095	3.477112088866667	5.849721875076191
O	5.5959733297380945	5.240564408866667	8.57582375507619
O	4.999150179738095	1.9339934108666665	10.363809085076191
O	15.634447339738095	3.530923878866666	0.5220143150761904
O	5.947821919738095	8.025358848866667	4.69750900507619
O	2.5070379997380945	6.785270018866667	4.350650125076191
O	2.7381715697380944	6.215550528866666	0.7020664047761904
O	6.191727689738095	4.673592028866667	0.6017151230761905
O	5.866777169738095	0.8740408328666666	0.7297065715761905
O	8.367434839738095	-1.7043703111333335	1.6542155350761905
O	8.843239239738093	-5.446979711133333	1.4055034000761903
O	10.781487939738096	0.40555050886666644	-1.3082620649238095
O	8.166453639738094	1.7567357018666665	-3.7161564649238095
O	6.109161929738095	4.900132968866666	-4.40005724492381
O	2.354405259738094	4.606596378866667	-4.0081678249238095
O	-0.5548987902619056	6.839212768866667	-5.170832534923809
O	1.4470437697380945	8.244937598866667	-7.967731074923809
O	-0.16127628026190566	11.074978698866666	-9.984395524923809
O	4.082988959738095	-8.742981621133334	9.531909195076189
