28

O	0.9703419343482673	30.16718751768583	8.096238656028554
O	1.6376237377894054	30.940867797637384	7.403849204024256
O	2.993335699091721	30.602297008138628	7.287282486198096
O	1.244062466421375	32.29075849315004	7.418084955813285
O	0.22246135743899798	32.67914623582109	8.068948589332413
O	-0.2573213547521238	31.789340267594753	9.13484364285042
O	-0.035313084186426646	30.41974639129332	8.759279940013311
O	-0.69909886080548	29.3758774102674	9.337578904182145
O	-1.570784462315062	32.24519482935245	9.380929052241028
O	-1.524445666183012	33.511096761924925	9.22789116302691
O	-0.49144795565427035	33.896292413922346	8.307108494755663
O	-0.07388604964340661	28.09497993506796	9.156250547738036
O	0.11197079316620284	27.545068621234233	10.477395586476577
O	-0.6363567649555786	28.247816543617798	11.506749395235907
O	-2.0410706245505263	27.75473691988901	11.716373012539345
O	-1.866935452496083	26.369873410367074	12.269754841374384
O	-0.49563733747390604	25.83433398623813	12.079504662124144
O	0.14940788760842905	26.10799352796553	10.76066861466132
O	3.417136054475305	29.266411848145886	7.46007596019324
O	3.237844061175867	28.458109426913015	8.548183935542287
O	3.867849745032572	27.215582301546654	8.569225683190217
O	4.978946030581868	27.057759030008842	7.7634936793744425
O	5.007023586624443	27.769415824476344	6.624096836821005
O	4.045478055711282	28.71066540462633	6.3906448843096735
O	5.866227649181651	25.576651669291216	7.8860834680165794
O	5.198061586885508	24.49117282357049	8.659858570965929
O	7.226744844857289	25.72250929838487	8.456858169773536
O	6.120204957331684	24.961159727568926	6.317146898805879
