81

O	-0.9915047190040823	-0.7983160263877548	-0.41470545174489754
O	-0.9356350200040824	-0.17171777638775476	0.7155956432551024
O	0.36794889999591773	0.38820508761224526	0.9971167332551024
O	1.2538802899959178	0.6180952832122453	-0.01351964474489753
O	0.4901030299959175	0.7753263468122452	-1.1908257567448977
O	-0.6655282400040823	-0.0969071333877548	-1.4382483387448977
O	2.5023842699959173	0.8795575986122453	-0.6497507677448975
O	2.3569267599959174	1.1262348226122452	-1.9049074467448976
O	1.1475480599959178	0.8467614946122453	-2.3980599367448976
O	0.1313765599959178	1.0335878246122452	-3.500592866744898
O	-0.4949328600040823	2.1290175936122453	-3.6176236567448976
O	-1.7197283930040823	2.1723896836122454	-2.933321656744898
O	-2.005268267904082	0.8904536256122453	-2.7103440767448976
O	-1.1113460810040823	0.4780472266122452	-3.6922965667448975
O	-2.1357431630040824	2.9448105536122453	-1.9025791467448974
O	-2.692510145004082	2.456519023612245	-0.7658414649448976
O	-3.6400493100040823	1.5237200306122451	-1.1735626157448975
O	-3.0865297600040824	0.5549635416122453	-1.9317320667448974
O	-2.3774281510040822	-0.025676704387754823	0.7470388932551025
O	-3.910535650004082	0.005087978612245192	-2.9832767367448976
O	-5.162141340004082	-0.23512953938775472	-2.3743916967448975
O	-5.6242559100040825	1.1753169326122452	-2.3509133167448977
O	-6.252081690004083	0.9942250546122453	-3.6618752467448976
O	-5.430450850004083	0.8740093986122452	-4.7529441367448975
O	-4.082961620004082	0.46067243561224525	-4.383595086744897
O	-7.356888130004083	0.23447281761224525	-3.2604295267448977
O	-3.3712465500040825	-0.8942706363877547	0.6294074032551024
O	-4.607327520004082	-0.5240018063877548	1.1975564332551025
O	-4.440113910004082	-0.10836084038775473	2.4896987532551025
O	-3.3146614200040823	0.5405565556122452	2.834325153255102
O	-2.406569674004082	0.7640105392122453	1.8091924632551022
O	-4.993597970004083	-0.8729312863877549	3.5986515832551023
O	-2.5690646070040826	11.526763023612245	-5.577472656744898
O	-5.118599590004083	9.657088833612244	-3.5472503067448975
O	-4.156661270004082	5.9914749336122455	-3.7663836367448975
O	-7.276894620004082	4.965455493612246	-1.9222966667448977
O	-9.201571360004083	4.385113653612246	1.2664476532551023
O	-8.560742340004083	2.5749156036122454	8.316714573255103
O	-7.887211240004082	5.858274393612246	6.628865493255103
O	-7.039853460004083	7.542868473612246	3.389291753255102
O	-3.8239741800040825	6.630714163612246	1.5669400032551022
O	-1.8319846090040823	8.980422763612244	-0.6773623077448976
O	1.0500946999959175	8.400269393612245	-3.061808406744898
O	3.5299602099959175	10.926165923612245	-1.7435836807448974
O	8.062270849995917	7.997470813612246	-3.4544763267448975
O	5.920219209995918	6.365218563612245	-0.7758695242448975
O	2.369830479995917	5.333155883612245	0.18967924325510255
O	1.2114948399959176	7.626528193612246	2.982227253255102
O	-1.6119008990040822	6.417541553612246	5.147903213255102
O	5.606667349995917	-7.820162136387755	3.2945992232551022
O	5.202267539995917	-4.193043186387754	2.2879389032551023
O	7.817130389995917	-2.3716770863877548	4.313310343255102
O	6.654276849995917	0.09088591761224518	6.948379913255103
O	8.177109949995918	5.215985173612245	9.239964063255103
O	2.1270133599959173	5.419312513612246	8.357827413255103
O	4.658218389995917	5.630770683612246	5.566564263255103
O	4.928306119995917	2.5267344436122454	3.4379046932551027
O	7.209759029995917	1.4520359596122452	0.5947062632551025
O	5.3246335799959175	2.2110471436122454	-2.6449284067448975
O	1.9441450999959178	0.5377651566122452	-8.193988766744898
O	-0.7033883100040823	-2.015522526387755	-8.482914666744897
O	-2.7104607960040825	-4.391113426387754	-6.400361366744898
O	-3.854452750004082	-7.887757866387754	-7.208788896744898
O	-7.481995240004083	-6.930140876387754	-7.529844106744898
O	-6.699002590004082	-4.494339236387755	-10.296552296744897
O	-6.774386680004082	-8.871217576387755	-3.308151106744898
O	-6.798687160004082	-5.315397786387755	-2.4653852567448977
O	-3.942568060004082	-5.2708149463877545	-0.1380630807448976
O	-1.7794181770040822	-7.696418166387754	-2.1069341767448977
O	0.5923930899959176	-5.441587246387755	-4.070801766744897
O	2.6277279999959173	-6.380172216387755	-7.097899486744898
O	5.555378509995918	-4.925898096387755	-8.968520106744897
O	7.041336749995917	-9.906454176387756	-6.696055586744897
O	3.8643063699959175	-9.744121776387756	-4.633278026744898
O	3.602563279995917	-8.326637456387756	-1.1166370497448974
O	1.2033237899959175	-8.271357436387754	1.8674556432551022
O	-0.03698232000408219	-4.759008486387755	2.823529213255102
O	-1.8631055218040824	-3.3961521763877545	5.847989413255102
O	-0.4137232600040823	-6.221088206387755	8.116483703255103
O	-1.3356017560040823	-6.574191946387755	11.851695263255102
O	-2.808196944004082	-3.059704616387755	11.849190163255104
