68

O	-1.834862783014894	1.3048721059361703	4.079258253646809
O	-1.4633946430148939	2.40535966793617	1.4835490826468085
O	-1.4702870820148939	-4.35339723206383	5.058419313646809
O	-1.696431339534894	1.0195580089361704	-0.3811520913531914
O	-2.5868495630148938	-5.38055304206383	5.0728448136468085
O	-1.519998077014894	0.9988557619361703	-1.7017694963531915
O	-0.3036372640148939	-5.12939893206383	4.556541103646809
O	-1.941986611014894	-1.2759617420638296	0.014321004646808522
O	-2.152349832014894	1.5983245649361704	2.3323553536468085
O	-2.602444585014894	0.43098389993617037	1.6907809536468084
O	-2.245190133014894	0.08817384793617034	0.3911444706468086
O	-1.539597542014894	2.2526959879361703	0.12128057164680855
O	-0.9988588660148939	2.1878461579361703	-2.0930349363531913
O	-1.219273220014894	3.0053280479361706	-1.0066184063531916
O	-1.501495444014894	-2.0696756420638294	1.1299559466468085
O	-2.330498017014894	-3.0582908720638295	1.4999094246468085
O	-2.171287366014894	-3.84665718206383	2.6000112336468084
O	-1.7339429035148939	-3.1686566120638298	3.750086553646809
O	-0.713132243014894	-2.2741910520638293	3.4019594736468086
O	-0.9004903100148939	-1.4994369820638296	2.2487528736468088
O	-1.252399980014894	-3.62672327206383	6.632024633646808
O	-12.412979624014895	-3.3041629020638292	1.0150738836468085
O	-10.768559264014895	-1.2646361820638297	3.7565305536468085
O	-7.024492434014894	-1.3117867920638293	3.303252343646809
O	-6.483626784014894	0.4840774529361704	6.653312253646809
O	-6.433654854014894	3.8079132379361704	8.510148083646808
O	-9.316851464014894	5.77490596793617	5.9007418236468085
O	-7.952069334014894	3.9826113679361703	2.8237249536468085
O	-9.962798834014894	1.6558020549361703	0.5790618959468086
O	-9.099560764014894	-0.6296295220638296	-2.306888806353191
O	-11.434059374014895	0.5917009799361703	-5.022305806353192
O	-7.954849924014893	-0.8244292020638296	-9.274933946353192
O	-6.667984234014893	1.8744015329361705	-6.9448733863531915
O	-6.161243404014893	2.8713307279361704	-3.360388536353191
O	-8.673057594014894	5.53483814793617	-2.362612156353191
O	-7.791853874014894	7.68714780793617	0.6295186157468086
O	3.5649626659851066	5.40528252793617	-5.0429785963531915
O	-0.7206454950148939	9.89983542793617	-6.8890792863531916
O	-6.443007494014894	8.28373195793617	-5.6403906363531915
O	-3.1964194840148936	6.31171326793617	-5.549746156353192
O	-1.709283579314894	3.5118472979361703	-7.6010855563531905
O	-2.505354235014894	0.22208389393617034	-5.853360706353191
O	-0.9161529480148939	-5.43061596206383	-2.7143567363531913
O	1.3103356759851061	-5.57890371206383	0.28450713764680857
O	3.2343276659851066	-3.4156165720638296	2.6919589536468087
O	6.663059465985106	-4.13364994206383	4.236422543646809
O	5.179919985985106	-4.66512627206383	7.709357533646808
O	3.211576225985106	-7.59157104206383	6.495891783646809
O	6.060327815985106	-8.95968980206383	4.467044523646808
O	8.330298175985105	-8.77695121206383	7.520720153646809
O	5.784024325985106	-10.551484202063829	9.72563796364681
O	14.797694575985105	-2.6535997420638293	-0.8423252163531915
O	7.021221875985106	-0.3255306520638296	7.3848600636468085
O	3.325628995985106	0.23271424893617032	6.999074813646809
O	3.7765422959851067	2.8782969279361703	4.2659558136468085
O	6.518983595985106	1.0867643589361704	2.3062222936468086
O	4.694975625985106	-0.9222758420638296	-0.3758630593531914
O	5.994230145985107	-3.85879490206383	-2.3868295063531915
O	4.9915221459851065	-5.71997121206383	-5.534166966353191
O	5.7112647459851065	-9.07029089206383	-7.179818186353192
O	9.997280375985106	-3.187794262063829	-6.326622896353191
O	9.357180775985105	-1.2161606620638294	-3.1413835463531914
O	7.738010885985106	2.22805852793617	-3.0096938563531914
O	7.289931745985107	5.13959170793617	-0.6201421663531915
O	3.6865585759851065	5.97977308793617	0.21022429564680856
O	2.046507245985106	9.01662087793617	1.8511047636468088
O	4.8736067059851065	11.33335029793617	0.6925854748468085
O	-1.531467324014894	-12.40172220206383	-2.0330868063531913
