74

O	-5.056176687285714	-1.6611696109183671	3.105292038857143
O	-4.439546097285714	-1.0436192209183672	2.086452158857143
O	-3.134613947285714	-1.3566433309183672	2.243605688857143
O	-2.7339144752857143	-0.8260492629183672	3.5069292588571432
O	-3.1810651972857142	-1.8538333009183672	4.344261078857143
O	-4.437583937285714	-2.3148527209183674	4.102297408857143
O	-2.163161320285714	-1.6643008909183672	1.2464091188571431
O	-1.4266236022857142	-0.6387935989183673	0.9632650538571431
O	-0.19205491728571422	-0.9621056809183673	0.46898113685714315
O	-0.2973405872857142	-2.188897300918367	1.0069163598571431
O	-1.4215545132857141	-2.707221300918367	1.311510408857143
O	-1.7863545536857142	0.5772070720816328	0.5866536058571431
O	0.5715260027142857	-0.10665382491836724	-0.22468187614285692
O	0.05632414271428576	0.9799082950816328	-0.9515518911428568
O	-1.0807802462857141	1.3737696990816328	-0.37046592414285684
O	-2.991022177285714	1.216703289081633	1.299239118857143
O	-1.8964542170857142	2.514925639081633	-0.026508023142856885
O	-2.512445670285714	2.455305589081633	1.158524828857143
O	0.3541747327142857	-2.932398370918367	-0.1410671031428569
O	1.2574178927142858	-3.530629700918367	0.6587047868571432
O	0.8881156627142857	-2.2654467509183673	-1.084631801142857
O	-4.718310867285714	-3.9041868909183672	4.725942168857143
O	-6.1656183072857145	-4.092769560918367	4.743071128857143
O	-4.438639397285714	-3.897225860918367	6.144695288857143
O	-3.549909887285714	-4.950500400918367	4.092192218857143
O	-11.268703677285714	-5.491719350918367	-3.330594491142857
O	-8.137773417285715	-7.504159460918367	-2.552893681142857
O	-5.902660077285714	-5.558956700918367	-0.1534659691428569
O	-3.473160317285714	-8.394485440918368	0.3821661638571431
O	-0.6830792072857141	-10.488896830918367	-1.257433201142857
O	5.612447862714286	-9.831187860918368	-5.039912281142857
O	2.039553222714286	-10.062578030918369	-6.383352981142857
O	-1.5961919662857142	-9.406127270918368	-5.424483161142857
O	-2.710200098285714	-5.884476460918367	-4.296768981142857
O	-6.090264937285714	-4.407266050918367	-4.852505101142857
O	-7.866033347285714	-1.2935967209183672	-3.772579501142857
O	-8.933832517285715	0.19117941308163278	-7.113624301142857
O	-8.755855227285714	5.538547149081633	-5.252283001142857
O	-5.413983227285714	3.685131579081633	-5.376202551142857
O	-3.6252036572857143	0.5516275770816328	-4.347841411142857
O	-2.9629949772857143	-1.4865659609183672	-7.401229761142857
O	-0.2298659072857141	-4.021588600918367	-7.335143841142857
O	7.158243532714286	7.162411539081633	1.653472588857143
O	4.044839042714286	5.865010179081633	-0.037650922142856896
O	3.9757867827142856	7.641738549081633	-3.406023071142857
O	4.303634622714286	5.526415169081633	-6.520797701142857
O	1.7923756727142859	7.228655039081633	-8.810920921142857
O	2.341470282714286	5.2876656490816325	-12.000215291142856
O	2.2885553727142858	-0.4403142139183672	-9.925483391142857
O	-0.20221649728571411	2.203436509081633	-8.865327751142857
O	0.3545785827142858	3.499463549081633	-5.322124631142857
O	-1.2636386762857141	6.3357666390816325	-3.3511249011428568
O	-3.905810867285714	4.499763699081633	-1.155090441142857
O	-6.360088747285714	2.370198189081633	4.868533318857143
O	-4.464159907285714	0.6280605310816327	7.549092208857143
O	-1.0419082712857142	-0.8221146879183673	8.295292138857143
O	0.9848371527142858	-0.9399007509183673	11.490580808857143
O	0.4205392527142857	-4.708956470918367	11.947139008857143
O	-3.262209527285714	-4.101233430918367	12.326654308857144
O	4.656167242714286	-3.9857294909183674	10.109562988857142
O	2.523422552714286	-5.033985260918367	7.098065848857143
O	4.250135982714286	-2.473071870918367	4.889631248857143
O	4.190099302714286	0.45133972008163276	7.238841008857143
O	0.985606562714286	2.337356609081633	6.521935198857143
O	-0.8164802472857142	4.851401049081633	8.644861538857143
O	-3.5528881672857144	7.389446469081633	8.114288778857144
O	1.3240047127142858	10.013836089081632	9.557080438857144
O	3.1238766527142863	6.730105789081633	8.925140418857143
O	4.656524822714286	5.747994569081633	5.588390738857143
O	7.0346760527142855	3.1963265390816327	4.152358138857143
O	5.556210182714286	1.075996269081633	1.432577338857143
O	7.166661012714286	-1.3175717109183671	-1.145158801142857
O	10.471792302714286	0.6530938590816328	-1.136235091142857
O	11.263164702714286	-3.007485290918367	-5.219197101142857
