68

O	-0.031205247386363322	-0.9664029854318186	1.8286938585909085
O	-0.4559533743863634	-1.0114066054318185	0.5390228285909087
O	0.6250107626136366	-1.2224915354318184	-0.21363645240909146
O	1.6100890826136367	-1.5970159954318184	0.5443881885909085
O	1.3106683526136367	-1.3305623154318185	1.8110220685909084
O	-1.6187892683863634	-0.5897705154318185	0.018807968590908608
O	-1.6519104313863635	-0.3830951574318185	-1.2944673764090915
O	-0.5989892543863633	-0.7138971754318186	-2.1046465014090914
O	0.5292925426136367	-1.2470382154318185	-1.5316886554090914
O	1.5721650526136366	-1.5154480454318184	-2.4939410914090914
O	-2.7944312173863635	0.2546773245681815	-1.9650217854090914
O	1.6815458026136367	-0.9734500554318186	-3.7889459614090915
O	1.2708759426136367	-1.5137985554318185	-5.079958531409092
O	2.100475782613637	-2.065713025431818	-6.058829921409091
O	1.7110613026136368	-2.5898436554318183	-7.272217001409091
O	0.5809862326136367	-2.0465923854318184	-7.814899151409092
O	-0.23535979138636343	-1.2948751654318185	-7.019169721409092
O	0.15526111261363662	-0.9261066654318186	-5.721517831409091
O	-3.7763697373863634	-0.7248222554318184	-2.2379677414090917
O	-5.085158037386363	-0.4112004764318185	-2.4882479414090914
O	-5.487787047386363	0.8970428515681815	-2.3347470114090916
O	-4.732149727386363	1.6216014445681814	-1.4218594904090915
O	-3.4214873273863633	1.2301839685681815	-1.1548672014090915
O	-1.1518774963863634	-0.8447729654318186	3.3412335185909083
O	-0.8160687553863634	-11.229130485431819	-6.022674381409091
O	-3.588230987386363	-8.575507765431817	-6.098503951409091
O	-2.2419963073863634	-5.160307885431818	-5.088954741409092
O	-5.334265727386363	-3.2264562254318183	-6.044537991409092
O	-8.749602047386364	-2.3311855454318184	-4.841779821409091
O	-12.700000417386363	-0.41288757643181845	0.8438725485909087
O	-11.770203017386363	-3.894330405431818	-0.2514915714090914
O	-9.247632907386363	-5.849325565431818	-2.235546531409091
O	-5.559235657386363	-5.706948195431818	-1.2554338954090913
O	-3.015105827386363	-8.517933075431818	-1.7864023824090913
O	0.7524724426136365	-8.796588225431819	-1.4499076654090914
O	1.138715422613637	-11.757629585431818	0.8785280485909086
O	5.9972557226136365	-9.903452085431818	3.136342128590909
O	2.946414722613637	-7.723594265431819	3.773759328590909
O	-0.023098544386363384	-5.998802115431818	2.1778804985909086
O	-3.2307203873863632	-7.858439025431819	3.1491359885909085
O	-6.477319897386363	-5.889914785431818	2.9043547085909087
O	2.0558299426136366	2.7891044945681815	6.866147198590909
O	-0.8579099503863634	-1.5424310954318186	10.638045688590909
O	-2.2099126373863633	-6.589764205431818	7.637150138590908
O	-0.02882118638636333	-3.652826385431818	6.627829838590909
O	3.7105860226136365	-3.1701462954318185	6.259102908590908
O	4.479159032613636	-3.5759185654318184	2.4983483385909087
O	6.847380512613637	-1.4137614154318185	-3.1690614814090914
O	5.6099173226136365	1.7483437245681814	-4.9005530714090915
O	2.8697210626136367	4.403849434568182	-4.724259061409091
O	3.1970434126136364	8.195661364568181	-5.580385031409092
O	0.8134420926136366	7.874229364568182	-8.569986531409091
O	3.135757022613637	5.444400814568182	-10.209343121409091
O	7.784259382613637	14.254049314568181	0.3162212885909086
O	-1.5211228513863633	9.609403664568182	-4.922219831409091
O	-2.5693642973863633	5.935341994568182	-4.961014121409091
O	-2.416318197386363	5.722799844568182	-1.1890880274090914
O	0.8696708426136367	7.580908944568182	-0.6618969544090914
O	3.571110622613637	4.876352614568182	-0.6436513974090914
O	7.316710322613636	5.355808714568182	-1.1407433824090913
O	10.453124182613637	3.298555944568182	-0.49440916440909144
O	10.554272982613636	7.943892494568182	2.7014504685909086
O	6.880529782613637	8.43904161456818	1.8579983785909087
O	3.978773672613637	7.129941984568181	3.9258280585909087
O	0.2444574026136367	7.635986594568181	4.317938668590909
O	-1.8552822313863633	4.512395484568182	3.678037118590909
O	-5.454240157386363	3.7616105145681815	4.568584838590908
O	-5.540151937386363	6.265601854568182	7.485287928590909
