19

O	-1.6787677876082296	30.1976968796159	9.425140330772328
O	-0.8304077762122343	31.342053567009668	8.94781700058403
O	0.13406221946692495	30.5810763297624	8.088849863283672
O	-0.004856382927203723	29.422376766307703	8.732450988279306
O	0.683111566227343	28.07627041780779	8.928955583868575
O	1.5634461540909572	29.015141743212148	9.753092921613977
O	0.86286028957385	30.22370619979768	10.28717070108157
O	-0.7251130242880144	30.522358920982644	10.530013806752146
O	-0.6412395455988861	29.20254709309179	9.93811851079342
O	1.490815553530427	31.089583165893934	8.131245334796652
O	2.6692244872299806	30.604530920746473	7.744164562228928
O	2.418927475643338	31.137990691737762	6.476474608023609
O	2.1981586701079063	32.51011831717894	6.284040116961568
O	0.8709968761517581	32.88725257149407	6.814134503804339
O	1.1813046842136412	32.61005750395001	8.228174582651459
O	3.519123812942148	30.53866182773946	5.8454376685454275
O	3.708530744563944	29.13715757686323	6.010501474498908
O	2.328037139601297	28.688033064806337	6.569535862177718
O	3.4162219507069795	28.580561385388656	7.332449401775203
