67

O	2.2298171961224487	0.32497508487755056	-1.5283731641775513
O	1.576522886122449	0.3215904768775505	2.0272586958224488
O	0.8196697441224489	1.0450777677775505	2.854982165822449
O	1.276731056122449	1.4281922638775506	4.152341995822449
O	3.348195186122449	-0.3226682931224495	-2.2191745341775513
O	-0.4182749348775511	1.3878694328775505	2.5182394658224485
O	-0.7864456338775512	1.3385656018775505	1.2594019458224486
O	0.07588886392244891	0.9165826425775505	0.2969843648224487
O	1.306342616122449	0.4860476768775505	0.7092193978224487
O	2.210895966122449	-0.006739779122449496	-0.1854844421775513
O	4.637348496122449	-0.5669350231224496	-1.5286422541775513
O	-0.35642056187755106	1.0678551698775505	-1.0372231751775514
O	5.483157516122449	-1.3605434231224498	-2.5219724341775516
O	-0.5445880348775511	0.0388097138775505	-1.8829128341775514
O	5.308338256122449	-0.8844090531224494	-3.9377688441775516
O	-2.060196883877551	1.7735415278775504	0.9158715878224486
O	3.9585876961224487	-1.4384097531224498	-4.391948724177551
O	3.0830071361224487	-1.4267951731224495	-3.1553041841775515
O	9.19100531612245	8.40018428687755	4.222492555822449
O	9.456339146122449	6.2638715268775504	1.0874854058224486
O	7.308683036122449	3.1373542168775503	1.3597916158224486
O	8.62803385612245	1.7142880708775505	-1.8899664741775513
O	8.480851546122448	1.8115335368775505	-5.679518784177551
O	4.019250306122449	2.2413123468775504	-11.297590124177551
O	5.590820666122449	5.112967696877551	-9.387655194177551
O	7.079885056122449	5.949259136877551	-5.998730154177551
O	4.979657856122449	5.5323575568775505	-2.8402140641775513
O	5.3465943561224485	7.58929716687755	0.3306313288224487
O	3.8849275561224488	7.4798524068775505	3.8062028658224487
O	2.351780816122449	10.92034955687755	4.189312165822449
O	-1.778101373877551	9.20525867687755	7.697869025822449
O	-1.921983533877551	7.7777286368775504	4.188570865822449
O	0.0777663401224489	6.0783554068775505	1.4548440658224486
O	0.7083434451224488	8.54693163687755	-1.3662765641775514
O	1.4982564161224488	7.10236847687755	-4.779367294177551
O	-9.195882663877551	-4.150558103122449	-0.6773293421775514
O	-6.975900863877551	-1.2372203731224496	0.2892848098224487
O	-8.484495103877551	4.409334236877551	-2.5658176941775515
O	-8.66500821387755	10.166115766877551	-3.3059710941775515
O	-3.3286080538775513	8.28931695687755	-5.643378064177551
O	-4.0730230238775516	8.544080686877551	-1.9303126041775513
O	-4.553741283877551	5.140905476877551	-0.2654841931775513
O	-5.523644673877551	4.04076051687755	3.2312021958224486
O	-2.268070003877551	3.2493281868775505	5.077529675822449
O	1.9865538661224489	-0.7986203831224495	8.362285735822448
O	3.3113228461224486	-3.9682156431224493	6.7627804358224495
O	3.197420966122449	-6.09324799312245	3.630294595822449
O	3.140101046122449	-9.879135293122449	3.3869889358224485
O	6.655128116122449	-10.08587679312245	1.9565217958224488
O	8.06422638612245	-8.45030293312245	5.024197875822449
O	-5.141911423877551	-14.79450539312245	4.9141447358224495
O	3.4661618261224487	-10.58634329312245	-1.5152392941775514
O	4.619285896122449	-6.973677433122449	-1.8251860041775514
O	1.1175405861224488	-5.73219424312245	-2.6174731241775513
O	-0.7084605308775511	-7.71717117312245	0.0327443905224487
O	-0.9419435098775512	-5.58248178312245	3.1622866758224486
O	-1.6434887338775512	-6.67256084312245	6.725228655822449
O	-2.6695955138775513	-4.99926610312245	9.967079675822449
O	-6.770340143877551	-8.50680332312245	8.272352375822448
O	-5.022857823877551	-8.715911803122449	4.907504855822449
O	-5.813301413877551	-6.4862320931224495	1.9253849958224487
O	-5.207278793877551	-6.32734917312245	-1.8198229041775513
O	-3.283658403877551	-3.23954069312245	-2.9791777541775515
O	-2.8176133638775513	-1.7198542031224497	-6.448574054177551
O	-6.069742403877551	-3.20679755312245	-7.756131184177551
O	-6.932331273877551	-2.77547050312245	-11.46684872417755
O	-4.3689551238775515	-0.0037750441224494447	-11.90894762417755
