30

O	-1.8143314348143889	29.084170987147214	7.950326646068788
O	-4.955783045967637	30.22008848004806	11.565554881735086
O	-0.4095238673594841	29.54580734759205	12.50520658926134
O	-1.4250716146530344	32.64541820265219	9.511094980770231
O	0.23383560720525876	29.197720016224984	9.772295429758966
O	-2.7059026869186518	32.29233704978838	10.156081687888076
O	-0.3765418418303814	30.436062894596514	10.30646780184957
O	-0.6420707776301953	31.352070833670055	9.372400149272059
O	0.3034517180763483	31.06206958246797	8.479489060637203
O	0.5060985965980918	29.73878720297329	8.669195569605446
O	1.689720469712123	29.24391779035508	8.198222815105838
O	2.441799488032613	29.783240496093647	7.241828468608334
O	2.1213653843404057	31.090581916154463	7.065404246306966
O	1.0122764549038576	31.73214413162815	7.5817258357925965
O	0.6773775791224461	32.9593792315763	7.5699775045192865
O	-0.9908854823140496	28.39519375547097	10.266275160594041
O	-2.20616207436632	28.362982780714184	9.589865961497804
O	-3.3795410247742144	29.013567948393693	10.006501928346783
O	-3.1487976299901854	29.93143900944507	11.06767557818941
O	-2.75377209841687	28.84154473491507	12.001954770659351
O	-1.4448132255739468	28.413734238361442	11.606563449183641
O	3.638146161643281	28.834189086439363	7.042759260672051
O	3.4486822025265944	27.52173137766702	7.573560632748897
O	3.0243427088556416	27.639717900016716	8.866396354851663
O	2.2386685708012974	26.655029797926407	9.457881452643212
O	1.2547877131807725	26.66904573018543	10.468525483474092
O	2.9665052632339055	25.450558073519424	9.303861427115253
O	2.241075498897907	24.506779855038584	10.044777576146691
O	4.103449074502458	25.422810156893412	8.481522721489583
O	4.16113631571059	26.378176845008937	7.434827646165349
