18

O	-0.8568444309819779	28.935432460020387	9.920766128298025
O	1.8173439417658805	30.328868995679773	7.926681375072508
O	1.9126746921776134	31.28404714259705	6.999355414519505
O	2.7444291071706157	31.13577293968437	5.848258701624795
O	-0.844364982150947	27.66099634377692	10.644005131220785
O	1.2746831236891265	32.43934598982202	7.146529230356386
O	0.27895538271421294	32.52793152495993	7.997018090912771
O	-0.09264634103668873	31.45821213019319	8.749049060766197
O	0.657011476397206	30.32133010464654	8.627283169913834
O	0.3872399946807492	29.22083719656325	9.387342317618012
O	0.014303221868075755	26.536559142175093	10.200443166156775
O	-1.27905918444461	31.604644706262768	9.497959364211454
O	-0.15444504014532756	25.455423189349226	11.265610342208268
O	-1.326249852103535	31.550262713284713	10.841219647058612
O	-1.5700052408477552	25.35164626607548	11.762767113171183
O	-0.42590500922641295	33.72191482775673	8.08207754341217
O	-1.7613338922221518	26.540446098706237	12.703602390102253
O	-0.9257553359934033	27.658273528345326	12.113402214104777
