71

O	0.05860509366386368	-0.9621454016499998	-0.991600789018182
O	-1.0366867423361363	-0.9092408006499999	-1.840192654018182
O	-1.3974342313361363	0.46983790135000014	-1.7548237060181822
O	-0.5544598253361364	1.58318933135	-1.734019423018182
O	0.7647082096638638	1.3265702013500003	-1.096357576018182
O	-0.09729096833613637	0.2590310803500001	-0.19888360401818206
O	-2.401296120336136	0.1599420883500001	-0.7511888316181821
O	-2.8613144103361363	-1.12912960065	-0.5280006890181821
O	-2.1794123903361364	-2.4243730986500003	-0.1887552600181821
O	-3.1138886303361364	-3.59181049865	-0.1520881620181821
O	-4.417966820336137	-3.53000517865	-0.7500630543181821
O	-4.834329030336136	-2.17785248865	-1.317947083018182
O	-3.416266520336136	-1.7209264686499999	-1.7485297280181822
O	-5.577204410336137	-3.64939432865	0.6768917259818179
O	-7.144725850336137	-4.19807804865	-0.904850573918182
O	-7.111909950336136	-2.78174712865	-1.1320304340181822
O	0.9323606196638636	-1.8654889286499998	-0.3525902160181821
O	1.7412546296638638	-2.60984749865	-1.091820315018182
O	2.2009172896638636	-1.1705243856499998	-1.444135990018182
O	3.052266379663864	-1.8035125186499998	-0.41121631701818206
O	2.038642879663864	-0.8371787016499999	0.19326694598181793
O	2.492127019663864	-3.71122763865	-1.163117158018182
O	4.003650419663863	-3.81226725865	-0.7137892930181821
O	1.3599355996638636	-1.46113423865	-2.545477544018182
O	-5.407808640336137	-5.62452500865	0.4687618459818179
O	2.997948829663864	-4.76160389865	-0.306221894018182
O	-6.068200190336137	-3.24068426865	1.216800985981818
O	-5.152922860336137	-3.68801502865	-11.197705654018181
O	-3.207552730336136	-6.16131522865	-9.048741314018182
O	-2.9763269203361364	-4.8832438186500005	-5.494510464018182
O	-1.3768531813361364	-8.05517244865	-4.2054267140181825
O	1.7274475196638637	-10.12108432865	-3.922171274018182
O	3.6838774696638636	-8.57751355865	-7.568396404018182
O	2.2791418596638637	-5.13100678865	-6.958373824018182
O	-0.06066838033613631	-3.13143449865	-9.152772494018182
O	-2.0448962203361365	0.05926906535000012	-8.87228416401818
O	-0.7770342865461364	2.13140018135	-11.79520045401818
O	-1.7189011663361362	7.11815277135	-9.195679664018181
O	0.8639142196638636	4.88641805135	-7.5523424640181815
O	1.6981219896638637	1.45825133135	-6.422491164018181
O	4.111828479663863	-0.2885703306499999	-8.734609254018181
O	6.114522469663864	-3.20809351865	-7.4214688240181825
O	6.384406009663863	5.72884097135	6.155423705981818
O	4.992004939663863	5.06835101135	2.692720185981818
O	9.226575079663863	5.6175849613499995	-2.1763913940181823
O	7.184274779663864	3.15890822135	-7.330714714018182
O	5.390394729663864	3.94976517135	-4.082515294018182
O	2.872193649663864	6.53743561135	-2.985339334018182
O	-0.48700397633613635	4.72008500135	-3.152950654018182
O	-6.339830450336136	2.64449094135	-0.645434097018182
O	-6.436042220336136	0.16997908535000014	2.186323055981818
O	-4.391201220336136	-1.8477014186499998	4.645593735981818
O	-4.9584671003361365	-2.63483355865	8.263771825981818
O	-5.847173530336136	-6.29176303865	7.5704602659818185
O	-8.795249820336135	-5.27261034865	5.495663605981818
O	-2.6351261903361363	3.9478196713499996	14.923509545981819
O	-1.3665766003361364	-5.94706609865	9.053023765981818
O	-1.0293834633361363	-6.38540470865	5.286474865981818
O	1.8315042296638637	-3.86339423865	5.171179045981818
O	0.3759030296638637	-1.20617337865	7.418717055981819
O	-1.5559140963361364	1.1815183213500002	5.127169405981817
O	-4.2479582403361364	3.67036170135	6.062706565981818
O	-5.930659320336137	6.66570565135	4.4620135959818175
O	-3.0754143703361363	8.31776335135	9.083041525981818
O	-1.3659303373361364	4.92115790135	9.072941955981818
O	1.9426460396638636	4.15172900135	7.356752535981819
O	4.663051099663864	1.5119892013500003	7.310003215981819
O	5.173689009663864	-0.14114390304999988	3.9308795259818177
O	7.967364939663865	-2.3617864386500003	2.540030525981818
O	10.583503819663864	-0.7870904596499999	4.892049205981818
O	-13.289278680336135	2.36743996135	-0.7849291042181821
