79

O	0.4357540368469386	-4.326200075367346	-2.0307562700020405
O	-3.055853973153061	-0.9585611453673467	-0.8139869000020403
O	0.0292260598469386	-1.4669925553673466	-1.3992096590020402
O	-3.3821429431530614	2.2214206046326535	-7.27788438000204
O	-2.7047893231530615	4.887183644632653	-7.35083694000204
O	-3.1165458731530613	3.7181773646326532	-6.52371444000204
O	-0.6514606351530614	-0.43123209536734664	-0.6773593900020403
O	-0.33138241515306144	0.7581956112326532	-1.3440485250020402
O	-0.7696269991530614	1.0347636116326533	-2.74966110000204
O	-0.7604299461530614	-0.3064258553673468	-3.1454849100020406
O	-0.4804457721530614	-1.5788308553673467	-2.67212829700204
O	0.9911274968469386	1.2748155176326532	-0.8889840400020402
O	0.7883822668469387	2.3024868946326533	-1.9670202660020402
O	0.5628989568469387	1.5339839076326531	-2.97981200000204
O	-2.0221052131530612	3.592791814632653	-5.1864051800020405
O	-2.4779564531530616	3.236500474632653	-3.97667185000204
O	-1.6127220831530615	3.420153624632653	-2.9126178400020404
O	-0.3834070231530614	4.073814804632653	-2.89918285000204
O	0.031708073846938634	4.086722244632654	-4.1712963600020405
O	-0.9002394446530614	4.354957364632654	-5.13336332000204
O	-0.5830792031530614	-2.535782215367347	-0.5447079000020403
O	-1.6859727811530614	-3.190571065367347	-1.2421187110020404
O	-2.557804103153061	-2.2218161253673467	-1.8499429570020403
O	-3.4231033631530616	-2.4752350053673466	-2.9262377400020405
O	-3.011614953153061	-3.3516171153673464	-3.8662312000020407
O	-2.0099333631530616	-4.221365295367346	-3.4509397700020403
O	-1.1907387541530614	-3.848846475367347	-2.3844609480020402
O	0.36302808684693866	-2.932336555367347	0.12577632999795973
O	-4.507059693153061	4.063969034632653	-6.25531684000204
O	0.4458670068469386	3.522502824632653	-1.8340603890020404
O	6.504858066846939	2.3966307246326535	-11.271360200002041
O	3.9299241668469387	-0.3803829853673467	-10.887862540002041
O	1.4737376468469388	0.6275896936326533	-8.10969305000204
O	-0.9177165166530614	-2.260540335367347	-8.72266511000204
O	-1.5227096501530615	-5.930445025367346	-8.32314962000204
O	-0.9947829981530614	-11.483074955367348	-3.87051590000204
O	1.6847816068469388	-10.196335255367348	-6.23265591000204
O	2.7257824868469385	-7.043994165367346	-8.072281190002041
O	3.4706231868469386	-3.8381842153673467	-6.11047181000204
O	5.898226586846939	-1.130721875367347	-7.09685833000204
O	6.763288386846939	2.3173763746326532	-5.86699850000204
O	10.51823676684694	2.008053814632653	-5.26283968000204
O	10.577169066846938	5.809982344632654	-1.0601629510020403
O	8.599488016846939	2.6376439846326534	-0.37850184000204035
O	5.932168236846938	0.27441356463265326	-1.7111481699020403
O	7.596821766846938	-2.933286525367347	-2.78110023000204
O	5.480566556846939	-6.006738275367346	-3.03782029000204
O	-1.5817155821530613	0.24324274063265328	10.020096219997958
O	0.7193075868469385	0.6252818806326532	6.98275322999796
O	5.897620196846939	-3.257509345367347	7.144931809997959
O	11.27388026684694	-5.119095245367347	5.93197425999796
O	7.695979596846939	-7.081786115367346	1.3858934899979596
O	8.746900196846939	-3.493187305367347	1.8370982499979596
O	5.989386066846939	-1.2022871553673466	3.06592596999796
O	5.861913416846939	2.452903134632653	4.10036961999796
O	4.606346986846939	4.388825714632653	1.0861351499979597
O	0.11407579084693864	8.077625794632652	-2.34743199600204
O	-3.468500093153062	7.172217134632653	-2.55011594500204
O	-6.055870333153061	4.656454374632653	-1.5402842510020403
O	-9.616515773153061	5.096050844632654	-0.6018705700020404
O	-10.975119933153062	3.6165815246326534	-3.85718200000204
O	-9.394004983153062	6.299969684632654	-5.78768121000204
O	-11.753562933153061	7.737592654632653	8.508124419997959
O	-11.183070233153062	0.4437104626326533	-0.5242431200020403
O	-8.091103633153061	-0.4543301653673467	-2.5867371070020404
O	-6.329466973153061	-1.400971925367347	0.7049842399979596
O	-7.195511493153061	1.5819119686326533	2.80576525999796
O	-4.465681843153061	4.2029839546326535	2.2373459899979595
O	-4.670622883153062	7.881785584632653	2.9184082699979603
O	-2.2350349731530614	10.754263444632652	3.1828713999979596
O	-4.736112613153061	9.869889184632653	8.21474666999796
O	-6.034023503153061	6.579578334632654	6.86972022999796
O	-4.251925273153061	3.2329486646326533	7.25711417999796
O	-4.9300713331530615	-0.4835605353673468	6.83063620999796
O	-2.7555580831530615	-2.224873615367347	4.1773290999979595
O	-2.1207121131530613	-5.895488635367347	3.43520174999796
O	-2.8585410631530612	-6.922373815367346	7.06994018999796
O	-2.898615773153061	-10.638353755367348	7.986879379997959
O	-1.0245320681530614	-11.607986355367347	4.83738622999796
