19

O	1.0402908894189067	28.486639203383106	9.221502173268272
O	0.16448639620025218	29.537826252133875	8.863761337025242
O	0.44723154272701426	27.43208970480199	9.989941524410707
O	2.0308644927164132	28.588575159414138	8.284413438881348
O	0.6904349416154337	30.76839351529157	8.407471688349236
O	-1.186323622413307	29.577471309772015	9.26730780225917
O	0.32416327274479906	27.226784722902142	11.351145721002668
O	2.6082213143670696	29.639320206733718	7.697668880977771
O	1.9832773468602363	30.745936650069954	8.050976435741807
O	0.2400729486892591	31.935120568796112	9.05952243169406
O	-1.6899985618450772	30.922213233382294	9.032380547123969
O	-0.8296859546954933	27.16996784963181	12.125009195273282
O	1.173885802469131	26.140067219149987	11.75092271046364
O	3.1044437726647067	29.76508897048719	6.542074064570039
O	-0.8125080977911483	31.68547823565622	9.831618730048959
O	-1.4737746759961632	25.913803861858824	12.55905260864908
O	0.5188307742069685	25.0145951251426	12.437288649828218
O	-1.7179241964376275	32.2160321290463	10.760093446808508
O	-0.4982996229387865	25.24452488020655	13.328508927611256
