75

O	9.065421465018183	1.514836035022727	-5.366829119799999
O	9.332260305018183	1.624072774022727	-3.9339870897999996
O	10.728114955018183	1.345253574512727	-3.7445233497999992
O	8.623360795018183	0.47968134202272705	-3.3296931297999994
O	7.154550435018182	0.493734037022727	-3.5929338797999995
O	6.274472375018182	0.1787529840227271	-2.503991019799999
O	4.933471465018182	-0.6076602859772731	-3.1757432797999994
O	4.4318809550181815	0.2177482240227271	-4.306268009799999
O	5.361025925018182	-1.982616525977273	-3.5531428597999994
O	3.7448247850181815	-0.7469079259772728	-1.9585146397999993
O	2.825427715018182	0.2229784540227271	-1.8478270597999993
O	1.6626664550181818	-0.07484268597727306	-1.1351967027999992
O	1.871905605018182	-0.729126055977273	0.07564296720000074
O	3.056142865018182	-1.392552675977273	0.15196878120000068
O	4.140155065018182	-1.2282902259772728	-0.7162976482999993
O	0.9653365550181818	-0.509434755977273	1.2263096602000005
O	0.4334365110181819	-1.4797012159772729	2.0101387602000007
O	-0.537833785581818	-1.281689515977273	2.9333923502000006
O	-1.421531392981818	-0.34739203597727286	2.661292600200001
O	-0.9573464719818181	0.623592202022727	1.8415536402000008
O	0.2505111900181819	0.5879635610227271	1.2162165202000006
O	-2.0212800149818184	1.519201102022727	1.3355147702000005
O	-2.9354711449818183	1.820854452022727	2.1304689402000005
O	-1.3908264739818181	2.500948764022727	0.5964706702000008
O	-1.8706911549818181	3.795258554022727	0.7500278902000007
O	-1.486252676981818	4.679281774022726	-0.15919070179999928
O	-1.845164414981818	5.967631754022728	0.12911377220000075
O	-3.1394791449818182	6.211892404022727	0.47502410020000074
O	-3.633059874981818	5.307650404022727	1.3682409802000008
O	-3.1410768849818185	4.038200884022727	1.2966116902000007
O	-2.697433084981818	-0.27276204597727305	3.2529501602000006
O	9.608767255018183	2.750431974022727	6.9671692702
O	8.305449345018182	4.875279654022727	4.117045350200001
O	5.769810205018182	2.877402384022727	1.9974915302000005
O	5.4572469450181815	5.625073254022727	-0.5508349065999992
O	4.139035645018182	8.906164164022726	-1.5212381297999993
O	3.4431702050181823	10.310561484022726	2.5938701002000006
O	2.6022086950181817	6.781339454022728	3.7337982602000004
O	4.544592705018181	4.846864164022727	6.372122010200001
O	4.4688686550181815	1.293044877022727	7.637441150200001
O	3.8563565650181815	1.8051662540227271	11.361817720200001
O	1.1184372550181818	-3.1234286259772728	11.9852018202
O	-0.6025652767818181	-0.5620447359772729	9.7077469202
O	-0.12513288898181812	1.771726791022727	6.8202453502000004
O	-0.15670731398181809	5.276357654022727	8.1492671902
O	-0.8271356889818181	8.100787834022727	5.9374772602000006
O	-8.219453304981817	-2.105013385977273	2.0469172702000007
O	-4.727016934981818	4.393547414022727	9.349817850200001
O	-5.139108124981818	1.534537661022727	6.914171660200001
O	-4.852267284981818	-2.235568385977273	7.1746410102
O	-1.362822404981818	-3.0542030559772733	5.895139810200001
O	3.0940910450181818	-6.113621775977274	1.8761024902000005
O	3.022510685018182	-5.635351135977272	-1.8016818797999994
O	1.3020301250181818	-3.691941045977273	-4.527647619799999
O	0.4474134580181819	-5.017688275977273	-8.0364226798
O	3.042506735018182	-2.800630805977273	-9.706686569799999
O	5.761183725018181	-4.528844455977273	-7.800882819799999
O	4.306282365018181	-7.958013245977273	-8.440999199799998
O	-7.303501524981819	-10.695013925977273	-9.5279112198
O	-1.233649031981818	-0.8487598559772729	-10.1094118398
O	0.34276278401818194	1.079051966022727	-7.2738990598
O	-2.887101004981818	1.198371186022727	-5.251228459799999
O	-3.9219773049818185	-2.4215797459772728	-5.840763519799999
O	-2.479593884981818	-4.408440405977274	-2.9294155797999992
O	-1.9497324249818182	-8.174264855977274	-2.7091665897999992
O	-1.290263281981818	-10.673041525977274	0.0613867982000007
O	-6.074124624981819	-8.377831835977274	-4.0445179397999995
O	-7.551795844981818	-5.179902565977272	-2.6203082597999994
O	-8.428834534981817	-1.6655737759772729	-3.7166202397999992
O	-6.629738044981818	1.060801116022727	-1.8535223297999992
O	-7.309694024981819	4.784278054022727	-1.6152906597999994
O	-10.994794944981818	4.459943764022727	-2.3014511997999993
O	6.287344775018182	12.930508074022727	-8.0564869198
O	4.6074270550181815	12.850674574022726	-11.4543587798
O	8.539513475018182	-10.241156325977274	0.9918755802000007
