22

O	-1.61879746324405	29.97886563766969	9.106931588084755
O	-1.168321036008539	30.004312109640964	10.480918283249796
O	-0.8329723847023853	31.157677418818768	9.488158676877056
O	0.42931157873437176	31.23274889932801	8.820672540347676
O	1.1958404752254665	29.979931516500404	8.905690648323734
O	2.132980200753358	30.480807926119788	7.959247698078325
O	2.1588903313911922	31.777387125196302	7.8280398697867835
O	0.976704427293436	32.20373393615514	8.241172359972365
O	3.1155738702301594	29.602176031274784	7.531702582615267
O	4.010864717675277	30.314966326575956	6.764257875865895
O	5.288225742414257	29.73156603410368	6.542046865526829
O	4.859062058423435	28.585921363913723	5.868750459372948
O	3.8683806306366595	27.764395531548686	6.453859608140629
O	3.89430846250974	26.622895442062465	5.730977837843769
O	3.88429690169181	26.77055055139514	4.348796197049202
O	4.427911702800786	27.904529123439143	3.7351865162346414
O	4.456994152369022	28.980223471556982	4.5691644745644835
O	3.9399980493275795	25.642946459337544	3.587787080448163
O	3.4246356380718885	25.39145948413024	6.170961408380073
O	3.9340800229046815	24.316078165922487	5.511685297069814
O	4.341670810676409	24.51271083965789	4.239088228518135
O	3.754677524853228	31.39912362910634	6.1371774810296
