79

O	-6.4003632463125	0.7549905531041664	2.3254286669166673
O	-5.1508754063125	0.8106857201041664	1.5904072869166672
O	-4.2274497963124995	-0.10861261289583357	1.3224442539166672
O	-4.6168800663125	-1.3092447998958334	1.952082676916667
O	-6.0981678863125	-1.4150952398958336	1.730459946916667
O	-6.4931342063125	-0.5450125918958335	2.8707450169166675
O	-7.8721509563125	-0.8544300898958335	3.0595433869166673
O	-3.8997279863124996	-0.6810333378958335	0.06916944091666716
O	-2.5011507163125	-0.8385950998958336	-0.2108627370833328
O	-1.4633686975125	-1.7412553898958334	-0.3007138290833328
O	-0.6124423013124999	-2.1634864698958336	0.6979021139166672
O	-1.4132651985925	-1.9824032398958333	1.9535308569166672
O	-0.9002581183124999	-2.1246814598958337	3.1649450969166675
O	0.4367680436875001	-1.8609364698958337	3.1132104869166675
O	1.0818122036875002	-1.2064533898958336	2.069113296916667
O	0.43233611368750013	-1.3754309298958336	0.8372257689166671
O	2.3325886036875003	-0.3153419178958336	1.878451786916667
O	1.4161895036875	0.5500747891041664	1.2802357939166673
O	0.7230944336875	-0.17464787189583358	0.2525693699166672
O	3.1406992936875007	0.5910078741041664	2.5343612969166673
O	2.3891785736875004	1.7108900201041666	2.800885976916667
O	1.1889105636875	1.3728609001041665	2.329242446916667
O	-0.21698686631249986	0.9940971981041664	2.7178117369166674
O	-1.8264287613124999	1.0174210151041665	2.443147286916667
O	-2.6665258463125	0.5481115521041664	3.8006608969166673
O	-1.5580545993125	0.4137023411041664	4.506697216916667
O	-0.39699993631249986	0.7871312951041665	4.004069936916667
O	0.5542024236875001	1.5681292801041664	5.010125226916667
O	-3.9719143563125003	0.7460112501041665	4.535263686916667
O	-1.8572127063125	0.11889491810416641	0.33395025591666716
O	0.8013132836874999	-0.020084572895833597	-0.9454658930833327
O	2.0007164336875	-4.207589999895833	12.614406186916668
O	-1.0279712553125	-4.8765422498958335	10.459112826916668
O	-1.1825162103125	-2.1841879598958336	8.047228746916668
O	-4.5956098263125	-3.1836559698958338	6.7183097769166675
O	-6.5156061163125	-5.532167179895834	4.482514936916667
O	-6.6484041563125	-8.928518789895833	-1.8614762930833328
O	-4.9894570063125	-10.116217299895833	1.3496902089166671
O	-3.6063224163124996	-8.830349009895833	4.655184456916667
O	-0.6599928213124999	-6.418604419895833	4.717250226916668
O	1.9316475436875	-5.861407799895833	7.3557237269166675
O	4.6305470236875	-3.3458440798958335	7.976942376916667
O	8.713421823687499	-2.8064246998958335	3.904888776916667
O	5.0936278236875	-3.476619439895834	3.3498019169166673
O	4.5009404236875	-7.266475669895834	3.234207096916667
O	1.3020012336875	-8.392029159895833	1.4941742899166672
O	5.0869327536875	2.0677543501041664	-5.341998763083333
O	7.3867940536875	-3.9512222598958338	-5.950558053083332
O	10.1082567236875	-8.819374879895832	-4.426083133083333
O	4.4159535536875	-9.281719539895834	-2.2889597030833326
O	7.1138635836874995	-7.102005949895833	-0.7586823230833327
O	6.6022734336874995	-3.4400039898958337	-1.4779166330833329
O	8.5098382736875	-0.27315228689583354	-0.6793505630833329
O	6.8970167536875	1.1864243121041664	2.475636416916667
O	3.7877620636875005	5.9358975401041665	6.011856136916667
O	0.6151475336875001	7.682616670104166	5.056222856916667
O	-2.1471281153125	7.282213900104167	2.423245706916667
O	-4.2298500763125	9.976404840104166	0.8652330289166672
O	-7.4100411363125	8.891869100104167	2.746345566916667
O	-5.7951176663125	9.705343870104167	6.030370166916668
O	-8.9898965663125	4.953386190104166	-4.3314608830833325
O	-7.5238839963125	7.351152340104167	-1.7450505330833326
O	-6.543680996312499	4.402379620104167	0.1817326779166672
O	-4.0563881063125	3.243688060104166	-2.534287253083333
O	-2.4313306863125	6.516188360104167	-3.0749241230833326
O	0.5466462936875001	6.710553510104167	-0.7475851930833329
O	2.4458920236874997	9.826496300104166	0.26535129691666715
O	5.7613525436875	10.603420300104167	1.885380496916667
O	5.6967680236875005	12.628217100104166	-3.3841797530833326
O	2.5512106536875	10.609860500104167	-4.0049419930833325
O	2.5156545536875	7.117119890104167	-5.496692663083333
O	0.10852182368750007	4.588097830104167	-7.028261933083333
O	-0.15549225631249985	1.3368965701041664	-5.0321068730833325
O	-1.6767515373125	-2.080583589895834	-5.608861403083333
O	-1.1330414233125	-1.6081477098958334	-9.459524743083334
O	-2.3619251683124998	-4.177296649895833	-12.039621313083332
O	-2.7980392663125	-6.7585006898958335	-9.286309593083333
O	-6.4672931663124995	-6.602103539895833	-10.263498813083332
O	-15.377046976312501	-3.0952363398958336	-1.478477373083333
