64

O	-1.4138362738913044	-0.1166035060521744	-1.346465665245652
O	-0.34511337189130453	-0.6846057260521743	-0.8287735152456519
O	-0.12919791089130456	-0.32970911605217434	0.4398701277543481
O	-1.0813794038913045	0.5681074489478256	0.6974038887543481
O	-1.8559541638913044	0.8084889099478256	-0.404464078245652
O	0.5972709001086955	-1.4571696560521743	-1.421561525245652
O	1.8038384761086954	-1.4996860360521742	-0.798821215245652
O	1.9878969161086957	-1.2989062860521745	0.530057266754348
O	1.0493341361086954	-0.5324554660521743	1.137935658754348
O	1.1727327361086954	-0.3761481260521744	2.535888624754348
O	2.4364406061086954	-0.3074007260521743	3.191448224754348
O	2.7673538461086955	-1.4174233660521742	4.094695514754348
O	2.4692247161086955	-1.4058577560521743	5.423266334754349
O	3.0485242861086954	-2.3858070860521745	6.234236014754348
O	4.009806896108696	-3.2437466660521745	5.914013644754348
O	4.472275176108695	-3.048187706052174	4.663890934754349
O	3.8375729361086957	-2.1970161960521746	3.758926544754348
O	-1.8013000138913045	-0.2263519960521745	-2.759930325245652
O	-7.282068313891305	-9.780707636052174	6.150485394754348
O	-5.0080860338913045	-8.335250016052175	8.783750124754349
O	-1.6155712738913044	-9.285460136052174	7.313705684754348
O	0.41173085710869545	-9.800726236052174	4.107073724754348
O	1.7273928861086956	-6.476133926052174	2.757361954754348
O	3.8877532961086954	-7.918976126052176	0.12090182075434805
O	3.8862057561086956	-9.658090136052175	-3.272337835245652
O	-0.26529816789130456	-11.022084736052175	-3.114231995245652
O	-1.3229584838913044	-7.870916486052176	-1.240289805245652
O	-2.9051978838913044	-7.732893366052174	2.216025054754348
O	-3.7777121238913045	-5.031598696052175	4.695795464754347
O	-7.511267153891304	-5.628178396052174	5.277937814754347
O	-12.236478073891304	1.0794981923478255	6.377196584754348
O	-8.632741523891305	-0.1570438760521744	6.318732594754348
O	-7.456965613891304	-0.9490577760521743	2.807532974754348
O	-4.820336533891305	-2.7281928460521745	0.749843158754348
O	-6.321082653891304	-5.806130796052175	-0.8720831052456519
O	-4.569549203891304	-7.191423656052175	-3.932561425245652
O	-2.0472970738913046	8.184037633947826	-7.489525755245651
O	-3.0814809138913044	5.540160023947825	-4.964159205245652
O	-8.388894683891305	2.249484603947826	-6.5884659752456525
O	-9.156436553891304	-2.7343199060521743	-3.2487900452456517
O	-6.761033933891304	0.19463993794782564	-2.845683365245652
O	-6.521897213891305	3.0977000639478254	-0.4420395372456519
O	-4.049859263891305	2.1212531939478256	2.276615374754348
O	1.4664291861086955	3.097636713947826	5.737381114754347
O	4.960006526108695	3.1425839339478254	4.121400274754349
O	6.753854296108695	2.7384291039478255	0.805633311754348
O	9.775374656108696	4.782889563947826	-0.4651298732456519
O	12.081434726108695	1.7394784409478257	-0.29272501624565195
O	11.535797726108695	1.4910712769478256	3.405274144754348
O	11.892074926108695	5.263459653947825	3.877085994754348
O	8.559815106108696	-0.3443270360521744	-3.691262175245652
O	5.404550886108695	0.9581358499478256	-5.358208865245652
O	5.856385626108695	4.6075168939478255	-4.359468275245652
O	3.8666486561086955	5.091207463947826	-1.150776985245652
O	4.168076776108696	7.895997683947826	1.388355884754348
O	2.0702281661086954	9.265963173947824	4.242567124754348
O	2.5053465061086957	13.172180063947826	0.19254372005434806
O	3.8631176161086955	10.466135443947826	-2.104253975245652
O	1.7449724161086955	8.371402893947826	-4.4629354752456525
O	2.1245559761086956	6.052442523947825	-7.4384156352456525
O	0.8554024861086955	2.5002806139478255	-6.8385570252456525
O	0.06870187910869546	-0.31300322605217445	-9.267044135245651
O	-0.6185934248913045	2.1179517339478258	-12.185080605245652
O	4.8849491661086955	3.5429783339478256	11.900826794754348
