72

O	1.4256840339782615	-1.717397088065218	3.408962723130435
O	-0.5770406864217387	-2.6729227380652185	2.567405123130435
O	1.604331353978261	-2.846953858065218	4.216081493130434
O	-0.4962331144217386	-3.786787018065218	3.354153843130435
O	1.1226040539782614	1.531868321934782	-1.427528916869565
O	2.163588963978261	-7.045826688065218	6.491954723130434
O	0.6801589939782614	-6.992256038065218	6.630840483130434
O	0.04714009697826138	-3.781387498065218	6.185807603130434
O	2.2614824939782614	3.768787381934782	-2.977926086869565
O	3.0239878439782615	2.605588031934782	-3.313902206869565
O	2.7286808239782614	-5.692124768065218	6.759608413130435
O	0.5235611739782614	-5.694903858065218	7.348870933130434
O	1.5137002739782615	-3.583879318065218	6.689412863130435
O	-0.2809540560217386	-0.3395806230652182	2.708507663130435
O	-0.37226954702173864	-0.5305098550652182	1.2258349231304349
O	0.03890192297826134	-1.5894793280652182	3.216165763130435
O	0.6053545939782613	-3.770857768065218	4.154827653130434
O	0.07862645197826135	0.6844353979347819	-0.8903829868695652
O	0.6138256839782613	1.8006822419347819	-2.767125816869565
O	1.4863037439782611	2.5854879419347823	-3.6597833168695653
O	-1.3871128750217387	-1.0025769680652181	0.6044226791304348
O	0.4431075339782614	-4.723282358065218	5.169688353130434
O	-0.5216430717817386	1.2600075149347818	-2.863297046869565
O	-0.8364727750217387	0.4949463079347819	-1.7235190768695652
O	0.3314894019782614	0.23689361923478186	0.37016916713043485
O	1.7025019639782615	-4.886227158065218	7.2264134531304345
O	5.875535253978262	-10.655456478065219	-5.373557566869565
O	3.663052163978261	-11.512892478065218	-2.4066439568695652
O	5.313125433978262	-9.546972588065218	0.39808316913043484
O	7.337759253978262	-6.406961298065218	1.152657743130435
O	4.987955913978261	-3.5582664680652183	1.8203222131304349
O	7.624558533978262	-1.1672257480652182	2.979007493130435
O	10.42427927397826	1.044204464934782	2.032513653130435
O	11.292193673978261	-0.8906356380652181	-1.802442146869565
O	7.627413933978262	-1.6049617380652181	-2.3909992868695653
O	6.035752123978262	-5.032427928065218	-2.794561156869565
O	2.4789258239782614	-6.359205868065218	-2.910072656869565
O	2.4693975539782613	-8.269414598065218	-6.209815996869565
O	0.0987596799782614	-10.030806678065218	-8.510983096869566
O	-0.016404735021738615	-9.471691688065219	-12.343581796869566
O	-3.0562015560217386	-7.324952058065218	-7.2281012168695655
O	-0.8563696090217386	-4.2390383280652175	-7.261578606869565
O	1.8072345539782613	-2.3892869680652185	-5.280835606869566
O	5.118099883978262	-2.630016948065218	-7.0765633068695655
O	7.735708423978262	0.020420919934781845	-6.332206366869565
O	-3.5238794660217385	6.432806681934782	-5.661599516869566
O	2.960812433978261	-0.22233174006521816	-10.643979396869566
O	0.3020173999782614	1.367672431934782	-8.447570216869565
O	-3.231000176021739	0.5018070579347819	-7.4517228868695655
O	-3.2085355660217387	-1.4742361780652182	-4.339633756869565
O	-4.773304316021738	-2.578234278065218	2.137523743130435
O	-3.818252236021739	-0.19227006806521812	4.952161423130434
O	-2.2031510060217387	3.159452141934782	5.606005503130435
O	-3.2369501060217387	5.755313471934782	8.017935173130434
O	-0.2912081190217386	5.269252431934782	10.329514703130435
O	-1.4036922570217385	1.7785769219347818	10.969759203130435
O	-5.019826256021738	2.7035231519347818	11.341999003130434
O	-4.070679016021739	5.376398311934782	13.865452203130435
O	-1.9748186760217386	3.0040257419347816	15.918848803130434
O	2.517235753978261	6.305401581934782	5.971550373130435
O	1.6199113839782613	7.563132391934782	2.477842573130435
O	-2.0851338660217387	8.242138371934782	3.122407223130435
O	-3.985795846021739	5.099738421934782	2.213550843130435
O	-7.431125176021738	3.9008634519347822	3.241745883130435
O	-9.943120916021739	1.296194481934782	2.107902403130435
O	-13.040118026021739	-0.4179325120652182	3.442024303130435
O	-8.511429766021738	7.831683231934782	1.7647824531304348
O	-5.923617086021738	8.498376111934782	-0.9717162268695652
O	-2.6534742660217385	10.374531621934782	-1.4712910968695652
O	0.33181746497826137	8.225248151934782	-2.381162696869565
O	3.835186033978261	8.975322821934782	-3.777961966869565
O	-7.198643906021738	-6.7508660980652175	7.204990443130434
