22

O	-0.07423975174973473	32.52098095740254	8.583024399994683
O	-3.060163740457835	31.365607765677236	10.861415136585194
O	-0.8299228580667104	29.81020199464689	8.591386837556062
O	0.2874312459958032	33.20788660895015	7.555839686514545
O	-1.270651689700176	29.59767711031444	10.50027586136247
O	0.6577968988602652	31.477451982893054	8.681951327406573
O	1.3971908763674263	32.4942249204281	7.024576075560615
O	0.9385557752205164	29.44382702998394	10.960530534038481
O	0.3111766560318835	27.119328855552062	9.382209564274469
O	1.6180953678680707	31.631607523483634	7.954614429213279
O	1.665616170822892	26.975491644372653	10.572312439600035
O	-1.3327501552467858	32.48528480761079	9.20980362859468
O	-1.7451031132541648	31.250419169407916	9.253871997486716
O	-2.062501999763039	30.7340462557872	10.519578205751925
O	-0.08278156335640961	29.611616156702137	10.119286343437214
O	2.273763144116761	30.46711769917319	7.658828868343961
O	3.0323544961392943	30.195274440381525	8.656158860697845
O	2.965043871585196	28.989329758861192	9.0806405217996
O	2.190129044482362	28.13666596069713	8.522880908937923
O	1.6706156209193161	28.455969480750404	7.395134408664203
O	1.9242781351078955	29.605588973172658	6.831494807436101
O	1.5463003085768408	27.142612904813284	9.268821441609775
