73

O	0.6386962663973332	1.7153342138000007	-0.5785808179755552
O	-0.43323911360266676	1.8719148278000006	-0.006788847875555226
O	-0.3056412036026669	1.6912342508000007	1.382631136124445
O	-1.6490630926026668	1.5068674608000006	-0.6250461624755552
O	-1.5998403126026668	0.9599315677500007	-1.7726165738755553
O	-0.30387994560266685	0.6809181118000006	-2.3570971638755553
O	0.8409786393973332	0.9399187134000007	-1.5167843688755553
O	2.111032367397333	0.9859281304000006	-2.0311599338755553
O	-0.48354696260266683	0.47544324780000063	-3.604615923875555
O	-1.8509690726026669	0.19472612680000068	-3.756021203875555
O	-2.550299842602667	0.5731867718000005	-2.722050353875555
O	3.035788817397333	1.7054286158000007	-1.1991124908755553
O	4.290138587397333	1.0525857213000007	-1.3717668158755552
O	4.447921537397333	-0.02389045619999941	-2.3548647738755553
O	5.801589307397333	-0.051666094199999346	-3.008713693875555
O	6.824652547397333	-0.2338223041999994	-1.8951889738755554
O	6.479742037397333	0.6543992518000006	-0.7869625008755552
O	5.118975287397333	0.6850103018000007	-0.1863363128755552
O	0.9087667013973332	1.7945655838000008	2.100618176124445
O	2.087569857397333	1.1099895558000006	1.980930056124445
O	3.136613587397333	1.3912005558000007	2.874389946124445
O	2.899714377397333	2.1677607858000005	4.0131478161244445
O	1.618006397397333	2.5383944758000005	4.185992436124445
O	0.8806292253973332	2.762039615800001	3.057568496124445
O	3.976718877397333	2.3492695558000003	5.358564626124445
O	4.723710057397333	3.622393345800001	5.476329566124445
O	3.211248117397333	2.1722562458000008	6.621376146124445
O	5.086024767397333	1.0822182168000005	5.218146236124445
O	2.963782557397333	12.4549968958	1.0715285061244448
O	5.450218527397333	9.9769939058	-0.3637297378755552
O	4.462255157397333	6.377018065800001	0.5326223061244447
O	7.629522617397333	4.983388375800001	-0.9079421728755552
O	9.471098307397334	3.996129625800001	-4.007078713875555
O	7.403027137397333	6.6868033558	-6.741547103875555
O	4.161937347397333	6.1990587658	-4.841958103875555
O	2.200787527397333	8.9397828058	-3.134020123875555
O	-0.7822058576026668	9.0621947158	-0.8329118198755552
O	-3.158667102602667	11.3745248958	-2.694711653875555
O	-7.844309492602667	8.9188712658	-0.6286680464755552
O	-5.690007332602667	6.7211639258	-2.852593483875555
O	-2.167540702602667	5.4824062558	-3.530687023875555
O	-0.8445627296026668	7.125842355800001	-6.687530933875555
O	2.0122264773973333	5.368656935800001	-8.440329853875555
O	-5.636567502602667	-8.009742014199999	-4.020317773875555
O	-5.201243432602667	-4.2585634642	-3.745874983875555
O	-6.4980495726026675	-0.9593839941999993	-9.238961123875557
O	-4.351213172602667	4.7402391558	-8.942337753875556
O	-4.770994152602667	2.114185535800001	-6.239512813875555
O	-7.053644082602667	1.6486143848000006	-3.253487353875555
O	-5.175325272602667	2.9755869958000005	-0.18942263287555516
O	-2.124459852602667	2.466766335800001	5.8239939161244445
O	0.40050081639733315	-0.0731501841999993	6.556324596124445
O	2.501755377397333	-2.762548014199999	5.035832006124445
O	3.615343997397333	-6.0505211141999995	6.5728648161244445
O	7.238391767397333	-4.898264624199999	6.837505946124445
O	6.253927687397333	-2.1297755241999994	9.162402956124444
O	3.903420357397333	-4.347193574199999	11.130033806124445
O	-2.488437152602667	-13.602102104199998	6.914272716124445
O	6.693204257397333	-7.6532499442	3.0421708461244448
O	6.718795547397333	-4.1322707042	1.598555016124445
O	3.977687127397333	-4.9727133342	-0.8986443148755552
O	1.715043767397333	-6.894958434199999	1.4138442561244449
O	-0.7198471106026668	-4.3277472942	2.8363352661244448
O	-2.876878932602667	-4.640240364199999	5.947653256124445
O	-5.862331892602667	-2.812349984199999	7.398005806124445
O	-7.307028312602667	-8.1601686742	6.1014214061244445
O	-4.057447212602667	-8.418020894199998	4.1479839461244445
O	-3.687907322602667	-7.705510854199999	0.4230324021244448
O	-1.2470291626026668	-8.257090234199998	-2.430175673875555
O	0.07937689151733317	-5.0560610242	-4.048716843875555
O	1.8332740673973331	-4.4987530642	-7.3816139038755555
O	0.45207752139733315	-7.623024354199999	-8.922503633875555
O	-1.5919574826026668	4.630179215800001	12.428893806124444
