77

O	3.481323598956522	-1.6093877533695653	-1.6550729622608702
O	6.034284658956522	-2.0453930733695653	-0.7729011232608701
O	6.542273938956521	-4.527997193369566	-1.1455958242608701
O	4.755995278956521	0.5867662886304346	-1.96133044226087
O	3.598798548956522	-0.08476715536956547	-2.3052569922608703
O	4.347424118956522	1.9319631766304346	-1.4390978822608702
O	3.137428148956522	2.2443775266304344	-2.02445635226087
O	4.137312458956522	1.8833585466304346	0.06963233073912989
O	5.209059008956522	2.4106751066304346	0.76494086773913
O	2.846974708956522	2.5985447966304345	0.2784398317391299
O	2.940519078956522	3.7784814566304346	0.9778822577391298
O	2.270215558956522	2.7029722766304345	-1.0811558952608702
O	-2.477634711043478	4.155489316630435	-0.46594000976087013
O	2.248053348956522	-2.3003344433695654	-2.09680695226087
O	5.496184468956522	-1.0355101833695655	0.10422682973912989
O	6.642011348956522	-5.855658313369565	-0.5573148334608702
O	-1.398651901043478	4.939763126630434	-0.5080953124608701
O	3.371271308956522	-1.4557025033695656	0.003376355739129866
O	7.606404238956522	-1.8371116433695653	-1.2320501412608702
O	5.2190522689565215	-4.540141803369566	-2.1331927322608704
O	-0.203885720043478	4.345647766630435	-0.5381848952308702
O	4.9080842889565215	-2.4044772333695654	-1.93423826226087
O	6.185887678956521	-3.486039013369566	0.12271598673912987
O	7.779964328956521	-3.8473802433695656	-2.02127542226087
O	-0.12022197304347798	3.027835026630435	-0.8510721922608702
O	-1.249264061043478	2.2660837766304347	-0.9971429712608701
O	-2.454092371043478	2.8424363666304346	-0.7009248382608702
O	-3.602326221043478	2.0249905866304347	-0.7147715232608701
O	-0.908580101043478	0.9678526796304345	-1.16597608526087
O	0.44065223454652197	0.9756618646304346	-1.29554388826087
O	0.922370428956522	2.213314076630435	-1.1601594792608703
O	4.067590068956521	7.260281086630434	-8.26295288226087
O	3.332868378956522	6.0976529566304345	-4.68088434226087
O	5.983941698956522	3.4527465766304344	-4.78868319226087
O	6.922835928956522	-0.09434699236956545	-5.89787877226087
O	4.555951118956521	-6.749361313369565	-6.69635896226087
O	4.241768678956522	-3.9393438033695656	-9.22665512226087
O	4.2321779389565215	-0.1684933293695654	-9.331876962260871
O	1.602383778956522	1.8031838376304345	-7.42175281226087
O	0.221470435956522	5.177618356630434	-8.411200082260871
O	-2.068990771043478	7.747009786630435	-6.84581019226087
O	-7.382655751043479	5.936093266630435	-5.34637948226087
O	-4.178661701043478	3.8943756766304345	-5.2104368422608704
O	-3.7278583510434777	2.0630654866304345	-8.510645112260871
O	-1.488441301043478	-0.9811582333695654	-8.48816669226087
O	-0.308504665043478	-2.459702063369565	-11.782732102260871
O	-7.251112111043478	-1.2118597533695654	3.03231201773913
O	-5.946917641043479	-3.394261203369566	-8.46242384226087
O	-7.775031471043478	-0.27411165336956533	-7.32611440226087
O	-7.441186491043478	0.3936920066304346	-3.60071950226087
O	-8.857038631043478	3.0011386866304344	-1.2248878102608702
O	-6.207493351043478	5.734846576630434	-0.8711739122608702
O	-1.929004741043478	9.534208036630435	2.54067955773913
O	0.883401046956522	8.087397586630434	4.61171141773913
O	2.486674298956522	4.814541896630434	5.63169443773913
O	3.8929077489565223	3.9132776566304344	9.07931202773913
O	7.486807108956522	3.915537536630435	7.78053290773913
O	7.215388738956522	7.561361086630434	6.92378997773913
O	-3.621956361043478	-4.0375175633695655	13.51882489773913
O	3.805955198956522	-7.219192673369565	7.0171378477391295
O	6.154450118956522	-4.234082623369566	7.20617174773913
O	5.914880048956522	-0.5436197433695653	8.07990445773913
O	5.6304326189565215	0.2835651356304346	4.32778866773913
O	2.328820168956522	-1.5290915433695655	4.03159665773913
O	0.693157548956522	-0.22828396336956547	7.2140358477391295
O	-1.2131208510434779	2.9109248366304348	6.18399926773913
O	-2.500057031043478	5.670465336630435	8.467306837739129
O	-4.179588411043478	2.3421034866304344	10.71451469773913
O	-4.783188301043478	-0.2601088033695653	7.992902357739131
O	-3.204253501043478	-3.391301363369565	6.54149240773913
O	-2.3180138910434778	-3.1163755033695653	2.83948057773913
O	-1.3466512410434779	-5.758658663369565	0.2416887417391298
O	-3.204256971043478	-8.496344573369566	2.1076643377391298
O	-3.115275181043478	-12.113607063369564	0.8671619477391298
O	-1.897845861043478	-11.061671163369564	-2.55681520226087
O	1.197816725956522	-13.092123163369564	-1.60353807226087
O	13.095425178956521	-7.240470143369566	-0.40361734426087015
