64

O	-0.29972571916818236	1.6941258160909094	-1.0982012878845457
O	-0.40001499476818236	1.3185411300909093	-2.4006671238845456
O	-0.33507715405818234	-0.05751354390909058	-2.6235750138845457
O	0.3189234559318177	-0.7817755739090908	-1.6026590038845456
O	0.8057175849318177	-0.16666053390909052	-0.4323946658845458
O	0.6054284559318176	1.1733293560909095	-0.16970765168454577
O	1.0673545049318176	1.9662100840909094	0.8738228761154543
O	1.4291890149318176	-0.9160608039090905	0.6659379911154542
O	1.4189151549318177	-2.350164453909091	0.6867955581154543
O	1.8932266549318177	-0.39032093390909073	1.6934145261154543
O	-0.5494392910681823	-0.4532855839090908	-3.9624569638845455
O	-0.14035273106818236	-1.6816760139090905	-4.473362763884546
O	-0.8307312600681824	0.35728393609090947	-4.881747963884545
O	0.8626939149318176	3.108562436090909	1.6139556361154543
O	1.2868863249318176	7.175970396090909	0.22006519011545422
O	2.2120648349318177	6.731400896090909	1.1336363861154544
O	2.1594468549318178	5.42207001609091	1.5893939761154543
O	1.1387014449318176	4.50240701609091	1.3511427461154544
O	0.09605841593181763	5.206237706090909	0.6962170401154542
O	0.4415192259318177	6.180707466090909	-0.2646696231245458
O	10.300227214931818	6.845404466090909	-2.7437591138845456
O	7.233838324931818	6.6622333160909095	-5.026279083884546
O	4.172105134931818	5.58676543609091	-3.1104481138845457
O	1.7160146749318177	6.162146536090909	-5.937376433884546
O	0.32566589093181764	4.702534316090909	-9.082985283884545
O	-1.8673670950681824	-1.2763309339090905	-12.315165973884545
O	1.6556728149318178	0.06178135609090929	-12.135267573884546
O	3.880965454931818	2.3041206950909094	-10.065318883884546
O	4.462162774931818	1.5297123510909094	-6.381940883884545
O	7.585558494931818	2.3603794100909092	-4.354154323884545
O	8.529539204931817	2.1550603890909095	-0.6943210708845458
O	11.666676514931817	0.02434185609090944	-0.7445548788845457
O	10.805953414931817	-2.155593673909091	4.446429116115454
O	8.197441664931818	-3.0327171539090907	1.8549619961154544
O	5.972304634931818	-1.6772963039090907	-0.8189327008845457
O	7.231877544931818	-2.644618043909091	-4.292947283884546
O	4.713011784931818	-2.6601109839090906	-7.1406411738845454
O	-5.4217574750681825	-8.43869003390909	3.7959308461154544
O	-2.116370755068182	-6.728752173909091	2.9345993661154544
O	1.8737918949318175	-10.34701523390909	-0.5896754928845458
O	6.437768464931818	-7.167525353909091	-2.9118593138845457
O	3.8671148749318176	-6.24536764390909	-0.27518744396454575
O	3.968773944931818	-5.697653633909091	3.465960976115454
O	4.270318464931818	-1.8927465139090904	4.028691056115454
O	2.1887348949318177	3.728523006090909	6.572814326115454
O	-1.2413376280681825	5.2576639560909095	5.770418136115454
O	-4.323810315068182	4.764727686090909	3.5445788161154543
O	-8.035684415068182	5.4801588760909095	4.4798798561154545
O	-8.203130705068183	8.33778833609091	1.9145668061154542
O	-5.508628625068182	10.22329616609091	3.698175926115454
O	-10.224637955068182	4.466464886090909	0.14569421611545424
O	-6.858443045068182	4.59440740609091	-1.5858937738845458
O	-6.354227035068182	0.8446941370909093	-1.3185115538845458
O	-7.561139715068182	0.4318824160909094	2.281601146115454
O	-4.475959695068182	0.6984479360909093	4.505093766115454
O	-4.2704487150681825	1.3764321740909093	8.223426546115455
O	-1.6702999750681824	0.9923929780909093	10.977608726115454
O	-6.001220975068182	-2.4256138439090913	12.012894926115454
O	-7.189882175068182	-1.7964073439090906	8.458626216115455
O	-6.294133585068182	-3.968114113909091	5.477420776115454
O	-7.408422055068182	-4.603397323909091	1.9160076161154542
O	-4.756645805068182	-3.9274597739090913	-0.7211062848845458
O	-4.524419445068182	-4.915699613909091	-4.381005263884545
O	-6.747550895068182	-7.990250393909091	-3.8780492538845457
