70

O	-1.2067340109782612	1.5523374050717393	-1.0108434237608694
O	-0.7266503669782611	2.7239417020717394	-1.5344637937608696
O	0.5577848980217388	3.0904326620717395	-1.1256917257608694
O	1.3356917980217389	2.1120372620717394	-0.4487530777608695
O	0.8999898680217389	0.7967709540717393	-0.3316377547608695
O	-0.41324773197826103	0.4663875870717392	-0.6622901019608695
O	-0.9808465299782612	-0.7916247879282607	-0.36677698276086945
O	1.0357423480217387	4.265508232071739	-1.8299952307608693
O	2.4236429280217386	4.417260852071739	-1.6611389537608696
O	0.5001932480217388	5.3756650520717395	-1.7410245207608694
O	1.6870938580217387	-0.3258530379282607	0.1597384492391305
O	2.939496158021739	-0.16050224792826073	0.8477370592391306
O	1.245460078021739	-1.4978626779282609	0.20336287023913058
O	-2.372893219978261	-0.8566011479282607	-0.03528454976086948
O	-5.462575051978261	-0.7051270479282608	-2.7070323107608694
O	-4.924309211978261	0.49523054307173925	-2.2484103207608697
O	-3.690845551978261	0.38778618007173926	-1.7330761307608693
O	-3.248739951978261	-0.8064390879282608	-1.2643029717608694
O	-4.023855461978261	-1.9464838079282607	-1.4564890957608694
O	-4.781488421978261	-1.8614629279282606	-2.6208178307608696
O	-7.1339430019782615	-0.5366588779282608	-3.2303242907608696
O	-7.726365511978261	-1.8584544679282609	-3.4523038807608697
O	-7.085696551978262	0.35913730807173927	-4.4051019107608695
O	-7.8134783619782615	0.4389862920717392	-2.0317543607608695
O	3.3699394680217383	-2.6072233879282605	-12.969739520760868
O	-0.003777091978261149	-4.17068988792826	-12.264402420760868
O	-2.123430236978261	-1.144380297928261	-11.38366732076087
O	-2.117283065978261	2.293366122071739	-9.799681610760869
O	-2.493495296978261	2.129615632071739	-6.092723690760869
O	-2.818864001978261	5.829475242071739	-5.64739386076087
O	-0.9689610609782611	9.107809892071739	-5.46958251076087
O	2.497649158021739	7.86297719207174	-7.84537197076087
O	2.3810266680217387	4.373797272071739	-6.425243790760869
O	1.8496850680217387	1.1224813410717394	-8.273405940760869
O	1.195381798021739	-2.461285457928261	-7.332540170760869
O	4.052174288021739	-4.27835206792826	-9.12262143076087
O	7.252497288021739	-10.870699767928262	-5.23474590076087
O	4.275166858021739	-8.475968817928262	-5.286217000760869
O	5.231250648021739	-5.04124010792826	-3.9939536007608694
O	4.170139568021739	-1.440196787928261	-3.8428607107608697
O	6.383322568021739	0.7065312220717392	-6.081004800760869
O	6.552230848021739	4.434588272071739	-5.345184160760869
O	5.325936948021739	-1.1824464379282607	6.373968179239131
O	10.86927131802174	-0.6597329879282607	2.9880747892391306
O	9.91267081802174	-0.5681470379282607	-3.0419687207608694
O	7.626411108021739	-1.4084099079282606	-0.13499644876086947
O	5.927771388021739	-4.476853887928261	1.2017597092391306
O	2.476592138021739	-4.801068147928261	-0.25473133076086946
O	-4.271328561978261	-4.87635188792826	0.03517591423913058
O	-6.272029261978261	-2.268937167928261	1.7821032092391302
O	-5.968176541978261	0.9585515377717393	3.64744289923913
O	-7.9502653619782615	2.127101122071739	6.6682018392391305
O	-9.80767911197826	4.798585932071739	4.71025824923913
O	-11.29890204197826	2.164561162071739	2.4944126192391303
O	-12.06585448197826	-0.12977191792826082	5.4030265192391305
O	-6.311034731978261	6.77225456207174	7.19481929923913
O	-4.896856221978261	6.574412972071739	3.7208219692391307
O	-1.417116611978261	5.600358412071739	4.950622549239131
O	-2.551949381978261	3.0926047920717394	7.594205489239131
O	-2.634729051978261	-0.3281000379282608	5.913697689239131
O	-4.397216621978261	-3.4726743979282606	7.005483509239131
O	-4.222716271978261	-7.15489095792826	6.1634884392391305
O	-2.6589899819782614	-6.35548358792826	11.57363677923913
O	-2.4190178279782613	-2.642875437928261	10.800314679239131
O	0.775209498021739	-0.8588160779282608	9.737102279239132
O	2.1883516080217387	2.6567071920717393	9.440722679239132
O	3.1943889380217385	3.645688582071739	5.8873519692391305
O	5.247771748021739	6.520411452071739	4.43334284923913
O	7.267877928021739	6.85982225207174	7.677021179239131
O	-10.35304484197826	-7.95710569792826	-1.5550183727608693
