73

O	1.029062961104167	1.7355977239583336	-0.49021269679166624
O	2.214138341104167	1.2881150321883335	-0.5443366687916662
O	3.1705186811041672	2.1736592229583334	0.06598001220833372
O	2.435603551104167	-0.050714014041666644	-0.9068113637916663
O	1.3730105911041672	-0.7852966440416667	-1.0031090947916663
O	0.014917751104167043	-0.25608396404166656	-0.9061229237916663
O	-0.03621213089583286	1.1420739319583335	-0.43808417779166625
O	-1.1739559428958328	1.7962688249583334	-0.8766972647916662
O	-0.8316509278958328	-1.1073580440416666	-1.3501310647916662
O	-0.07218463389583285	-2.191688684041667	-1.8105053997916665
O	1.210142331104167	-2.000961874041667	-1.6882878497916662
O	-1.408593606895833	3.0950384259583332	-0.5032656937916662
O	-2.5032051888958327	3.0233668759583336	0.5078559402083337
O	-3.163300088895833	4.353225915958333	0.4779660002083338
O	-4.607518508895833	4.116939115958333	0.8025169502083337
O	-5.270068518895833	3.590798095958333	-0.4233603607916663
O	-4.430121628895833	2.5130051159583333	-1.0318964157916661
O	-3.485327658895833	2.0143894949583334	0.01032963920833374
O	2.6217829911041672	3.2626961359583335	0.8215262202083337
O	2.863253041104167	4.594970265958334	0.7422712902083338
O	1.9493878111041671	5.546013835958333	1.1970142202083336
O	0.6070722111041672	5.254260765958334	1.4757530202083338
O	0.4479705611041672	3.9676496559583336	1.7522068202083338
O	1.338983621104167	3.0302505559583333	1.315711030208334
O	0.16718775110416717	6.130729055958334	2.5200756502083337
O	4.685606901104167	9.408601325958335	-7.731280979791666
O	1.167604931104167	9.479017645958335	-6.302938749791666
O	1.078401131104167	7.3671765259583335	-3.120478859791666
O	-2.510191478895833	8.404654535958334	-2.2934995697916665
O	-6.175743048895833	7.916255475958333	-2.9380437197916662
O	-11.312995128895833	3.0751401059583334	-4.351656369791666
O	-9.037792328895833	4.817282835958333	-6.834389119791666
O	-5.669150798895833	6.544495405958333	-7.073606679791666
O	-2.4732258888958327	4.681398555958333	-6.094096809791667
O	0.9696887711041672	5.3014676759583335	-7.610705309791666
O	4.462087511104167	4.083644635958334	-6.858148589791667
O	5.548490111104167	2.6293087259583334	-10.169610889791667
O	8.977749661104166	-1.2490401140416665	-7.868011599791666
O	5.298317641104167	-1.6571052140416664	-7.078285389791667
O	2.166322131104167	0.11673539595833349	-5.869938499791666
O	-0.21252593689583288	0.5739587489583334	-8.797890659791667
O	-3.866992618895833	1.0979008049583334	-7.993843509791667
O	-1.045888357895833	-9.426164894041666	3.789082850208334
O	0.28305840110416713	-7.144321634041666	1.1072547002083337
O	0.7292994211041671	-9.372332494041666	-1.9251594997916661
O	-1.4646048388958328	-8.751159394041666	-4.963109909791666
O	-4.163723438895833	-3.765522754041667	-9.298479729791666
O	-0.4225874318958329	-4.229473194041667	-8.902485149791666
O	0.6762389711041671	-4.665087814041667	-5.289319309791667
O	4.011632101104167	-5.405342414041667	-3.604547949791666
O	5.365813821104167	-1.9635410440416667	-2.4596579897916664
O	7.557380031104167	2.4085774359583336	2.017628000208334
O	5.456673761104167	3.5644454359583335	4.923852700208333
O	2.090168301104167	3.124292705958333	6.5904692902083335
O	1.146101131104167	3.0433559059583333	10.209583010208334
O	-0.5001617818958328	6.484458085958333	10.132275510208334
O	2.721070701104167	8.105998335958335	9.080113310208333
O	2.385425531104167	-5.212423974041667	15.253180310208334
O	-3.806093588895833	3.0761310059583336	9.987297210208334
O	-3.547240098895833	4.274180685958333	6.397750080208334
O	-3.667597868895833	0.8507534979583334	4.888858120208333
O	-1.5332067288958329	-0.9855432640416664	7.478487130208334
O	1.9551370511041668	-1.0364759640416665	5.925916660208333
O	5.321873341104167	-1.4499262340416668	7.555144230208333
O	8.859460891104167	-2.2057182840416667	6.4446857402083335
O	6.884721111104167	-6.476413854041667	9.616281710208334
O	3.4123301211041674	-4.989457164041667	9.261693680208333
O	0.8960250911041671	-5.939585804041667	6.5565334702083335
O	-2.7975717188958327	-5.543878194041667	5.747050860208334
O	-3.505048298895833	-3.635704724041667	2.512390350208334
O	-6.676784728895833	-3.3080309540416666	0.4623751602083338
O	-8.039429128895833	-6.696009784041666	1.6781952502083337
O	-11.678123328895833	-5.320972334041667	-2.186914489791666
