72

O	-1.1409828389534882	1.616561749969768	-0.19917614553255847
O	0.029474542046511676	2.0966466139697677	0.4522157644674416
O	-2.8028876589534883	-0.5174379260302321	-9.054664725532557
O	-1.6993308219534882	0.42150408796976785	0.24072830446744153
O	-1.2973802009534883	-0.5098925360302321	-0.7476621475325584
O	-1.4233705559534884	-1.245374556030232	-6.951087455532559
O	2.439664061046512	2.687945483969768	-0.1111113455325583
O	-1.3119585519534884	-0.3539492160302321	-2.0857581165325585
O	-3.930162328953488	-1.619027186030232	-5.901631115532559
O	-2.2409153989534882	-3.352676336030232	-5.719731615532559
O	-0.22156878795348833	0.0130066759697679	-3.1246518955325584
O	-1.5523662619534884	0.2794644279697679	1.6228584444674414
O	3.319985981046512	4.142780323969768	-1.5262985975325585
O	-0.8561763512534883	-0.1553617160302322	-4.560083615532559
O	2.0728415910465117	2.5472787939697676	-2.7516929055325585
O	-1.9233292489534883	-1.1304256360302318	-4.363415935532558
O	-4.068813348953489	-1.5659400060302322	-7.332285135532558
O	-3.3297756789534882	-0.3392964860302322	-7.789519725532559
O	-2.1510093589534884	0.6512803699697678	-9.398379255532557
O	-2.1797006289534884	0.5897499989697679	-2.7142319355325584
O	-3.014050978953488	-0.4980905560302321	-3.5978112455325584
O	-1.0093984509534883	1.309103515969768	2.4342268644674414
O	0.2994804810465117	1.729179830969768	1.8442077744674417
O	2.3117055310465116	3.669506473969768	-3.583009735532558
O	3.2059293710465115	2.825935493969768	-1.7451253705325585
O	1.0490796210465116	1.768264325969768	-0.6447902055325585
O	1.1005339010465116	2.6668353239697677	-1.7439210064325583
O	-0.13331335595348826	3.232630853969768	-2.175327622532558
O	-2.333213208953488	-2.081822966030232	-5.562015455532558
O	-10.109803038953489	6.165846953969768	-4.357377115532558
O	-6.662726308953488	6.778038863969768	-5.835407645532558
O	-4.232419898953488	4.119654523969768	-4.791195785532558
O	-1.5344425529534882	5.323677973969768	-7.055673605532559
O	1.1329713310465117	7.909625433969768	-7.600913495532558
O	-0.5601455299534883	11.039495863969767	-4.954553185532559
O	-1.9497161489534882	8.480599843969767	-2.5541524415325583
O	-5.561067758953488	7.834896353969768	-1.6934240436325585
O	-7.442763368953488	5.144502543969768	0.20568713446744158
O	-9.297265058953489	7.229438543969768	2.806941844467442
O	-9.413954318953488	3.054112233969768	6.648721344467441
O	-5.966954978953488	4.363540513969768	5.761308594467442
O	-3.6418209889534885	5.298671063969768	2.9691166944674414
O	-3.2954641189534883	9.032190803969767	2.677227404467442
O	-0.26259376295348824	10.392278183969768	0.9049541344674417
O	3.8731618310465117	-0.33067438603023225	7.171455874467442
O	-1.2242636959534883	8.714844243969768	6.992842274467442
O	-0.3292331269534883	5.046629993969768	6.685022484467442
O	-1.8697961789534883	1.7872334539697678	7.740152304467442
O	-3.7110611189534883	0.46664280796976787	4.733698094467441
O	-4.974998698953488	-4.0924536960302325	0.07321396446744166
O	-2.3258856889534885	-5.203795446030232	-2.3735307525325586
O	1.3212562310465117	-4.963131596030232	-3.3168922755325587
O	3.731984241046512	-7.528820026030232	-4.509974455532559
O	3.7251188310465113	-6.233577286030232	-8.106558275532558
O	0.07503259004651175	-6.932016776030232	-8.467034685532559
O	0.3077154210465116	-10.248161936030233	-6.7289095455325585
O	8.125192531046512	-13.161859436030232	2.052620344467442
O	7.570568601046512	-4.694481136030232	-5.815617325532559
O	5.216924811046512	-1.682583676030232	-5.826434145532558
O	6.246271301046512	-0.7676655060302321	-2.2599707405325584
O	6.123511401046512	-4.205313166030232	-0.7077391715325584
O	2.5803431810465116	-4.712859646030232	0.6569124844674414
O	0.8133292410465116	-7.929204426030232	1.5123590144674415
O	-2.273649628953488	-8.969082336030231	3.4393115744674416
O	2.370331541046512	-10.970947036030232	6.022368714467442
O	4.4456924510465115	-8.683674166030231	3.8201502644674417
O	5.555266231046511	-5.155307746030232	4.7656500044674415
O	7.980254501046511	-2.437170706030232	3.6612193144674414
O	6.343567641046512	0.8281190492697679	2.589429944467442
O	7.831430351046512	4.3462755139697675	2.1097338344674417
O	10.682579071046511	3.701798053969768	4.461343654467441
O	-9.412477358953488	-8.155332686030231	-3.5060826055325585
