27

O	1.7982882578767905	31.5091881146616	7.820473626320027
O	2.5754555268640553	30.017258893275077	6.449857605919239
O	0.5225324385592082	29.589947929667698	10.47557142565216
O	0.235931294577811	33.402084389832794	7.967289028439044
O	2.6047627955322525	25.97563339248498	10.778177864401426
O	-0.24905480654934106	31.256529755593622	8.861790845858188
O	0.5903958956376082	32.13338000078643	8.09280893961017
O	1.6837012688466106	30.209716333129585	7.656677359903477
O	3.5811840467514218	29.203345460448034	6.84828440205664
O	-0.2828177470868788	30.764674485382717	10.194246479962693
O	3.7211637976587246	27.966617820384215	6.220426736397426
O	3.592163321748796	26.80669545239261	7.023183643252465
O	3.0918416945433647	26.98608615323109	8.370899167517058
O	3.955643428721929	27.929894961300185	8.851609334477281
O	4.094686936885513	29.081821784089584	8.07630673444724
O	-0.0174149633214066	28.295059075016255	10.789928655495169
O	-1.2574140524932123	28.347311909357778	11.34318428968867
O	-1.894327525017529	27.125245581425325	11.557132839495887
O	-1.3088305470437862	25.97601930908656	11.039575572959514
O	-0.5182109964642009	26.189650995405017	9.929421207563294
O	0.11430672077237877	27.408843850234923	9.714541019005187
O	-1.3761149506367785	30.685696928275327	10.846905172906133
O	2.9157714679122697	24.1533815418592	9.379936781568876
O	4.630073348244292	25.06571237169797	8.989276075475798
O	0.03365613273679205	29.78620444230953	7.971258345428825
O	3.257333044914771	25.54390881212831	9.322704388506112
O	0.011969068460648241	25.064207241545834	9.363489605007874
