74

O	1.9480990899583333	1.640618998291667	-0.7877850443333335
O	0.6023832059583331	1.824616738291667	-0.31920433933333353
O	0.641680506958333	0.5984792022916668	0.5507293996666665
O	0.589227851958333	-0.2259744437083331	-0.6220113513333335
O	1.5473590599583331	-0.16218972670833312	-1.6666460813333335
O	1.7751610999583332	1.224684018291667	-2.1221603713333335
O	-0.708855887041667	1.897472958291667	-0.5147587493333335
O	-1.2776834000416668	0.9543972852916669	0.3111297646666664
O	-0.501416478041667	0.2984936012916669	1.2685969086666664
O	-0.28767095304166695	-1.208390281708333	1.4316786286666665
O	-0.06100815234166694	-2.1458262517083333	0.3772533516666664
O	-0.682531581041667	-1.852673221708333	2.6502577786666666
O	2.8084111599583332	0.5978525332916669	-0.29923187113333355
O	2.678606159958333	-0.1984596517083331	0.7734487016666665
O	2.9795096299583332	-1.311294581708333	1.5564772086666665
O	4.2227577299583325	-2.0088559817083333	1.8570334286666663
O	4.2695850899583325	-3.3455646717083334	2.4705725186666667
O	3.278719119958333	-4.391354381708333	2.133938928666667
O	2.0162445899583332	-3.6147312917083334	2.3409433686666667
O	2.290831029958333	-2.152158861708333	2.5099980586666666
O	2.700906619958333	-0.8818668817083332	-1.8734643213333335
O	3.1577000999583333	-1.9805573117083328	-1.1433456713333334
O	4.594654579958332	-2.154754711708333	-1.6621557413333337
O	5.048625159958332	-3.084782741708333	-0.5948145833333336
O	2.6267627099583333	-3.277036191708333	-0.9780770773333336
O	3.365673489958333	-4.412714971708334	-1.0989356503333336
O	10.612227789958332	7.130807678291667	1.9366464486666664
O	10.411058889958333	3.4931782482916667	2.9710098786666665
O	7.882491569958333	1.842089088291667	0.7920099286666664
O	8.746867579958332	-1.636005971708333	2.1756014786666666
O	8.111532269958333	-4.213396211708333	4.876141078666667
O	3.460424139958333	-6.960744451708333	9.573038518666666
O	5.618834619958332	-3.904530041708333	9.996066578666666
O	7.506225529958333	-1.248360231708333	8.079639678666666
O	5.695506599958333	1.100393216291667	5.768972208666666
O	6.533483899958333	4.654968738291667	4.704218108666666
O	5.212709809958333	6.999365018291667	2.0576754286666668
O	4.3866078999583324	10.039998408291666	4.209678358666666
O	0.26764112195833306	11.900939198291667	0.8128180586666665
O	-0.3514226470416669	8.529464308291667	2.4437426086666667
O	1.121986979958333	5.134915078291667	3.1955481286666667
O	2.005801239958333	4.898453878291667	6.891398778666666
O	2.293745759958333	1.3734782282916669	8.289488438666666
O	-10.078692550041668	-1.956020851708333	-1.4685091713333336
O	-7.294934670041667	0.39328626229166685	-0.37683525433333354
O	-7.886569700041667	2.824616428291667	5.653340188666666
O	-6.9830510300416675	6.380795528291666	10.111453378666667
O	-2.275339730041667	2.5137034982916666	10.134050178666666
O	-2.7141315800416668	5.349525588291667	7.637282158666666
O	-3.6861266100416668	4.142222108291667	4.131897818666666
O	-4.625936360041667	5.912154848291666	0.8960390586666664
O	-1.4234345300416669	5.950483998291666	-1.2232586213333336
O	2.275435759958333	4.409493978291667	-6.556836471333334
O	2.841012799958333	0.8616054632916669	-7.734039701333334
O	2.001023129958333	-2.7571865217083333	-7.037827691333334
O	1.231364359958333	-5.610272731708333	-9.282312631333333
O	4.554850149958333	-7.350921761708333	-8.590252771333335
O	6.478044959958333	-4.374826531708333	-9.825184621333333
O	-7.645737410041668	-6.388808831708333	-13.097503021333333
O	1.0892687399583332	-9.440210821708334	-6.143971581333334
O	2.8577277599583333	-7.383372561708334	-3.611979241333333
O	-0.40986828304166695	-6.317905921708333	-1.9070592113333336
O	-2.396184140041667	-5.600446721708333	-5.0878560513333335
O	-1.973134050041667	-1.868400171708333	-5.890963521333334
O	-2.546480970041667	-0.06176797470833312	-9.091441501333334
O	-2.9408811500416667	3.4962363582916667	-10.252509321333333
O	-7.763896100041667	0.6827291662916668	-11.157222921333334
O	-6.414648700041667	-2.1052282717083335	-8.989987301333334
O	-7.032410550041667	-2.4574655217083334	-5.242675821333334
O	-6.618299930041667	-5.000201061708333	-2.3969393113333335
O	-4.193228070041667	-3.9559356817083335	0.3854114856666664
O	-3.609132370041667	-5.298441951708333	3.898937038666667
O	-7.165529640041667	-6.657986361708334	4.143639328666667
O	-5.166802590041668	-7.466467151708334	9.199421398666667
