74

O	0.7082061356444442	2.5849837049555555	-2.51509982766
O	1.2479957556444443	1.2040623839555558	-2.5256229476599996
O	0.6016824056444445	0.12288182995555563	-1.8185812776599999
O	0.8882666956444445	-1.1955644450444443	-1.9977372276599996
O	-0.048476974355555535	-1.9114983350444446	-1.3199094676599998
O	-0.8061853143555555	-1.0850080250444443	-0.6643871536599999
O	-0.5165275343555555	0.16552933995555563	-1.0062455976599998
O	-1.2912444623555555	1.0915203789555556	-0.4100287946599998
O	-2.0448739703555554	0.8612461019555556	0.7814556603400002
O	-2.1625549563555557	-0.3846266550444444	1.0794058783400002
O	-1.8033462360555554	-1.3601782850444444	0.16638670654000015
O	-2.3377839273555554	-2.5967691050444444	0.6153489993400001
O	-3.1045794543555556	-2.9620099050444444	1.7376025123400003
O	-4.231427394355555	-2.2707098950444444	2.2898252823400003
O	-4.600743774355555	-0.9894380250444443	1.6692482223400003
O	-4.936344394355555	0.08559014895555561	2.35525658234
O	-5.663242544355556	-0.4160900950444444	3.6596773823400004
O	-6.278671174355556	-1.6480600550444442	3.31398730234
O	-5.222713744355556	-2.6781025950444444	3.12018682234
O	-7.272625094355556	-2.1046294850444442	4.13252716234
O	-2.4675119313555554	2.1976688449555555	0.9565213233400001
O	-1.6406695413555556	3.4283892549555555	1.0054946633400001
O	-2.4492286113555557	4.675352014955555	1.13294107134
O	-3.580775764355556	4.847453064955555	2.03376156234
O	-4.429608834355555	3.6699333349555556	1.7011152923400001
O	-3.606854354355556	2.495009244955556	1.6239784623400002
O	-3.0583891043555553	2.4445377849555556	3.0506728023400003
O	-4.251523454355556	2.265062084955556	3.9266769323400004
O	-5.397039684355556	2.970495624955556	3.6111007823400003
O	-11.114117094355555	-3.899586025044444	-5.11920738766
O	-10.727097614355555	-0.45550389504444433	-3.6120269176599997
O	-7.760226874355555	-0.45125670504444426	-1.3239302776599997
O	-8.633928704355554	3.0177548649555557	0.021669152340000136
O	-8.451107774355556	6.732035574955556	-0.6018239156599998
O	-3.9587230543555556	11.805463454955555	-2.68811948766
O	-6.299937444355556	9.751987074955556	-4.84552576766
O	-8.102764404355556	6.431760734955556	-4.93727330766
O	-6.101753744355555	3.1973130549555555	-4.716011577660001
O	-7.120117184355555	-0.16809389904444438	-6.07818940766
O	-5.768042614355556	-3.676532855044444	-5.85598398766
O	-5.4524757643555555	-4.583164375044444	-9.557803437659999
O	-1.1207796753555557	-8.143955325044445	-8.76784085766
O	-0.41325030435555554	-4.510659775044444	-7.94779980766
O	-1.6681863683555556	-1.4655972650444444	-6.10742799766
O	-2.9559073643555553	1.0914481509555556	-8.613817747659999
O	-3.1725251543555553	4.658236924955556	-7.31627666766
O	10.474543135644444	1.0758617909555557	0.24897242004000014
O	7.395504145644445	-0.03472084004444431	-1.6378281976599998
O	7.101223485644445	2.0716752249555554	-7.75777604766
O	1.5807022256444445	1.3190512549555558	-10.14038586766
O	3.084128405644444	-0.012692204044444377	-6.91721660766
O	4.215295495644445	-3.4147940250444444	-5.71550354766
O	1.3110631656444443	-4.857540495044445	-3.67154681766
O	-1.6755097723555556	-7.087713185044445	1.9652739623400002
O	-1.6591748043555556	-5.157652535044444	5.14390156234
O	-0.6613929743555556	-1.9477510550444443	6.75151495234
O	0.6354082456444443	-1.4326845250444444	10.243138532340001
O	-2.5690549103555558	0.33289118695555564	11.38482823234
O	-4.5607536643555555	-2.7705403650444445	10.74732253234
O	10.034707335644445	-3.1795002150444445	12.21174673234
O	0.9438674056444443	3.471873174955556	10.516450932340002
O	-1.2027214393555554	3.7298706249555558	7.62240758234
O	1.5305464456444446	3.9243996549555558	4.99654302234
O	3.793973315644444	1.3394458759555556	6.57291195234
O	3.0183215456444445	-1.9400647550444443	4.77655257234
O	3.872335245644445	-5.427653955044445	6.01684822234
O	4.091917505644444	-8.901908015044445	4.53664891234
O	9.243690935644445	-7.245183565044444	6.22302520234
O	7.848571835644444	-3.7352410750444447	6.56391760234
O	7.987414045644444	-1.0564399050444444	3.8562570123400004
O	7.510069795644444	2.6984586549555556	3.4345836423400002
O	4.643135475644445	3.683348334955556	1.07146623934
O	3.5953041656444444	6.947943984955556	-0.5505182796599999
O	7.237825345644444	8.275611234955555	-0.4261470576599999
