27

O	2.6937625002790013	30.890978954207558	8.540490593299847
O	-0.6897125754127695	32.611197279207346	8.838765090244857
O	1.7972384724989268	28.334385670711022	6.377414837634018
O	1.993402578855053	30.303671659582914	5.813566759247582
O	1.8944086324987026	26.36018613163107	9.115538872691353
O	2.612377651371347	28.989613000240656	3.980048117894939
O	-0.9172331688500455	27.225014147265284	10.084476074266
O	-0.3448946590711546	29.597859161805758	9.444163930405152
O	0.39378702766219664	30.370752776874003	8.60626052150571
O	1.654363941128662	29.904267522516363	8.494283094142734
O	2.0480782769525403	28.73307496294586	9.213323869131573
O	1.2731657660540765	27.62685741280948	9.359031069865322
O	0.025025468390925898	28.186578402826594	9.645386002805829
O	0.2555201403426479	31.76460245310215	8.165231491477819
O	3.9181026556742307	29.88836719418144	8.421463961961916
O	3.6624243936577807	29.277330350061867	7.15737473160587
O	3.15513887580762	28.142055270788322	6.710848338065814
O	1.936697046908638	29.03048125261037	5.272361431161053
O	3.284032689511186	30.4015537283744	6.326857387939183
O	2.2089453069308176	25.19094209963053	9.875611425315213
O	3.1486396388671873	24.112050377033857	9.506269093800535
O	3.1474808370622602	26.17595916428872	8.451021247881336
O	3.9681643653271235	25.115901671556987	7.943679699201757
O	1.1876394467767375	32.47740198316788	7.683084219860098
O	4.225698701620514	23.980990442974928	8.687265253351553
O	-2.245423012155298	27.675437902320514	9.818845230226518
O	-1.1223436001052187	26.84463161636602	11.290031126719738
