18

O	2.8673146784643917	28.10663011784749	7.570685832439977
O	3.762957128111802	28.35829817364948	6.52925214046428
O	4.900709561492532	27.550101813906902	6.542312676719184
O	5.038507404443898	26.66906584832678	7.56565097278206
O	4.629409000636356	27.12834137289711	8.79427782350121
O	3.5724644644734163	28.012727207611903	8.776055043286524
O	5.973132224906671	25.205872900190904	7.558568800730514
O	5.708721934291218	24.405118714853753	8.784533806452703
O	7.359059309985076	25.71555869670487	7.402550793637181
O	5.715836419628847	24.166208609887683	6.237115795412704
O	0.5595218683116663	32.1459858059938	8.061978770714806
O	1.2568909485591846	32.660257629847614	7.074477446118384
O	2.425611894582233	32.02498362054858	6.81653746031231
O	2.2987872890737977	30.753673864144886	6.772594331035721
O	1.7080402592691049	30.18861607222911	7.807811158687135
O	0.510082646754717	30.78546583779416	8.20651511432723
O	-0.33457903721308746	32.90749409681797	8.778512601036157
O	1.710278121350773	28.81726839521035	7.866377035771399
