72

O	-1.5207100697234042	-4.291477125134042	-2.345633055617021
O	-0.5041250257234041	0.37826233486595795	-1.8447110056170213
O	-1.272641209723404	-4.595900165134042	-1.0084675026170211
O	1.574479035276596	1.376952194865958	-1.307367446617021
O	-0.9006762332234041	-3.4838278851340423	-0.25397974761702113
O	1.700408575276596	0.9123477158659579	-3.606327587617021
O	-0.9512132956234041	-1.1657859151340422	1.114567802382979
O	-1.574006137723404	-1.905138265134042	-1.8247706566170212
O	1.3067809652765958	1.6520506648659579	1.052984712382979
O	-2.034095514723404	-3.010307545134042	-2.548539097617021
O	-1.247297072723404	-5.0762434451340415	-3.421644067617021
O	-1.692527374723404	-4.630198095134042	-4.636418797617021
O	-2.706204264723404	-3.752758825134042	-4.655465887617021
O	-2.942301124723404	-2.973802065134042	-3.559290847617021
O	-0.6471650427234041	-2.308962685134042	-0.9008096226170211
O	-0.27653486572340413	-1.270778295134042	-0.006724587617021216
O	0.3083779052765958	-0.18866193513404206	-0.3450413076170211
O	1.172629485276596	0.828502345865958	-0.03459630761702104
O	0.9919366852765958	0.973474297865958	-2.401065381617021
O	1.1315117552765959	0.00367471886595791	-4.4159730676170215
O	0.6574425952765959	-1.4052224951340422	-4.265250717617021
O	-0.6206231167234041	-1.425328065134042	-5.0024752576170215
O	-0.4177690327234041	-1.906651525134042	-6.388329787617021
O	0.705160385276596	-0.9300390751340422	-6.733082347617021
O	1.013114405276596	0.21833231056595792	-5.8709207576170215
O	10.436979865276596	-3.153378065134042	-6.602849397617021
O	7.2427476152765955	-5.217745115134042	-6.506920127617021
O	4.466279325276595	-3.014787545134042	-5.745665577617022
O	1.8020275952765958	-5.640368355134042	-6.340403647617022
O	-0.02350804272340412	-8.661089735134041	-4.909034327617021
O	-2.977754984723404	-11.473683095134042	0.8997976623829789
O	0.6639960452765958	-11.666449695134041	-0.12442199761702111
O	3.216041635276596	-9.834937595134042	-2.245085133617021
O	3.9497507252765955	-6.147924435134042	-1.543350378617021
O	7.285336215276596	-4.439038585134042	-2.187584191617021
O	8.520858175276596	-0.8689385151340421	-2.108904525617021
O	11.434590065276597	-1.145495025134042	0.2761549423829788
O	10.882238565276596	4.189702774865958	2.1215457223829786
O	7.991173415276597	1.858974264865958	2.911945222382979
O	5.516455845276596	-0.7013231731340421	1.484631332382979
O	6.539065525276596	-4.1388222051340415	2.7301914623829786
O	3.8599904052765956	-6.793636175134042	2.6805355623829783
O	-2.333633664723404	4.104370164865958	5.718822382382979
O	1.0476494952765958	0.4587776188659579	9.853648122382978
O	5.697337995276596	-2.1061970151340423	12.174947422382978
O	3.8012383852765956	-5.768094965134042	7.654916452382979
O	5.575026335276595	-2.450781665134042	7.127685382382978
O	3.279098455276596	0.3124936941659579	5.804050092382979
O	3.7575171852765963	3.9748462048659583	5.1283108323829785
O	4.363289735276595	4.274462424865958	1.375348922382979
O	3.059416345276596	6.660305834865958	-4.626571607617021
O	-0.27019106472340415	6.009602014865958	-6.333515857617021
O	-3.605010814723404	4.219127884865958	-5.865662307617021
O	-7.009261314723403	5.238522924865958	-7.009873557617022
O	-7.228457194723404	2.496887194865958	-9.645949817617021
O	-4.239040934723404	3.8580774148659582	-11.394492867617021
O	-9.769111374723403	1.2802628548659578	-5.868029647617021
O	-6.5669848747234045	-0.6826605741340421	-5.582426437617022
O	-6.403893554723403	-0.2299637101340421	-1.8444895786170212
O	-7.294727714723404	3.497546744865958	-1.7688163356170212
O	-4.005787794723404	5.424118814865958	-1.892267658617021
O	-3.4064792447234042	9.033202984865959	-2.8239763776170212
O	-0.5940115547234042	11.544147304865959	-2.440819790617021
O	-5.066497394723404	13.190245304865957	0.604326492382979
O	-6.548755514723403	9.731434234865958	0.10417320238297889
O	-6.054380144723405	6.828880554865958	2.524948672382979
O	-7.534058474723404	3.4126470948659575	3.2802754823829785
O	-5.0740994247234035	0.5318701948659579	2.9427198923829785
O	-5.235199844723404	-3.1225315151340425	4.070797742382979
O	-7.609509764723404	-2.253458525134042	6.953969642382978
O	-9.075607334723404	-5.073244055134042	9.097481722382978
O	-6.462142924723404	-7.545957165134042	7.889886782382979
