23

O	4.325946410735441	28.158382228226806	7.788402359734421
O	3.4454162518294154	28.257176271144466	6.648710820243675
O	4.315876025944214	28.12419359005937	5.527757073546126
O	2.6476527465953903	29.491517488883122	6.56475352645552
O	2.253758424099543	30.28446131955027	7.376328986819128
O	2.7672936070120877	29.293531391360354	8.271305711949587
O	1.5811783210303025	28.96548944454994	8.914607270902605
O	1.354459376537223	28.436533033290786	10.280081010469443
O	0.3050876893442281	27.435075207196604	10.515491369030336
O	-0.08756359614550259	27.094656605878775	9.072656135230776
O	1.2415327513171501	26.92938402283412	8.344545051458594
O	2.217704039136233	25.983230182643403	8.75285852454967
O	3.336033963888912	25.384762583901633	8.212469976225883
O	2.5926055228533293	26.418695652391975	10.095396246418554
O	1.202559646401336	26.28096622845694	10.721637673889072
O	0.3258248533511528	29.533933323735337	8.866153119688981
O	0.1971125741513951	30.90059520206604	8.539200941380445
O	-0.6448963773725929	31.96668006637534	8.673823567256736
O	-1.6420917645416342	32.32415032961662	9.59192233534296
O	-2.6146741105215523	32.10652355320703	10.228292657354638
O	0.0010819967065906176	33.004432045249466	8.069650332733453
O	0.8403811546208595	32.377415284851025	7.335952827607381
O	1.280882440464514	31.185843518972288	7.740944869947075
