69

O	0.6120784435111117	1.6118470539555552	-1.1138174345999998
O	0.6419098935111118	1.0844570429555551	0.14211458240000008
O	1.3155068035111117	-0.06031470404444483	0.20434986340000005
O	2.024753683511112	-0.07902798004444478	-0.9137195646
O	1.5411377835111117	0.8647832429555552	-1.7795070346000001
O	-0.18070802848888817	1.3919387409555553	1.1258737344
O	-0.2375508184888882	0.6573199539555552	2.2162746354
O	0.3984420735111118	-0.5368056460444447	2.3089155354
O	1.305173893511112	-0.8013158660444447	1.3526575994
O	2.1630133135111116	-1.928925876044445	1.5290554254000002
O	-1.309259790488888	0.7120796699555552	3.2900517754000003
O	1.625312923511112	-2.859234586044445	2.4027072354000003
O	2.277313373511112	-2.794138116044445	3.6836188154
O	3.5236980835111122	-3.396675016044445	3.8426242854000003
O	4.085414373511112	-3.613949716044445	5.0531871954000005
O	3.2940361835111114	-3.731378906044445	6.102172035400001
O	2.117467593511112	-3.044159036044445	6.024313885400001
O	1.515985993511112	-3.161904976044445	4.8051985154
O	-1.0169714784888881	1.7001916339555554	4.2437595354
O	-1.9569859164888883	2.210157973955555	5.1309222254
O	-3.278335546488888	2.027845753955555	4.820234585400001
O	-3.566891676488888	1.663215523955555	3.5105641154000002
O	-2.5085224964888884	1.2784062639555551	2.7340147054
O	-0.6213892674888882	3.0846348139555553	-1.3236949545999999
O	9.82396547351111	2.588326863955555	7.9530751554000005
O	6.151255243511112	3.225807253955555	8.707365105400001
O	3.7633723335111124	1.1389932829555551	6.5014316654
O	0.7291513535111118	2.2604376139555553	8.3629456254
O	-1.8821106464888882	4.981254723955555	8.6695601254
O	-5.816411046488888	9.808391903955556	5.1631066254
O	-2.283319746488888	10.203369903955556	6.415196845400001
O	0.7776627935111118	8.219711373955555	7.3868902554
O	2.4587987035111114	5.935940393955555	4.8529261154
O	6.156894343511112	5.067686983955555	4.733296135400001
O	8.274175293511112	2.627160923955555	2.7795404754
O	10.86891397351111	4.8703766939555555	1.1992174754000002
O	11.57245847351111	1.6267478039555554	-3.4006230046
O	8.128883093511112	3.141064143955555	-2.9743774646
O	5.250375333511112	3.767767793955555	-0.6146278446
O	5.192088673511112	7.404490903955555	0.41379562640000006
O	1.904506473511112	8.763049853955556	1.6945747954000001
O	-1.5675860344888881	0.3253435949555552	-7.3878177545999995
O	0.46972709351111175	6.382007423955555	-8.5177293546
O	4.343615173511112	8.311862623955555	-4.228843674599999
O	2.9698476535111116	4.846892653955555	-4.9607402045999995
O	4.396637653511112	1.6857880239555554	-6.4155152546
O	5.406250753511112	-0.5136362560444448	-3.4711805446
O	5.083069473511112	-6.059312546044445	0.03812607640000004
O	1.906402953511112	-7.406475686044445	1.7267037554
O	-1.8069684964888881	-6.610897396044445	2.1140254954
O	-4.762500526488888	-9.013061266044444	2.0579849254
O	-5.480527216488888	-8.461869006044443	5.777314045400001
O	-2.108153746488888	-9.732297516044444	6.7045183754
O	-8.081615756488889	-12.501977016044444	-6.3535345545999995
O	-8.508655966488888	-5.947107096044445	3.1655236454000004
O	-5.979625356488888	-3.396418196044445	4.3571431854
O	-5.902628456488888	-1.5812459260444447	1.0531856904
O	-5.820939756488888	-4.669102356044445	-1.2015951446
O	-2.131958646488888	-5.3810682160444445	-1.8707653645999998
O	-0.5959784624888882	-8.599448376044444	-3.1441317146000003
O	2.7106440235111116	-9.659817416044444	-4.667783024599999
O	-1.4155921204888882	-10.400136816044444	-8.4544707446
O	-3.664345216488888	-8.328234256044444	-6.2020666946
O	-4.157822556488888	-4.572645686044445	-6.5144148646
O	-6.502231696488888	-1.8440444260444449	-5.3231999546
O	-4.810349906488888	0.8664932559555552	-3.2113915245999998
O	-6.029344066488888	4.330604943955556	-2.1944008545999996
O	-8.362267286488889	4.632243243955555	-5.2037956246
O	-10.667763626488888	7.666981273955555	-5.5144420546
