68

O	0.029095122490195635	1.5866764334705872	0.8095234833725493
O	-2.3010738375098043	-1.0621346965294127	-2.3952105056274506
O	-2.6567275875098044	-1.594819226529413	-1.1629451156274506
O	0.6121980924901957	0.38922689747058725	1.2027733083725494
O	-0.06015092750980444	0.2585473884705872	2.4764220443725495
O	-1.8274123195098042	-1.4758040765294127	-0.029028015627450665
O	-1.0924583677698043	-0.3157662655294128	-0.1160678006274507
O	-1.8029564265098044	0.4344802064705872	2.335072544372549
O	-0.3380158795098044	0.04184699747058723	-1.3464749456274507
O	-1.3018869325098044	0.8376245464705872	0.6596120763725493
O	-1.3131779685098044	-0.024544241529412814	-2.448551955627451
O	0.6395362624901957	2.053982713470587	-0.4705069086274507
O	0.5105517324901956	1.5818670034705873	3.009418834372549
O	-3.952138727509804	-1.7811840465294126	-0.7055660456274506
O	-3.9948990175098045	-1.6322888865294127	0.7192595613725493
O	-5.018477297509804	-2.5393513965294128	1.1692249043725493
O	-4.704941647509805	-2.7542428265294125	2.453268574372549
O	-12.822378077509804	3.426236273470587	1.3261536953725495
O	-10.368568947509804	3.4113272734705875	4.23430846437255
O	-7.6545734275098045	0.9198601644705873	3.7056300043725496
O	-6.092195927509804	1.3392937394705873	7.106139624372549
O	-3.9469048775098043	3.531426303470587	9.32222810437255
O	2.0722559524901953	7.547325583470587	9.61223533437255
O	-1.4016577505098042	8.624747363470586	8.53341790437255
O	-4.672722287509805	7.274705213470587	7.150888394372549
O	-4.728367447509805	5.391241443470587	3.8234456743725493
O	-7.6043372875098045	5.270984553470587	1.3864788073725494
O	-8.398771407509805	3.431420653470587	-1.7842336756274506
O	-9.039137017509805	6.186398703470587	-4.265913175627451
O	-7.238421927509804	3.2042989734705873	-8.75402119562745
O	-4.604003817509804	3.9836521734705874	-6.138082435627451
O	-3.788877367509804	3.914545533470587	-2.448380695627451
O	-3.839516577509804	7.483073633470587	-1.1021810156274507
O	-1.8976498615098043	8.096770963470588	2.0935082743725495
O	11.860165322490197	7.467365993470587	-2.998017625627451
O	8.602063062490195	-2.326744776529413	-4.179605655627451
O	5.146362012490195	-0.7072059765294127	-4.173407275627451
O	5.512128922490196	2.1292865134705874	-6.676453235627451
O	5.192322962490196	5.665516393470587	-5.352607685627451
O	3.209065662490196	7.258199883470587	-8.18170769562745
O	3.124757042490196	10.856657543470588	-6.995459395627451
O	1.4620037724901958	10.078692933470586	-1.1459642156274508
O	-0.13247059150980434	8.282337533470587	-4.080168055627451
O	0.8603796724901955	4.603695973470587	-4.287380995627451
O	0.14620838249019563	1.8229314234705871	-6.767716515627451
O	-2.8047488875098043	-0.18458933052941273	-5.3931997556274505
O	-5.659132187509804	-5.696819196529413	-3.0539705056274506
O	-4.3484503775098045	-7.679495546529413	-0.13025514662745064
O	-1.5383389945098043	-7.736866356529413	2.4324630343725495
O	0.3306020324901957	-10.645909156529413	3.866320474372549
O	-1.3361524775098044	-10.327524856529413	7.282109404372549
O	-4.727792537509805	-10.910684856529413	5.762954664372549
O	7.558238992490196	-14.657335356529414	-1.2773545556274506
O	2.9888907024901963	-8.417646606529413	7.412150374372549
O	0.6750754824901957	-5.392684796529413	7.104599644372549
O	3.0666750424901963	-3.678611976529413	4.759055834372549
O	3.887725452490196	-6.631626846529413	2.513206984372549
O	1.3570686424901954	-6.542196166529413	-0.3406187916274507
O	0.40693613249019567	-9.349191966529412	-2.7011928556274505
O	-1.4039492865098044	-9.647717556529413	-6.014285635627451
O	4.014457762490196	-11.166850856529413	-6.651013115627451
O	4.700242922490196	-9.650416156529413	-3.2377894556274507
O	5.871582152490196	-6.077086556529413	-2.661299015627451
O	7.452523592490197	-3.9516670765294126	0.0570692263725493
O	5.3210087424901955	-0.9524829565294128	1.1205552923725492
O	6.059773382490196	2.2015751334705875	3.119878374372549
O	9.796986022490195	2.065045583470587	2.1989866543725496
O	9.373619522490197	6.862741473470587	4.868495134372549
