75

O	2.6795614638750003	0.3737628627499999	1.1023975967500004
O	2.5046000138749998	-0.7538830072500001	2.0157041637500006
O	1.137971083875	-0.7630841782500001	2.15005064375
O	1.510986363875	0.25502282474999993	0.2733528785500005
O	0.514588353875	1.06534416375	0.8206279927500005
O	0.14486308387500002	-0.25212078405000005	1.3740531137500005
O	-1.197833286125	-0.3464005352500001	1.0298401847500005
O	-1.4745894051250001	0.9668072837499998	0.4235169157500005
O	-0.419412185125	1.58210403375	-0.09643029324999947
O	-2.4072430061250003	-0.9151794472500001	0.7154557917500005
O	-3.492026476125	-1.64441934625	1.3586940737500006
O	-2.871714726125	-1.50304113625	-0.5157893362499995
O	2.850848133875	-1.94285942625	1.2821354067500006
O	1.9331237338749998	-2.9956113062500003	1.7749372737500004
O	2.469888023875	-4.27417065625	1.0402081757500006
O	2.3519074638750004	-5.47510104625	1.6728262837500005
O	1.147316253875	-1.10365909825	0.11125617975000052
O	0.1994385538750001	-2.1113193962500003	0.11621916475000052
O	-0.36524240112499995	-3.0483385062500004	1.0891264977500006
O	-1.068550662425	-3.09820538625	2.4099073237500006
O	-1.937882924125	-4.20697699625	2.7441472337500006
O	-2.886000676125	-4.794865876249999	1.7465487637500006
O	-2.3033178161250003	-4.54877117625	0.3518540256500005
O	-0.793968437125	-4.29012518625	0.5428641987500005
O	2.673677513875	-3.45869355625	2.98592165375
O	1.466485533875	-4.34931654625	3.31481362375
O	-0.553053628125	-5.29929902625	1.4179601837500004
O	3.6286120938749997	0.7572665507499999	12.41410591375
O	1.418123743875	-2.04660927625	11.12237091375
O	2.083987473875	-2.43941928625	7.471409583750001
O	-0.05549426012500003	-5.64005647625	7.1786915137500005
O	-3.506861286125	-7.09870547625	6.871201493750001
O	-9.886866266124999	-6.30823625625	3.8277058437500004
O	-8.676375666125	-4.73533976625	7.04060825375
O	-5.509481796125001	-3.7526374862500003	8.85667226375
O	-3.1234121161250004	-1.2296378562499999	7.338919763750001
O	-0.781578310125	1.14447095375	9.091697793749999
O	1.9918719438749999	3.44583702375	8.02712654375
O	0.8739469638749999	6.75730952375	9.56182140375
O	3.3804293738749998	9.97227022375	5.637104133750001
O	0.5897324938749999	7.748919073750001	4.378337763750001
O	-0.762204860125	4.25035737375	4.440083553750001
O	-3.937089206125	4.10228681375	6.586203493750001
O	-6.347148226125	1.24083382375	5.99271828375
O	-2.233131796125	3.4088355337499996	-9.48285337625
O	-1.613404912125	4.05970361375	-5.797907466249999
O	-6.396796776125	7.27595684375	-2.777119646249999
O	-8.951927016125	10.45913952375	1.2945962227500005
O	-8.930790286125	4.82283495375	3.4947572837500003
O	-5.8507187461250005	7.05511940375	3.2999398437500007
O	-3.3986438061250004	6.10219095375	0.5372644447500006
O	-0.17506387312500005	7.48482089375	-0.8279806662499996
O	2.6712298338749996	5.53797128375	0.8884018717500005
O	7.903776083874999	1.49498481375	1.0037816617500006
O	7.841950863875	-1.87732322625	-0.5224778722499994
O	5.893197833875	-4.32017001625	-2.518390996249999
O	6.8465934238749995	-6.673749906249999	-5.262861926249999
O	6.650105133875	-9.773495236250001	-3.0384829262499995
O	9.349288433875001	-8.41431513625	-0.8042747962499994
O	7.420470733874999	-3.2763432362500002	-14.34547688625
O	2.742494663875	-9.428737566250001	-5.691399036249999
O	1.652775493875	-8.22089992625	-2.3129082162499994
O	-0.45896490612499996	-5.46261564625	-3.939143596249999
O	2.040173473875	-4.22748968625	-6.500825896249999
O	4.053890333875	-1.40708801625	-4.861505246249999
O	7.411307983874999	-0.05777619025000008	-5.884061716249999
O	9.551012933875	2.9583296137499997	-5.152442786249999
O	7.9971138738750005	2.9891792737499996	-10.61939918625
O	5.499013883875	0.25778719274999995	-9.80232988625
O	1.8532280838750002	0.8423127137499998	-8.86409462625
O	-1.413602677125	-1.07856123825	-8.50350232625
O	-2.836400136125	-1.0783014262500001	-4.9244883562499995
O	-6.330058126125	-2.02653337625	-3.5964638762499996
O	-7.973861036125	-1.27083474625	-6.863521156249999
O	-12.194451066125	-2.3238415162500003	-3.461607376249999
