19

O	0.9467862711516355	27.599460448808617	9.967422041500226
O	0.29897020238358485	28.439688253662204	10.678221107592273
O	-0.14851372543823388	32.63289070023131	9.962128417951693
O	1.1419744108623466	32.15857725178168	9.364189035253755
O	-0.34983325890251515	28.903058476237717	8.572077949370216
O	-1.2736144698776737	31.894999871070663	9.739867576077549
O	-1.4884422720561497	29.59065213291537	8.879219744052477
O	1.703157399639557	28.00562995642047	8.858296223786363
O	1.148958226877724	31.857786444141976	8.077562166217087
O	0.9121315199706717	28.708490803718583	7.9324176968455635
O	-0.9021889207032501	30.796391177834693	9.062661282979514
O	0.12941802905474084	30.964407611812494	8.117528003414474
O	-0.7062647606706343	28.464183582112632	11.655312183239202
O	-0.586030469130266	27.625055237168837	12.520425806385244
O	0.785027210245234	29.960138706680475	7.561335287800409
O	2.410915971190993	31.786859022578838	7.391778492984882
O	2.214748447466737	29.527599124200933	9.511143172525822
O	1.3379999544920125	29.380396945004065	11.02535811758053
O	-1.0467405323915413	29.726787461105758	12.017660989059276
