75

O	0.1064950402431819	2.050226987795455	-2.969440422568182
O	-0.2289258297568182	4.390853200795455	-4.089055012568182
O	-0.037644439756818304	6.066386230795455	-5.980931662568182
O	-2.096001013756818	1.5879312167954551	-4.0021356825681815
O	-0.9988853607568182	0.9276647087954553	-3.4201024925681818
O	-3.308115259756818	1.1307904497954553	-3.240308082568182
O	-2.970564159756818	-0.11834909920454484	-2.685243572568182
O	-3.5378321497568184	2.100655420795455	-2.126183912568182
O	-4.656132979756818	2.8889778107954553	-2.201640865568182
O	-3.348905759756818	1.3310361396954553	-0.8592172115681818
O	-4.643784349756818	1.2679969177954553	-0.3166810715681818
O	-2.828767509756818	0.03834036079545533	-1.3544515850681818
O	-2.185410562756818	-3.1148612092045447	2.557943527431818
O	1.3008524302431816	1.3805093862954552	-2.440009322568182
O	0.7745792302431818	5.330602060795455	-3.5150587825681816
O	0.17085860024318178	6.963768130795455	-4.800017692568182
O	-3.3010177297568184	-2.779475349204545	1.9094727374318181
O	-0.5863099247568182	2.9165398307954553	-1.7288179085681818
O	-1.5427675654568183	4.255724590795455	-3.1180380425681817
O	-1.0788795567568181	6.584982200795455	-7.1272575625681815
O	-3.3190343597568184	-1.9071356392045447	0.9016193874318181
O	0.5181522202431819	2.9548100907954553	-4.295361182568182
O	-1.0404243757568181	4.826662240795455	-5.460399122568182
O	1.396973770243182	5.306884950795455	-6.340685552568182
O	-2.1522758297568183	-1.4765511292045446	0.3941264374318181
O	-1.0122023427568183	-1.8100460592045446	1.0692981174318181
O	-1.0132772777568182	-2.653466369204545	2.1440054574318186
O	0.1728418102431819	-2.969858469204545	2.8177093074318185
O	0.03619352024318179	-1.3687386692045447	0.3975230474318181
O	-0.4860954367568182	-0.6003921492045448	-0.6006205865681818
O	-1.8180743717568182	-0.6400720892045446	-0.6275006625681818
O	-8.281020049756817	-8.698060239204544	-5.4716193325681814
O	-6.4728137997568185	-5.6649344192045445	-6.844538032568182
O	-5.8488163297568185	-3.1471086592045445	-4.057770712568182
O	-4.5493768297568185	-0.6142772492045447	-6.489915442568182
O	-1.5807438937568181	0.6060647577954552	-8.594520072568182
O	5.548561830243181	1.5023901297954552	-8.538483542568182
O	3.6467046402431817	-1.613156489204545	-9.588836252568182
O	0.3083517702431817	-3.2851720592045446	-9.024320402568183
O	-0.7558762137568182	-4.335585079204545	-5.531110412568181
O	-3.021770799756818	-7.1627947492045445	-4.617027972568182
O	-4.664322109756818	-8.501720379204546	-1.4997464065681818
O	-1.1506167187568181	-9.712085239204544	2.991954517431818
O	-0.6735247237568182	-6.996153519204545	0.4216697074318181
O	1.4253403202431818	-8.201452379204543	-2.4507672125681816
O	3.218684720243181	-5.626177459204545	-4.540368452568182
O	4.7037532602431815	-6.6382123692045445	-7.886698932568182
O	3.4915165602431815	-0.7701039692045448	7.422906737431818
O	7.184806700243181	-7.148352579204544	-1.7827499505681819
O	4.927257910243181	-8.706984639204546	0.8277234374318183
O	3.4615389002431813	-6.189988599204545	3.248893827431818
O	1.2443913302431817	-6.415603349204544	6.323185777431818
O	-2.328832307756818	-5.776448529204544	5.154707887431818
O	-8.158760499756818	-2.527768329204545	5.210304577431819
O	-8.438805539756817	1.1725437297954553	4.361854517431818
O	-6.356562069756818	4.160620580795455	3.3809242374318185
O	-6.783357249756818	7.772507680795456	4.547449837431818
O	-8.023138119756817	8.947720940795456	1.1425359574318181
O	-0.06364882975681829	11.194846020795456	0.37247431743181814
O	-3.449197549756818	10.098313830795455	1.6976633274318182
O	-3.3742345397568183	7.037203540795455	-0.4729107545681819
O	-0.3093049897568183	5.612368170795455	1.342040497431818
O	-1.4241904644568182	6.347829280795455	4.872937397431818
O	-3.259686339756818	3.247532610795455	6.059505547431819
O	-5.647466069756819	2.9501207307954553	8.995466097431818
O	-2.424099536756818	4.935936600795455	11.154907097431819
O	0.6837300002431819	3.766872070795455	9.274528897431818
O	3.115109700243182	4.938825860795456	6.606449747431818
O	3.2247764602431817	2.753186820795455	3.4665833274318185
O	5.770452900243182	2.5736493107954552	0.6221067074318181
O	8.555150400243182	3.980308450795455	2.708154897431818
O	12.012151200243181	4.635354850795455	1.1707422374318182
O	11.210535900243181	2.5224875207954556	-1.8824522255681817
O	11.575341300243181	5.824608110795455	-3.7611437825681815
O	1.7320097702431816	11.150848680795455	-10.342691222568181
