74

O	-5.318056500166667	-1.448035637966667	0.6968759657708335
O	-6.561329550166666	-0.7640391579666671	0.6781163657708337
O	-6.671692570166666	0.5834858590333329	0.8649004857708337
O	-5.5206855101666665	1.3127503390333328	0.9621562457708336
O	-4.265077270166667	0.7302830951333329	0.7560661257708335
O	-4.313507910166666	-0.6183188779666672	0.4089303127708336
O	-7.715607850166666	-1.4887497479666671	0.3403645507708336
O	-3.134777910166666	-1.224566097966667	-0.16857406622916643
O	-2.0218040371666666	-1.9621675179666669	-0.24513005722916642
O	-0.8534452201666662	-1.657548097966667	0.33380140377083356
O	-0.8640932201666662	-0.23369187796666713	0.21871006377083357
O	-1.5632608611666663	0.35400423303333295	-0.7472976912291664
O	-2.6641337541666665	-0.28673206796666706	-1.0916913972291664
O	0.44040102983333385	0.1641884940333329	-0.012491512229166446
O	0.6905061798333338	1.4116787260333328	-0.4790756018291664
O	-0.3711791401666664	2.211854432033333	-0.8098757782291663
O	-1.5629565861666663	1.735319679033333	-0.5094315740291664
O	-2.6330989851666664	2.596996012033333	-0.7416236212291665
O	-2.6770231271666662	3.905287102033333	-0.1950194692291664
O	-3.6094381101666664	4.058082832033333	0.9580488457708335
O	-1.3123398141666662	4.284288972033333	0.27174703377083353
O	-3.3155564501666666	4.791237482033333	-1.2218960092291664
O	1.6587269998333338	1.1959031500333328	-1.5809880742291664
O	1.2269361198333335	0.3362221510333329	-2.4958074142291666
O	2.0433606398333337	2.399772702033333	-1.6577884242291665
O	2.669879299833334	0.3854002920333329	-1.0466565632291664
O	-7.914458630166666	-5.008680917966667	-8.835447424229166
O	-8.213940500166666	-1.462707187966667	-7.565077314229167
O	-6.598364970166666	-1.323208437966667	-4.111655494229167
O	-7.896336190166666	2.194528922033333	-3.4563238642291663
O	-7.330643290166666	5.8532230020333325	-3.987088314229166
O	-2.3209691861666664	10.953813322033334	-4.543884344229166
O	-3.622515210166666	8.665578792033333	-7.2221887242291665
O	-5.293175940166666	5.359126092033333	-7.844402894229167
O	-3.617832680166666	2.179382882033333	-6.718240024229167
O	-3.9301221701666664	-1.292178257966667	-8.221180834229166
O	-2.8345644921666664	-4.764621257966668	-7.209724524229166
O	-0.8571892001666663	-5.919631627966667	-10.215438084229167
O	2.5625385598333335	-9.323656977966667	-7.229769174229166
O	2.8452689798333335	-5.633453517966667	-6.423665034229167
O	0.8961611698333336	-2.546471267966667	-5.6729143542291665
O	0.9149937698333337	-0.14612091096666713	-8.673348104229166
O	0.18915541983333362	3.495793072033333	-7.836691504229167
O	6.992388849833334	-0.6156517179666671	2.6310768257708337
O	9.435523189833335	1.074578982033333	-3.1537134842291663
O	10.555284489833333	0.8472759774333329	-8.846599424229165
O	5.244898199833334	3.826028752033333	-8.346130264229167
O	5.637856839833334	0.0837383680333329	-7.848556744229167
O	5.572637099833334	-1.0732561179666669	-4.261485034229167
O	5.865321559833334	-4.306056017966667	-2.3310196342291665
O	2.3728639598333343	-5.687954467966668	-1.8363857642291666
O	-2.7090247481666663	-7.634300057966667	1.8405189157708337
O	-4.335631240166666	-5.524604407966668	4.5000047057708334
O	-4.177548320166666	-2.138302047966667	6.200266085770833
O	-4.739280400166666	-1.272901887966667	9.825960385770834
O	-8.069217310166666	0.46393510403333293	9.138612135770835
O	-9.505002680166667	-2.681704817966667	7.717737815770833
O	2.4522073398333335	-2.676494007966667	16.180864885770834
O	-4.651526660166667	3.695548812033333	9.669050285770835
O	-5.199099470166666	3.525551662033333	5.9598565057708335
O	-1.5096272461666662	3.654645822033333	5.118829555770834
O	-0.26666301016666627	1.3599738140333328	7.9134485757708335
O	-0.04559421016666643	-2.066289327966667	6.267919805770833
O	0.10521060983333363	-5.438647117966667	7.874496895770833
O	0.9865178598333337	-8.983203797966667	6.9275783957708335
O	4.636525679833334	-7.144171617966667	10.809561285770835
O	3.2754768898333335	-3.6533340679666666	10.250794885770834
O	4.769802089833334	-1.152946297966667	7.803086855770833
O	4.610432919833334	2.559300432033333	7.001294785770833
O	3.2139303098333336	3.194745602033333	3.4638611457708337
O	3.1579862898333335	6.290348052033333	1.2567535057708334
O	6.3144133998333345	7.717032932033333	3.007897015770834
O	7.550387389833334	11.205912422033334	2.0988556257708337
O	5.480544889833334	11.270485322033334	-1.0673965212291665
