70

O	4.801581412978261	1.3900201378043477	-1.5999763429130436
O	0.8268043429782609	0.3568145018043478	-1.1312389089130435
O	3.473726782978261	1.117396811804348	-1.4396278829130433
O	-1.3489251050217392	0.7391414118043478	-0.5698804669130435
O	2.7084165529782607	1.6366558028043479	-0.3839994466130435
O	-2.497153727021739	0.11698718180434797	-0.6792318109130435
O	3.3367677529782607	2.554167063804348	0.40889129508695654
O	-1.9298257570217392	2.697469013804348	0.7697888970869565
O	4.7428752129782605	2.455004865804348	0.44117374008695653
O	-1.4427321260217392	7.613928971804348	2.6744616370869565
O	5.28623624297826	2.451834733804348	-0.8401815409130435
O	1.2532936429782606	1.418198600804348	-0.4025825053130435
O	0.34577099697826075	2.057742096804348	0.4065399750869565
O	-0.9871791740217393	1.821310766104348	0.1633234570869565
O	-0.4548402060217392	0.01752294180434788	-1.2956902279130436
O	-1.0419303170217393	-1.1716671781956522	-1.7156227829130435
O	-2.351568297021739	-1.060093068195652	-1.3351819829130434
O	-1.607988877021739	3.392340511804348	1.9706471970869566
O	-1.6329004970217391	4.842000931804348	1.9741383170869562
O	-2.734088437021739	5.681701291804348	2.1152996770869565
O	-2.567095557021739	7.081784151804348	2.2283838670869565
O	-0.3465412120217392	6.889342011804348	2.456002657086956
O	-0.4577043270217392	5.509291871804348	2.1909766570869564
O	6.158383412978261	0.3007103518043479	-2.3268137329130436
O	-3.676558517021739	11.319157131804348	-5.573631282913044
O	-0.05478721802173925	10.311428151804348	-4.852626092913043
O	0.1421910509782608	7.612381721804348	-2.1495944029130434
O	3.883294212978261	7.689365321804348	-1.7756219429130433
O	7.061743872978261	6.501229571804348	-3.2928743129130438
O	10.41447470297826	1.067049363804348	-6.465946372913043
O	8.22904212297826	3.672463471804348	-8.054555862913043
O	5.458394532978261	6.124152241804348	-7.379477802913043
O	2.1253118029782607	4.8649759618043475	-6.0043364429130435
O	-1.2665445600217393	6.497983491804348	-6.561677862913044
O	-4.75570146702174	6.017654881804348	-5.2114791929130435
O	-6.81403436702174	5.488641711804348	-8.328154402913043
O	-10.629836497021738	2.128203970804348	-5.832103182913044
O	-7.081546847021739	0.796609761804348	-5.9305989429130435
O	-3.4358128870217395	1.5492746598043479	-5.280965662913044
O	-1.6287424370217392	1.9653216740043478	-8.627386742913043
O	2.147005222978261	1.4863461218043479	-8.591166402913043
O	-2.175115867021739	-7.106832598195652	-0.0745643089130435
O	-2.101662687021739	-7.872755448195653	-6.479819622913044
O	-2.7006377070217393	-2.6253559681956524	-9.422114352913043
O	-3.1543464870217393	-3.4850276381956524	-5.766514142913044
O	-6.112465847021739	-3.731198188195652	-3.4349407229130438
O	-6.39318660702174	-0.3999669781956521	-1.5640549429130437
O	-6.607061807021739	3.090604701804348	3.9300910470869566
O	-3.698657867021739	3.287797111804348	6.500098957086957
O	-0.15936314602173918	1.9833882608043478	7.101317097086956
O	1.4601224629782608	0.8215986918043479	10.408170357086957
O	3.984885372978261	3.729293571804348	10.371314557086958
O	1.164082552978261	6.155393491804348	10.574277157086957
O	-0.9443347020217392	-7.661384468195653	14.292943357086957
O	6.094413132978261	-0.12638904819565222	8.919925867086958
O	5.417123552978261	1.819763738604348	5.752171137086957
O	4.51683009297826	-1.329888308195652	3.847509367086956
O	2.320062282978261	-2.929672078195652	6.5077923870869565
O	-1.2494220420217392	-1.8223520781956521	5.7908415470869565
O	-4.223888807021739	-1.9085356581956523	8.153550917086957
O	-8.01202758702174	-1.727733208195652	7.827209947086957
O	-6.595210907021739	-6.787112368195652	9.760891657086958
O	-3.0026642070217395	-6.018641948195652	8.813197727086957
O	-1.4172075690217392	-6.930999418195652	5.484835747086956
O	2.015014392978261	-7.2444574781956526	3.9095972770869567
O	2.5719689029782606	-4.960657908195652	0.9096992770869564
O	5.25240522297826	-4.9004876881956525	-1.7535253929130437
O	5.88878826297826	-8.727841218195652	-1.4024283829130435
O	8.74942436297826	-10.319989118195652	-3.3462170329130436
O	8.994240522978261	-7.362799968195652	-5.699059572913043
