74

O	-2.3657115864638296	9.61327526719149	-1.9917509048468092
O	-1.3040332870638298	8.80472990719149	-1.4544873548468091
O	-1.77509690246383	7.40152921719149	0.7616160651531908
O	-0.3421543664638298	9.75166391719149	-0.8700518898468093
O	0.5762131035361702	7.44170541719149	-0.6905878127468092
O	0.24669522353617013	6.65916689719149	1.437584805153191
O	-0.5883235414638299	8.224499057191489	-2.5618696548468094
O	1.5991200335361702	1.8029575401914897	-0.5974694278468092
O	2.0417057935361704	-2.16261112280851	-0.7252777439468092
O	0.4388198235361702	7.20795552719149	-2.0674982948468092
O	-0.22547771646382997	-2.4815575428085106	-0.5256613848468092
O	-0.7615597414638299	5.07275169719149	-0.3710276428468092
O	-1.1318052744638298	3.97961895719149	0.36413257515319086
O	0.01756302353617012	3.1684449071914895	0.4742282351531907
O	0.9591634335361701	3.0342196971914897	-0.4951202258468092
O	1.0803851735361703	0.8644235121914896	-0.03022415884680918
O	0.6151335935361701	-0.2841416828085104	-0.8936300688468093
O	0.8935296735361702	-1.6216406528085103	-0.4962254908468092
O	-1.3346153452638299	-1.6351507328085104	-0.6608065833468092
O	-2.61334984646383	-1.2618755228085103	-0.13009468284680925
O	-3.4977763964638298	-0.2999455028085103	-0.5109079558468093
O	-2.9385945664638298	0.8979866431914896	-0.8262655704468093
O	-1.6022456774638298	0.8662290641914896	-1.0943171178468092
O	-0.8706484824638299	-0.2641524028085105	-0.7419960479468092
O	0.96152548353617	3.8240523071914896	-1.5575716358468092
O	-0.09674291646382982	4.75794613719149	-1.5242419118468091
O	-0.6519759184638299	6.69257606719149	0.18665586115319077
O	-0.6120673744638299	-0.2132071628085106	-14.031280144846809
O	1.8016001535361703	2.4342084431914897	-12.76726554484681
O	-0.4861646924638299	4.64639022719149	-10.679842184846809
O	-3.6066722064638297	4.66582037719149	-8.49117357484681
O	-2.67700952646383	3.8420198771914897	-4.9169980148468095
O	-6.10892157646383	4.47964060719149	-3.508445744846809
O	-9.63171596646383	3.3196625371914896	-3.072422964846809
O	-9.57778229646383	0.7042874071914895	-6.565603074846809
O	-5.93421152646383	-0.19333608280851045	-5.9475789748468095
O	-3.05823877646383	0.3414494871914897	-8.37611082484681
O	0.7073815835361701	0.019539677191489524	-8.15804357484681
O	1.49209918353617	-2.37375588280851	-11.037740844846809
O	7.71406431353617	-7.67206778280851	-9.77063987484681
O	6.09900981353617	-4.51596690280851	-8.47159319484681
O	2.79930838353617	-5.22579114280851	-6.753090694846809
O	-0.3705493524638299	-3.69999341280851	-5.565045124846809
O	-3.31987949646383	-4.62374094280851	-7.700106914846809
O	-6.7865305564638305	-4.38040725280851	-6.175390794846809
O	0.7046435835361702	-8.039025192808511	3.7358752151531913
O	-2.42586198646383	-9.11161004280851	-6.177564374846809
O	-0.6790193324638298	-8.01478628280851	-2.983118614846809
O	2.90277082353617	-7.54115229280851	-1.986515364846809
O	3.8398008235361702	-3.9582244228085104	-2.4508448748468092
O	5.57882892353617	2.1506612971914896	-0.16797288584680925
O	3.7647226035361703	3.9739954771914894	2.614661485153191
O	0.9394153035361701	3.6180682571914895	5.029329105153191
O	0.7751265335361703	4.6854818671914895	8.64298791515319
O	-1.64671412746383	7.537180007191489	8.030751575153191
O	0.91002338353617	9.155765177191489	5.828343355153191
O	3.7617238535361697	8.494837907191489	8.227952985153191
O	1.7276473135361703	10.02832466719149	11.055326355153191
O	0.9407304835361703	13.14734675719149	9.017112995153191
O	-4.01073442646383	3.854856707191489	9.65581685515319
O	-4.68590504646383	3.6754969771914894	5.966857875153191
O	-4.40181312646383	-0.1431426428085103	5.934922595153191
O	-1.3166481146638298	-0.4343258628085105	8.17243024515319
O	1.7215687935361703	-0.4558981228085106	5.882183935153191
O	5.35785492353617	0.26396691719148957	6.716374485153191
O	8.74190824353617	-0.2809856828085102	5.081698155153191
O	12.274426543536169	1.0451442931914896	5.377618875153191
O	4.65080186353617	-2.68511434280851	9.84145305515319
O	2.0104417735361704	-4.945202632808511	8.26946460515319
O	-1.74713970746383	-5.4985633228085105	8.35795526515319
O	-3.50059913646383	-5.06983678280851	5.029506835153191
O	-6.96657572646383	-5.94690019280851	3.706368315153191
O	-7.2702255664638304	-8.89255764280851	6.239176005153191
O	9.60508044353617	7.8314470771914895	-0.6597799060468093
