77

O	-0.40586960365957414	-2.5820379828085107	0.05817902474468108
O	-1.626060467259574	-2.674780212808511	0.7211043467446812
O	-2.328195314659574	-1.4616986128085105	0.7165144867446811
O	-1.538876330659574	-0.3387831508085107	0.8372757247446811
O	-0.04952214365957408	-0.6717437828085107	0.9497348047446812
O	-0.4067565136595741	-1.2313920328085106	-0.36150659425531895
O	0.760892796340426	0.4912262001914893	0.7808054837446812
O	-0.04149717365957417	0.9313118211914893	-0.3202341922553189
O	-1.368576415659574	0.9277681181914892	0.3229038077446811
O	-2.192879159659574	-3.890382832808511	0.2654707447446811
O	-3.535535633659574	-3.454007142808511	0.2579978407446811
O	-3.8753264136595744	-2.958966522808511	-1.089291071255319
O	-5.180729943659574	-2.295308832808511	-0.9756382672553189
O	-5.884019033659574	-2.7278167828085107	0.2454336627446811
O	-5.824189823659574	-4.219104992808511	0.34223448874468104
O	-4.382585103659574	-4.597997722808511	0.33898513674468106
O	-7.2246286736595735	-2.3687614628085107	-0.09187372995531892
O	-1.5327083926595741	-0.7978780428085106	-1.068899124255319
O	-2.634351960659574	-0.11786075480851071	-1.282929755255319
O	-3.799474903659574	0.6839049051914893	-1.1209208252553189
O	-4.622021223659574	0.8385294751914893	0.055184154744681094
O	-4.907646943659574	2.2165957571914894	0.3786223527446811
O	-5.356636563659574	3.290403157191489	-0.48490540725531894
O	-4.226500143659574	3.291891427191489	-1.439942335255319
O	-3.670506353659574	2.0069748571914894	-1.7334202852553189
O	-1.5384133136595741	2.2151500371914894	0.6658896657446811
O	-1.043670114659574	3.281500197191489	-0.25558642125531894
O	-2.000796805659574	4.467486147191489	-0.11256004956431892
O	-2.697576560659574	4.334583507191489	1.143865804744681
O	-2.399436878659574	2.938573667191489	1.5047344047446811
O	-7.124976213659574	-4.2665230928085105	9.59500033474468
O	-7.838506803659574	-1.0519427628085107	7.7290435047446815
O	-6.432196673659574	-1.3171790828085106	4.248358834744681
O	-8.058341913659575	1.9820074571914894	3.230101004744681
O	-7.7562422836595735	5.771578287191489	3.141338894744681
O	-3.312562873659574	11.39711682719149	2.767120364744681
O	-4.283331693659574	9.43322307719149	5.852308614744681
O	-5.575745883659574	6.046338787191489	6.942951184744681
O	-3.643866713659574	2.8586177471914893	6.197415924744681
O	-3.5451859736595743	-0.36847619380851065	8.13670895474468
O	-2.1335796386595742	-3.790500792808511	7.551583754744681
O	0.030097926340425962	-4.2655670328085105	10.638874534744682
O	3.748619376340426	-7.733814892808511	8.120419414744681
O	3.616193146340426	-4.1955735528085105	6.765696354744681
O	1.3295972263404259	-1.4302326728085106	5.563807834744681
O	1.160466906340426	1.3656091241914894	8.111727764744682
O	0.10660858634042603	4.804754167191489	6.915422694744681
O	8.403314426340426	0.8180349211914892	-6.264686445255319
O	6.702974076340427	-0.16075865180851073	-2.9830283852553188
O	9.388597126340427	2.563302727191489	2.2726892947446813
O	10.659673026340426	3.319907417191489	7.869273744744681
O	5.1076970563404265	5.647055747191489	7.182263114744681
O	5.879418656340426	1.9234172271914893	7.221998644744681
O	5.736522526340426	0.2609619721914893	3.788286504744681
O	6.374700596340427	-3.177472972808511	2.396032494744681
O	2.941761636340426	-4.908525612808511	2.2098987547446813
O	-2.012100441659574	-7.974372912808511	-0.9165724132553189
O	-3.9105941736595744	-6.365669782808511	-3.7241787152553187
O	-4.1507100836595745	-3.370849802808511	-6.008870505255319
O	-4.856635653659574	-3.033931542808511	-9.65132463525532
O	-8.334529303659574	-1.5511547328085107	-9.08019985525532
O	-9.435124783659575	-4.585022272808511	-7.194542895255319
O	-5.238151773659574	1.8611545871914894	-10.16411286525532
O	-5.700843383659574	2.1665280571914893	-6.448771245255319
O	-1.9814850786595741	2.823773797191489	-5.8651374652553185
O	-0.562946793659574	0.2275689231914893	-8.305975465255319
O	0.02871944634042589	-2.9288442028085107	-6.207992135255319
O	0.4094121463404259	-6.4475533528085105	-7.352635085255319
O	1.6491212363404257	-9.72094327280851	-5.9424123652553185
O	5.067517266340426	-8.07381522280851	-10.163812565255318
O	3.394300816340426	-4.680005202808511	-10.038979985255319
O	4.625051916340426	-1.7132902428085106	-7.970690155255319
O	4.084437106340427	2.039000847191489	-7.625309575255319
O	2.7681599363404263	3.1928122871914892	-4.239215155255319
O	2.669680976340426	6.624648277191489	-2.5913800352553187
O	5.5487183663404265	7.944500967191489	-4.637043435255319
O	4.456296626340426	12.04010662719149	-1.0714511402553188
