27

O	-1.896379388552795	31.002497580964505	10.022275862207438
O	-1.277374874355117	29.962036721734993	10.493992836148816
O	-1.4535906631442768	32.37927225448138	10.243088395746708
O	-3.1969192952750825	31.10046257239301	10.447161421324498
O	-2.1909180685457867	29.1021835906858	10.722251545692359
O	-1.4864089982122763	33.234057944805514	8.758112952762605
O	-3.376357617652944	29.863563370013825	10.858943350877718
O	-2.3173264956739934	28.050480595870855	11.85709394507386
O	-0.20639425200124925	32.215845535992905	8.042911016840694
O	-2.4353377150327677	28.7911599444762	13.203209837395356
O	-1.1743656492471715	27.329795542206533	11.813246531189327
O	-3.601925057061491	27.374854496498703	11.815044139088464
O	0.7170072248368037	30.781734558984848	8.44989814826573
O	0.7715624374015237	32.99121821511065	7.557866368516649
O	1.9196989433451905	31.09793034118807	7.223474820421536
O	1.7158543762054104	32.35730217655466	6.865000350440601
O	2.678186303414089	29.989256057883445	6.788248971531075
O	3.550807935249874	29.531072768031	7.754771895501583
O	3.7912273345793848	28.097808491112048	7.933990688360519
O	4.627580814412728	30.09902450832305	7.319114105509076
O	2.8466541107506522	27.320846491609945	8.718048674091653
O	3.7528528797846574	27.591551299273632	6.531876271247674
O	3.1174309364314174	25.944983601494698	8.693857787667493
O	1.5066961193609856	27.57567928932322	8.62349589709311
O	2.3220174285529662	25.202802586081962	9.562847645579204
O	0.6025366619255159	26.71674598644754	9.163809878686951
O	1.1005893535019642	25.681482509106765	9.949918738249433
