17

O	-0.28274415645660433	31.431181047713387	8.34972829139927
O	0.6254466465322184	30.350207782114342	8.109895000939748
O	0.3285394084232458	32.68483198526027	7.954877546516351
O	-1.018790708952292	31.728862558521428	9.505227156912534
O	0.43445151521441394	28.947221682658636	8.367542101806189
O	1.8599210009539098	30.533704969422857	7.8452344442779625
O	-0.5371055006250287	33.52139327859019	8.30339655888143
O	1.2454518078381138	32.696513676529555	6.946059096653498
O	-1.4495946903510537	32.93598101830852	9.20422677961139
O	1.4306932936482346	28.36937631190381	9.280794703536202
O	2.0133629765836805	31.573166263675624	6.85575519882973
O	1.089123791866067	26.907867007388262	9.5398247082054
O	0.9079538459613425	29.213647895900145	10.167726298847816
O	2.110264581345872	26.021765435387753	9.715559058900116
O	-0.08909053188963026	26.323424634915792	10.653107654292876
O	1.7941864236726484	24.873499504156065	10.355463974169227
O	0.7251420036456087	24.90846400008608	11.207307604268564
