70

O	-0.11341786299777745	0.6162649287111103	1.474825853933333
O	-1.2879506879977773	2.02791845971111	0.3816011439333329
O	5.4279333100022225	1.1938683284111102	-2.447454966066667
O	0.8043164400022226	-1.3269680762888896	2.427396273933333
O	-2.2343827799977776	7.56908727371111	-2.754336456066667
O	2.1762240700022226	0.05872558371111025	1.037750033933333
O	0.9146271100022226	-0.3794312762888896	1.520803153933333
O	0.01984026600222255	1.3944921167111104	0.41706229393333305
O	-1.2495537429977774	3.1962225837111102	-0.22973650406666707
O	3.1708701400022226	-0.43992164628888974	0.17753582893333297
O	3.687801010002222	0.2219829937111104	-1.077274734066667
O	3.0306696000022226	1.3343302026111103	-1.517958196066667
O	3.3590921300022223	2.38495705371111	-2.398894296066667
O	4.660180650002223	2.23644248471111	-2.902712966066667
O	4.933077830002222	0.14129307371111022	-1.6369464890666672
O	-1.9621968599977775	4.280624353711111	0.14085754393333294
O	-2.5953176499977775	4.999739103711111	-0.865640890066667
O	-2.2284998099977775	4.89149912371111	-2.1736075160666672
O	-0.9618964999977775	4.3343808037111105	-2.3441192860666673
O	-0.7979826649977775	3.2331919737111106	-1.551964975066667
O	3.8761992900022224	-1.4298140862888895	0.5291269739333329
O	-2.0641254799977773	5.87614444371111	-4.6953811560666665
O	-4.175536319997778	6.15415088371111	-3.567976626066667
O	1.7658361800022222	1.6677813877111103	0.3824380239333329
O	-2.7124352099977775	6.05142847371111	-3.369564696066667
O	2.1755448400022224	11.788365123711111	5.124855533933333
O	4.190152400002223	10.53679100371111	2.167589993933333
O	2.3323551000022222	7.68736455371111	0.41963301393333285
O	4.748395140002223	7.76190665371111	-2.414701146066667
O	8.145445980002222	6.39250851371111	-3.594617556066667
O	10.076607180002222	6.29772477371111	0.34396308393333297
O	6.877354700002223	5.14813316371111	1.982655943933333
O	4.894095960002223	6.97720020371111	4.6307482839333325
O	1.4970627400022227	6.53845527371111	6.220659003933333
O	2.3668452800022224	6.41787666371111	9.949661673933333
O	-2.0148137499977774	3.07772758371111	11.272507873933332
O	0.5615276200022224	1.5270391647111103	8.957282373933333
O	2.6599795200022225	2.00986431271111	5.870982353933332
O	6.249143080002223	2.65331670371111	6.870750643933333
O	8.882606970002222	2.01074145171111	4.266693673933332
O	-0.9913565149977774	-10.24036227628889	0.254160335933333
O	-0.2594282479977775	-6.956065266288889	2.0677907439333327
O	4.389273960002223	-7.3429815762888895	6.557404593933333
O	6.102618120002223	-1.8842022162888898	8.540392463933333
O	3.1772006900022225	-2.9285430562888903	6.3249771339333325
O	-0.5267660050977775	-3.18589964628889	6.917049473933332
O	-2.0525402599977776	0.008020283711110299	5.489941433933334
O	-6.073820339997777	3.5282718737111107	1.4419855039333331
O	-6.026956619997777	3.1777703037111102	-2.2534610860666673
O	-4.063215249997778	1.5582139457111104	-5.0330283860666665
O	-5.4954643599977775	0.1927141437111104	-8.291180856066667
O	-3.8586755199977776	2.9155932037111105	-10.395739346066668
O	-5.814488449997778	5.5502783837111105	-8.568165086066667
O	-9.955445829997778	-8.41995047628889	-8.570218026066668
O	-1.3643441969977774	-1.1074256962888895	-10.696942426066668
O	0.5274260700022225	1.0183518867111103	-8.265674816066667
O	1.4630614300022224	-1.9433257462888898	-5.971875416066666
O	-1.9960733199977776	-3.54348164628889	-6.056997856066667
O	-3.9014434099977775	-2.1714668562888892	-3.068067216066667
O	-7.659891599997777	-2.19103917628889	-2.480198146066667
O	-9.984254679997777	-1.6688388962888896	0.46811913393333304
O	-10.491154459997778	-6.986043586288891	-1.430954815066667
O	-7.347195819997777	-6.40839253628889	-3.480684046066667
O	-3.829472069997778	-7.23694372628889	-2.294507296066667
O	-0.34466631499777745	-7.6961639162888895	-3.679915926066667
O	2.2276080900022226	-5.38380968628889	-2.219533536066667
O	6.041843480002223	-5.47985115628889	-2.256287416066667
O	6.140836010002223	-9.270160376288889	-2.5926577260666672
O	9.554825580002221	-10.93333687628889	-3.082356936066667
O	-11.230342919997778	8.20405522371111	0.5579607939333329
