32

O	5.243775356461739	25.72495897370695	5.310682895936857
O	4.90636052098394	24.394888755011227	5.218397266601755
O	2.886848197969619	26.106355490839128	9.66931620271845
O	4.347493815319914	26.545411165592043	4.694273740089921
O	2.2929813110158865	25.14077447037923	10.541020934202907
O	4.7644651938244875	27.885411371703004	4.721545327228034
O	4.297949656668122	26.337909402883746	9.354860530232319
O	4.973658363541414	28.178116028434612	5.997032532308784
O	5.539849931545812	27.37403900199129	6.826613391885132
O	5.805517136055073	26.116576810075294	6.46205086147156
O	4.906125569228188	29.535104508809166	6.417836381604642
O	3.4430391397879276	29.705607622131772	6.559408960195748
O	3.023587403040138	25.25896042764562	7.434099158564675
O	2.9989043955267656	31.048045366204924	6.40458159417208
O	1.7605174681164868	31.47052904794032	6.901162304791924
O	4.374428719480632	23.88176734746932	4.027023688563388
O	1.2807216621854234	32.67741763588253	7.181384119759541
O	3.4997010995458604	24.71565935558079	8.645828569451309
O	0.2133609057988468	32.49188558554156	7.921948587764932
O	0.13898625358530192	31.2382188518447	8.41668612180673
O	-0.2542856268603939	30.358032021076593	9.372356763062946
O	0.6236765646917654	29.162219267629325	9.686523683337594
O	1.725778070042109	28.622762667164913	8.826299961404713
O	1.1077565033434293	29.122274419921567	7.708567092828219
O	0.9748372378097705	30.520600285943424	7.557811291387721
O	5.27056285866363	23.449191489127543	6.169623824710959
O	1.9375917072064923	27.18655439067641	8.734682702630591
O	4.289391376037773	22.44471397265839	6.630037922564685
O	3.096013626407192	22.490025459076755	5.786894700207675
O	2.5351497071560134	26.62086034044897	7.56247442349697
O	3.6265271885736556	22.680375074184184	4.416576523810435
O	2.794189461460746	29.057599864195335	5.673430713492954
