75

O	-3.962910351592157	4.071807131901961	-1.409992436784314
O	-3.3744913815921573	2.8130516619019605	-1.612052906784314
O	-3.141464421592157	1.994007498901961	-0.5341443397843139
O	-2.965696901592157	0.6641289619019608	-0.47412904778431386
O	-2.138307000592157	-0.008014808098039117	0.3774193372156861
O	-1.9377274415921573	-1.311458568098039	0.9129096732156861
O	-1.3615570600921572	0.9740893229019608	1.064368303215686
O	-0.04227623159215721	1.460252699901961	0.7435715532156861
O	0.23848660840784297	2.772787631901961	0.30791873821568616
O	1.5705244984078428	3.034132071901961	0.08676723321568613
O	2.298193648407843	3.991007711901961	-0.5839835777843139
O	1.2793129184078427	4.612861891901961	-1.2610575607843137
O	1.3378885984078428	6.03763541190196	-1.622109416784314
O	0.03260824840784293	6.442007841901961	-2.2143898267843136
O	-0.3729658405921571	7.621009611901961	-1.668797576784314
O	-1.0913897795921572	5.476821021901961	-2.2276572267843138
O	-1.187264799592157	4.915000641901961	-0.8417566397843139
O	0.2112312684078428	4.91785358190196	-0.3171819232843139
O	2.525616538407843	2.069322774901961	0.4324168062156861
O	2.007567118407843	1.0731644059019607	-0.35976180057431384
O	0.6166585884078428	0.41844468190196094	-0.022049685784313877
O	-0.4262648475921571	0.8144542629019609	-1.0134104727843138
O	-0.3276151445921571	2.028959502901961	-1.6551932367843138
O	-2.300045961592157	2.410051141901961	0.8479047232156862
O	0.5344852884078428	10.959276861901962	7.547954743215685
O	-2.754366381592157	9.641201881901962	6.150789723215686
O	-2.079162911592157	7.869932321901961	2.910348183215686
O	-5.740279631592157	7.29223453190196	2.075837053215686
O	-8.879442951592157	5.303866001901961	2.8645138332156863
O	-11.497198221592157	-1.2083817180980392	4.100376903215686
O	-10.084071851592157	1.1695885799019607	6.7006958232156855
O	-7.705501681592157	4.117141331901961	6.922630573215686
O	-4.053950541592157	3.8031358919019604	5.749394193215686
O	-1.152106308592157	5.720839871901961	7.251232343215687
O	2.484105158407843	6.047225051901961	6.385630753215686
O	4.2014189084078435	5.052210521901961	9.616479793215685
O	8.859480178407843	3.035065711901961	7.065932363215687
O	5.642461428407843	1.1684460779019608	6.316261833215686
O	2.031427538407843	1.5337992389019608	5.2842573132156865
O	-0.2151873115921572	0.8756344999019608	8.253973523215686
O	-3.797861471592157	-0.1353360180980392	7.598664313215686
O	-1.755279540592157	-13.845709388098038	2.676436403215686
O	4.855785908407842	-7.787786968098039	-7.936825486784313
O	2.7224214684078425	-8.145258028098038	-4.800692436784313
O	2.9884670484078426	-5.546491748098039	-2.0064349567843136
O	4.482562028407843	-7.544902308098039	0.8817999632156861
O	2.3472110684078427	-7.97997474809804	3.9877301932156866
O	4.984809098407842	-7.521918278098039	6.689486413215686
O	2.908270588407843	-8.233605458098038	9.779667753215685
O	-2.016602992592157	-4.760570468098039	8.670333193215686
O	1.5618861484078428	-3.616820788098039	8.143872583215686
O	2.5493279684078427	-3.409424748098039	4.446801533215686
O	5.883258598407842	-2.651411768098039	2.6964023832156863
O	5.658842198407843	1.1060825629019608	1.686075243215686
O	5.420282968407843	6.100232661901961	-2.593566886784314
O	3.0847526384078425	6.439888081901961	-5.442371836784314
O	0.11391412840784287	4.6825523119019605	-6.953670996784314
O	-0.8120565565921571	4.336038631901961	-10.609047946784314
O	-3.769692891592157	6.7165080119019605	-10.332341526784314
O	-1.468897780592157	9.51864431190196	-9.371979706784314
O	-5.311338371592157	2.262114706901961	-10.276681856784315
O	-5.360284991592158	3.2842220619019606	-6.589334816784314
O	-4.132334121592157	-0.16307864809803907	-5.5222936567843135
O	-1.398108292392157	-0.5505501380980393	-8.080279296784314
O	1.8127834784078427	0.8926267919019608	-6.582867276784313
O	4.981912098407843	1.9503072489019608	-8.328931616784313
O	8.537854608407843	2.7251253029019606	-7.298130616784315
O	8.426584178407843	-1.8857787080980393	-10.636992046784314
O	4.664027438407842	-2.008875628098039	-10.142270656784314
O	2.883081938407843	-4.005732708098039	-7.408639026784314
O	-0.5858164915921571	-5.32672349809804	-6.568929246784315
O	-1.9714021785921572	-4.199213868098039	-3.260369266784314
O	-4.8807814315921565	-5.17267805809804	-1.0162567607843138
O	-4.734441381592157	-8.78561738809804	-2.379072886784314
O	-8.465247811592157	-9.118099988098038	1.6844018832156862
