66

O	2.7566306539111114	-3.6660138962222213	7.594062517244445
O	0.9987506039111111	-1.507290436222222	1.1489911192444444
O	-1.5337403560888887	0.05716008377777815	-1.9981568127555556
O	2.5065186439111113	-3.9367636562222215	4.870942677244445
O	-2.994037316088889	1.9031933067777782	2.8725617272444444
O	-1.772128076088889	1.009169491777778	0.8194001182444445
O	-0.9194737290888888	-0.03985651622222197	0.4524903972444444
O	0.052620965911111206	-0.4700548462222218	1.3363610092444445
O	0.08937082991111123	0.11883120377777812	2.5675630772444444
O	-0.9887385660888888	0.7546668567777781	3.1049376872444445
O	-1.8099975960888888	1.4274133217777782	2.1930540872444446
O	-0.8507013020888887	-0.5647110662222219	-0.9029427027555555
O	2.2023557839111114	-1.628443496222222	1.9270883272444443
O	2.1216153639111113	-2.1386797362222216	3.3065371072444445
O	2.5271277139111112	-3.446506596222221	3.5908306672444446
O	2.138231513911111	-3.2242790962222214	5.964055067244445
O	1.9206913239111114	-1.8840276062222217	5.6311404372444445
O	2.435755613911111	-1.3553202662222217	4.432753877244444
O	-0.009639437088888814	-1.433797556222222	-1.2329217927555556
O	-4.005108926088889	2.242634407777778	1.9794174872444446
O	-3.0071027260888887	2.703875053777778	3.8037423972444446
O	-7.990580726088888	-10.871922426222223	3.6456236572444447
O	-3.756200616088889	-9.178202226222222	7.234889447244445
O	-4.273171936088889	-5.5504206262222215	8.323767157244443
O	-1.9790903560888888	-3.1378818062222216	6.496964897244444
O	-2.870771246088889	-0.16856573622222193	8.550979897244444
O	-5.543171636088889	2.508520193777778	9.010859317244444
O	-8.91614579608889	0.1702190437777782	7.387400467244444
O	-6.652864716088889	-1.4157746362222217	4.781138817244445
O	-5.867993746088889	-5.080180626222222	4.282483157244444
O	-3.4638200560888888	-7.099895476222222	2.2141192172444444
O	-5.775341196088888	-9.441015026222223	0.31895156224444443
O	-3.6839139960888887	-11.370333126222222	-7.4562098327555555
O	-2.373032576088889	-9.879477926222222	-4.197435052755555
O	-3.776430136088889	-6.416837826222221	-3.5358580327555558
O	-4.330283056088889	-3.7422836162222213	-0.9204242127555556
O	-8.00498608608889	-3.5673556262222217	-0.009776355755555577
O	-9.290699146088889	-0.36767317622222184	1.5532637952444444
O	0.9401868439111112	6.5827823537777785	-8.729580212755556
O	-0.3542551570888888	3.481709263777778	-6.906817192755556
O	-6.432644116088889	1.868160324777778	-8.427468282755557
O	-8.700090696088889	-2.2429523262222215	-4.581785872755556
O	-5.140813216088889	-1.024077256222222	-5.112586922755556
O	-1.9647367260888888	-2.443675656222222	-6.451980682755555
O	0.09072095791111123	-3.890670276222222	-3.6349485327555557
O	5.465505673911112	-4.128304586222222	0.22914256424444446
O	7.015437433911112	-1.108434946222222	1.8996977372444444
O	6.281753363911111	2.503586203777778	2.7387872072444446
O	8.838973203911111	5.354561983777779	2.9879702672444446
O	8.261021863911111	5.775298403777779	6.735226497244445
O	9.421736573911112	2.260859073777778	7.336344297244445
O	5.917234743911111	9.129954103777777	4.360223437244445
O	3.258299803911111	6.674360793777779	5.276501757244445
O	1.4763731439111112	6.936213223777778	1.9032939272444445
O	4.631354603911111	6.9330946137777785	-0.25391278575555554
O	5.218929683911112	3.311242303777778	-1.2602127027555556
O	8.397063263911111	1.7043456727777782	-2.5807845627555555
O	9.31834453391111	-1.521989176222222	-4.357423052755555
O	10.39805199391111	2.895702483777778	-7.736316742755556
O	8.363737103911111	5.041910863777778	-5.3465646127555555
O	4.655320773911111	5.752559953777778	-5.707264882755555
O	2.0106045039111113	8.138719323777778	-4.413596112755555
O	-0.8684544250888888	6.464701273777778	-2.5776371627555554
O	-4.315087686088889	7.751152063777778	-1.5909114927555557
O	-4.381117916088889	10.329062693777777	-4.432890092755556
O	10.74504689391111	-7.920792106222222	2.9547563072444447
