74

O	-0.2961101741372555	1.3475477064490196	-0.994387353196079
O	-0.6649484281372555	2.8087599154490195	-1.0829995811960789
O	-0.10461097713725542	0.7974749964490195	-2.2262386291960787
O	0.4291320128627445	0.6888583894490194	-0.05748605119607894
O	-0.7639318611372554	2.9191726354490193	-2.493410729196079
O	-2.0219734781372556	3.3511965554490195	-0.882773830196079
O	-0.6159803211372554	1.7494039864490194	-3.159738449196079
O	0.7433156428627445	-0.23066187455098053	-2.4490380991960787
O	1.3704146928627448	-0.28071741455098054	-0.27010727309607896
O	0.43895981286274455	1.2229097804490194	1.264563740803921
O	-1.2221634671372554	4.273538155449019	-2.8701292791960786
O	-2.3949420171372555	4.32471126544902	-1.952235639196079
O	-1.2812287621372556	1.3360960539490194	-4.080070589196079
O	1.8047635728627447	-0.16928939455098058	-1.597003689196079
O	-0.43705679213725546	2.2994605694490193	1.421764450803921
O	-0.30909879613725544	3.0924330454490194	2.5780260808039213
O	-1.5769943221372555	1.7407804494490196	1.540700630803921
O	-1.2395982791372555	4.184455735449019	2.527729550803921
O	-1.0768026289372554	5.304696525449019	1.715156630803921
O	-2.4813964971372555	3.7838235154490194	2.3442480508039214
O	-2.0131148661372555	6.19404257544902	1.294722930803921
O	-3.5220182071372554	4.542755955449019	1.9049124308039211
O	-3.3245507971372557	5.82601194544902	1.480343600803921
O	4.766537782862745	12.350473485449019	1.910067870803921
O	3.5532182328627444	11.11337497544902	-1.472021489196079
O	0.8882263028627446	8.42903110544902	-0.956704682196079
O	0.09345798286274443	8.24032500544902	-4.688137709196079
O	1.2431945428627444	6.98713024544902	-8.101677539196078
O	3.9901081828627447	1.2055555934490194	-11.577231329196078
O	5.803261532862744	4.0014268554490195	-9.815656329196079
O	5.460977342862744	6.613048585449019	-7.113262479196079
O	4.600362722862744	5.541772565449019	-3.544609319196079
O	5.703039452862744	7.42369687544902	-0.4448219401960789
O	4.983695752862745	7.07955486544902	3.1930099508039214
O	8.469620762862744	6.791806855449019	4.734109840803921
O	6.790598412862744	3.6144784154490193	9.151813660803922
O	6.374214602862745	2.0266575544490193	5.73183038080392
O	4.968998502862744	2.5730909554490196	2.219568600803921
O	7.958005802862745	2.9698687854490196	-0.13455484119607894
O	7.367284262862745	2.2661121004490195	-3.8103662491960786
O	-2.1948823771372554	-9.341508114550981	1.804913110803921
O	-0.15190373113725542	-6.16076929455098	2.358049460803921
O	3.1988589628627446	-7.5404236045509805	3.546085650803921
O	6.197569352862745	-6.911137654550981	1.295041970803921
O	8.865428482862745	-6.15703521455098	3.9272235908039215
O	11.911422142862744	-5.76076908455098	1.706852460803921
O	9.677752642862744	-2.1049299645509807	-2.675938219196079
O	9.110615242862744	-1.5715115745509807	1.041918000803921
O	5.619575762862745	-2.4805617245509803	2.203664020803921
O	3.7899736028627444	-2.58287550455098	5.4932780108039205
O	1.9171727828627447	0.7125145584490195	5.866160810803921
O	-3.5949830371372555	4.481143875449019	6.415967590803921
O	-6.571826967137255	4.30623650544902	4.11527144080392
O	-7.687709487137256	2.6698492054490197	0.9185157708039211
O	-11.207847457137255	1.5046355385490195	0.08902230280392104
O	-11.692739457137256	4.236775715449019	-2.527177609196079
O	-11.229366157137255	6.906805285449019	0.07417562780392106
O	-11.577933257137255	-11.174947214550981	3.8860160208039214
O	-10.648889197137256	0.11445989544901947	-4.635748749196079
O	-7.404867127137256	2.0900348694490196	-4.707800129196079
O	-5.285590447137255	-0.9725667045509807	-3.825664279196079
O	-7.515459247137255	-2.4303252645509805	-1.196888184196079
O	-6.207236407137255	-1.0746124545509805	2.113922550803921
O	-8.002905887137256	-0.9377505145509804	5.430366730803921
O	-7.073419297137256	-0.4025662045509806	9.071870220803921
O	-9.127336107137255	-5.643198574550981	8.386916730803922
O	-8.789379447137255	-5.124448644550981	4.635739210803921
O	-5.735591067137255	-6.0911072345509805	2.576897740803921
O	-4.775246347137255	-6.667939094550981	-1.046435138196079
O	-2.0103070161372556	-4.52631414455098	-2.327270249196079
O	0.2873405728627445	-4.597562764550981	-5.36598312919608
O	-0.1619405301372555	-8.44675541455098	-5.702465719196079
O	1.3986050828627445	-10.23999001455098	-8.696604549196078
O	3.6582432428627447	-7.308254294550981	-9.531249469196078
