77

O	-0.6974621930740817	-0.22011525589795944	-0.5843714446734695
O	-1.7903626680740818	0.4940939581020406	-0.2595537626734695
O	-2.4232384780740817	1.1171525851020407	-1.2301780456734694
O	-2.1827276580740818	0.7217349341020406	-2.4438294566734697
O	-0.8605472660740817	-0.2929194518979594	-2.2934116366734694
O	0.4801944699259183	-0.6954319378979594	0.10085547332653055
O	-2.037040188074082	0.6464347921020406	1.1073669233265304
O	-2.5491792980740815	1.1221918951020406	-3.7196458866734696
O	0.30896229292591826	-1.3465626848979593	1.1208768833265303
O	0.6301705719259182	-0.5535742568979595	-5.459068196673469
O	-0.44590602177408173	-0.2748737038979594	-6.346187756673469
O	-1.6215279080740816	0.33512486810204056	-5.9032292766734695
O	-1.5633279980740817	0.9050239121020406	-4.69993805667347
O	-0.29236831307408173	1.1143807251020408	-4.19976270667347
O	0.8401019219259184	0.41177086610204056	-4.569623126673469
O	2.0886678419259184	-1.0567037648979594	-6.310332036673469
O	2.2422096519259185	0.010608828102040599	-7.2962418166734695
O	3.1452663419259186	-1.6618111648979592	-5.211105786673469
O	2.229311721925918	-1.8392806648979594	-7.542693826673469
O	1.4405130419259184	-1.0904094748979594	-0.8290736106734695
O	3.929078531925918	-4.190965924897959	-1.5209654696734694
O	3.9881717219259185	-3.456970054897959	-0.3390736006734695
O	2.7754524919259183	-2.8821406148979594	0.029503693326530467
O	2.0484732919259185	-2.3426200348979593	-0.9766007313734695
O	2.1909594519259183	-2.8005623848979595	-2.2774249866734695
O	3.2890340219259184	-3.5655362548979594	-2.5624325666734693
O	1.158907171925918	-2.6202804448979595	-3.110612946673469
O	2.6573938919259183	-2.1301673848979594	1.1236308533265305
O	-7.285356168074082	-7.27046880489796	-8.13135317667347
O	-3.6905778780740817	-8.117626724897958	-7.2687947466734695
O	-1.9614917180740816	-4.89343100489796	-6.305255856673469
O	1.4966809919259183	-6.58053249489796	-6.159423006673469
O	4.007752571925918	-8.583137264897958	-4.16841685667347
O	6.503438271925918	-9.878011264897959	2.407980493326531
O	3.418889211925918	-11.35472034489796	0.7898788133265304
O	0.8730313719259183	-10.65024844489796	-1.9210075986734694
O	-1.2222082470740818	-7.43942728489796	-1.8229408406734695
O	-4.7780338980740815	-7.077758194897959	-3.173057416673469
O	-7.059229408074081	-4.124169614897959	-3.7300407266734696
O	-10.195477188074083	-5.30184796489796	-1.8718290716734693
O	-11.882920298074083	-0.0772194938979594	-0.4973743056734695
O	-8.597688398074082	-1.2001350848979593	1.0207646933265304
O	-5.198643478074081	-2.760584074897959	0.2915618033265306
O	-5.136062438074082	-6.274607084897959	1.6990851733265304
O	-1.7082135080740817	-7.74680543489796	2.3560286833265307
O	2.0723930319259183	7.01916292510204	6.957277723326531
O	-0.3107641640740817	4.65217341510204	5.2236740733265306
O	-2.8475305280740817	3.800719535102041	7.91765032332653
O	-2.966086858074082	0.2056212941020406	9.093316683326531
O	-6.851456518074081	-3.742229994897959	10.92295968332653
O	-2.9640094980740814	-6.63669544489796	7.133342243326531
O	-5.653865078074082	-4.21972312489796	5.995882763326531
O	-4.276461868074082	-0.8600803598979594	4.830800043326531
O	-5.858440358074081	2.386364905102041	3.6832898533265306
O	-5.781173158074082	2.285098705102041	-0.1549207486734695
O	-4.047907958074082	4.56988872510204	-6.176408736673469
O	-0.4831427824440817	5.03395080510204	-7.148492256673469
O	3.0741135419259185	4.83556530510204	-5.897258846673469
O	6.079741961925919	7.05395438510204	-6.521332686673469
O	7.807889291925918	4.5870030451020405	-8.846750026673469
O	4.905611391925919	4.80116394510204	-11.267019616673469
O	9.717185901925918	4.23936566510204	-4.60245062667347
O	7.451966111925919	1.2794224051020406	-4.6260015666734695
O	6.309150401925918	1.7279764051020408	-1.0674185726734695
O	5.856414691925918	5.50106366510204	-1.2347125026734695
O	2.1701328719259183	6.10135208510204	-2.121749156673469
O	0.5661266619259183	9.25888066510204	-3.5150315266734697
O	-2.9434594680740815	10.59148215510204	-3.92068524667347
O	-0.01212605307408171	13.896883355102041	-0.32470020967346946
O	2.6277398119259185	11.16406395510204	-0.1846388126734695
O	2.7437309819259186	8.322651895102041	2.3479147033265306
O	5.128901431925918	5.67742319510204	3.676162703326531
O	3.9235452219259184	2.1175119851020408	3.2901168833265304
O	5.125288621925918	-1.1116928648979594	4.926656863326531
O	6.481692891925919	0.6976939301020406	8.00230807332653
O	8.355769231925917	-1.2996069848979592	10.70569098332653
O	7.015140441925919	-4.60567899489796	9.38672148332653
