74

O	-1.0868264659361697	1.856374851514894	-0.4433003992127661
O	-1.6735518854361697	1.4075985715148938	0.6256221537872338
O	0.34885713306383037	2.1243158415148935	-0.5290253162127662
O	-1.5793944353361697	3.0642324815148934	-0.8675475772127661
O	-2.84133541693617	1.919446561514894	0.6081902347872339
O	0.9692538930638304	1.4508146715148937	-1.977607975212766
O	-2.7190268469361696	3.0683246315148938	-0.2095936832127661
O	-3.73696887693617	2.4142655015148935	1.7756320847872338
O	0.6206534130638304	-0.21968434748510635	-1.4535671352127661
O	-3.0366572069361695	3.6021153115148934	2.463481584787234
O	-3.83626224693617	1.367857361514894	2.625831984787234
O	-4.93838009693617	3.0654988415148936	1.284777224787234
O	-0.17395748693616975	-1.0447990284851065	-0.1258765132127661
O	1.7244939530638301	-0.9693628084851064	-1.5648714752127661
O	0.5742757730638302	-2.5754525684851064	-0.5103346392127661
O	1.5575230930638304	-2.2722690884851064	-1.3454265252127662
O	-0.07737205693616978	-3.7310966984851066	-0.026883471212766116
O	0.00553815306383032	-3.8519163584851066	1.3457401147872339
O	-1.1273098049361696	-4.351320658485106	2.127672464787234
O	0.9773733130638302	-4.703012498485106	1.4003157947872338
O	-2.1935780589361698	-3.4311432384851064	2.4840163647872338
O	-1.6994750131361698	-5.393686978485106	1.2277873547872338
O	-3.2775166669361697	-4.065660388485106	3.108010804787234
O	-2.60721409493617	-2.4840520484851063	1.5888678247872339
O	-4.23644162693617	-3.1828131984851065	3.5976049647872337
O	-3.74549381693617	-1.7758190484851064	1.812329754787234
O	-4.36008024693617	-1.9350272984851062	3.051172094787234
O	-7.538173296936169	-8.593365578485107	-5.418501025212766
O	-8.79711961693617	-5.871462438485106	-3.079907475212766
O	-6.031457746936169	-4.833285578485106	-0.7565968962127662
O	-8.21700227693617	-2.612907528485106	1.349519174787234
O	-9.98977182693617	0.7333670115148937	1.5821641947872338
O	-9.45736369693617	7.761976371514894	0.3991518707872339
O	-10.648211096936171	5.135441361514894	-2.112318175212766
O	-10.36039011693617	1.3856348815148936	-2.781853465212766
O	-6.90442837693617	-0.19457737948510634	-3.291489755212766
O	-6.19599457693617	-3.2253847384851064	-5.417008815212766
O	-3.2079088769361697	-5.415650148485106	-6.001981645212767
O	-2.8418499069361696	-5.231384568485106	-9.803135765212767
O	2.768666843063831	-6.002072268485106	-9.720619975212767
O	1.5560906030638304	-2.8140428584851063	-8.081189235212767
O	-0.9342321899361697	-1.3904506184851062	-5.591163855212766
O	-3.60396070693617	0.5092363255148937	-7.546863725212766
O	-5.62095800693617	3.1150222815148934	-5.740337025212766
O	8.65611022306383	5.820504651514894	1.633556034787234
O	6.4340050730638305	3.6862984515148938	-0.5870663562127661
O	4.4453026430638305	6.5268758715148945	-6.075314145212766
O	2.5706597130638302	6.863288211514894	-11.575470115212767
O	-2.4168669899361697	6.284225901514894	-8.082487365212767
O	-0.01060479693616978	3.4629546315148936	-8.805414175212768
O	2.14200637306383	2.5199019415148936	-5.784938475212766
O	5.10233818306383	0.08519174531489368	-5.472838225212766
O	3.678755123063831	-3.1629050484851065	-3.9962112452127663
O	2.9601666630638306	-7.751625478485106	0.8228683367872339
O	2.2276228330638306	-6.947631268485106	4.375717824787234
O	1.4665448430638304	-4.093245118485106	6.776208624787234
O	2.4430861130638304	-3.5979396084851065	10.311086984787233
O	-1.1093756139361697	-4.184449118485106	11.579364184787233
O	-1.1282841129361696	-7.651815148485106	10.171765684787234
O	-0.1211608269361697	0.4583046395148937	11.525745584787233
O	-2.2684857009361696	-0.09851078448510633	8.480487314787233
O	-0.14058550693616967	2.301563221514894	6.431759434787234
O	3.24130479306383	1.1112917405148937	7.477076034787234
O	4.30570621306383	-1.580896508485106	5.0080867047872335
O	7.031952063063831	-4.192556848485106	5.489098894787234
O	8.98723242306383	-6.559749428485106	3.258297214787234
O	12.50504922306383	-2.7674623584851066	5.572717274787234
O	9.45516252306383	-0.7790526074851063	6.651337274787234
O	7.928758283063831	2.0115166715148938	4.587359274787234
O	5.513153913063831	4.899319711514894	5.012639474787234
O	2.45470173306383	4.753787421514894	2.786628524787234
O	-0.22989293693616975	7.251195221514894	1.7663289547872338
O	2.1665357530638305	10.207437031514893	2.407453114787234
O	-2.2668333479361698	12.668087731514893	0.2662889437872339
