27

O	2.4862528731053115	30.65257700200016	7.515571742964004
O	2.1650346357245565	29.2296812573763	7.607833036824336
O	0.8453860682899315	29.290342371112278	7.982874578919551
O	1.68710807128595	31.196334878565867	8.579844763921228
O	0.4687628014577497	31.604359523283772	8.033868198322104
O	0.11042833507065225	30.274969728269085	8.565854299289018
O	-1.016186113442914	30.5597972291313	9.327312067744584
O	-1.2432814647568584	31.989342692732862	9.056085039730576
O	-0.1647116892818436	32.673496750176014	8.69420851185093
O	-1.9665422024099755	30.440444838351556	10.310977244065649
O	-3.099047591525543	29.59481815729789	10.664033265715812
O	-1.9130547082766935	30.786325782478496	11.70911363575232
O	2.887744218171514	28.711062435091574	8.739381172521389
O	2.003504173225803	27.686179060677404	9.340290389526267
O	2.916147091629892	27.077241623120504	10.462313055325858
O	2.7512892140691645	25.76281037169881	10.78082718409432
O	1.5784414633997184	30.272653815117557	9.647343109546993
O	0.8228883607741035	29.585414255518483	10.580465469357177
O	0.09309575017319932	28.317964249465174	10.646732351869204
O	-0.9976243376467342	27.54660235115577	9.970772502229009
O	-1.776503590312887	26.56977056726208	10.702876427606082
O	-2.252527166539415	26.825563404031634	12.09848199285918
O	-1.2753226879626602	27.809021089794378	12.748972359085629
O	0.03660348562666621	27.72838921398918	11.94035230126251
O	2.3513351979262507	26.500122181996318	8.5026562816185
O	1.23038419290011	25.734382953373853	9.220851236281154
O	0.10101909074252646	26.37589659977822	11.846123187813797
