30

O	5.317626972032781	20.79557852829592	8.135534975446364
O	1.8156888710768755	31.550654514831358	6.936906342915666
O	4.819494255027052	22.450467071067806	9.60981053334922
O	6.500074106578572	21.48302120560269	6.257039142942729
O	0.3356893973200272	31.18363755408095	8.54545800134052
O	4.471278209995729	24.997365923838256	8.928749296151848
O	-1.192540822347372	26.241096372324353	12.139731751422325
O	3.559118820512972	29.901590349777248	7.074293707000958
O	-0.1519621123292325	26.095645146704705	11.264113814522153
O	-0.1946201167270536	29.270009731403476	9.498586032731707
O	-1.7702732169851145	27.47732179878281	12.232609373200479
O	5.990099655332629	21.937166643419193	7.516586726369276
O	3.4189616854509968	28.421408047327958	9.095988788771539
O	2.9038017386206967	27.660908302477928	7.164545896560121
O	3.5851467132516417	27.075084531495037	9.457381679472325
O	3.4341694873063053	26.39707743377399	7.3976672151310385
O	1.4177552406035374	29.430955621262676	7.761087168016005
O	0.7226340465405023	31.973499593323364	7.561635749609042
O	5.145790958666158	23.10781936048712	7.463197964568702
O	3.362835186296314	24.152654598519728	8.967928669425824
O	3.749754717882208	28.625791777590706	7.7225212725220995
O	4.242291569685292	26.272472922916542	8.488680006337558
O	0.29055393152230136	27.082843966204543	10.39962828205108
O	-1.2372369925211435	28.509890501572766	11.492730117242878
O	2.3139965217198273	30.37736377782683	7.2774926735883
O	1.0254290144671145	29.968542590277966	8.903951022822326
O	-0.19618012929430928	28.372240821696927	10.57790336573361
O	4.044110870889602	22.842515805430992	8.506339470250568
O	0.5570767644807975	26.679667664222027	9.117622804281382
O	-2.0389411047867245	29.609968205548874	11.423689637584776
