25

O	4.370367831054866	26.673026741720744	8.271780253433679
O	5.484502006055659	24.85526458716485	6.209361570232667
O	6.9686196830965494	25.87653209609944	8.036466729304784
O	3.1425540165050525	26.6236081294169	7.748265424621379
O	1.0250941838605654	29.01376551592502	9.924377146049851
O	5.338407275497395	24.23823438869215	8.599845307316173
O	2.1400536576234064	27.264988666409124	8.407160164000459
O	0.3068797049305867	29.330613967025005	8.894683282070286
O	-0.6275812131680594	31.74030812715247	9.60682872264369
O	2.1234089019107474	28.1010486785403	9.469165893858412
O	0.7080239144487275	32.52208653689258	7.7115190274560685
O	5.056226114625708	27.67086584489849	5.314917739468563
O	0.7429439715797262	30.352143306056846	8.356822245507093
O	6.189782892553374	28.227171060916003	6.41218138021827
O	0.06982327452042814	31.615969721961452	8.589948541578508
O	1.7997778557755384	31.799712316287774	7.268209508634432
O	2.9333268413857416	32.036237906643876	6.6432841209848705
O	4.08040855908704	30.989506221965048	6.473092055579502
O	3.9857679598579128	29.614143707718313	6.574328241196302
O	4.9488719451275	28.638722959287335	6.0900776680750965
O	2.64510727522316	29.606587403334416	7.002737408304218
O	1.704750881867291	30.440167269124043	7.328557209290214
O	3.4492187769464313	28.369182013756976	9.607455829235397
O	4.51722613067525	27.717924688230507	9.10317687661528
O	5.548068435084762	25.49518464309214	7.795071591280038
