70

O	-2.686953702325581	0.027180305232558766	-0.43799363285813975
O	0.006909403674418724	-1.011026444767441	2.8862569041418604
O	-6.3773612323255815	2.1973726952325587	-2.79409448585814
O	1.1922519576744188	1.9570672852325588	-2.38172233585814
O	2.364323627674419	2.5264525652325585	-0.018314637858139804
O	0.7854360276744188	0.8102007412325587	0.9337154341418602
O	-0.5541370453255813	0.36928498323255865	0.9352731241418603
O	-1.3802881913255813	0.4519408772325587	-0.1332471418581398
O	-0.7506673343255813	0.9423339472325587	-1.2473573158581397
O	0.4363291076744187	1.6931364172325587	-1.1721214448581398
O	1.279518977674419	1.5989066312325586	-0.06453564185813976
O	-0.9473136332255813	-0.5503123947674413	1.9559879741418604
O	-3.3567593623255814	-0.07442684476744121	-1.6785748598581398
O	-4.332634712325581	0.8184451412325586	-2.2755547458581398
O	-5.605937672325582	1.3191024572325587	-2.01011452585814
O	-5.832664842325581	2.7972903152325586	-3.8925883958581395
O	-4.5116437823255815	2.534234875232559	-4.05062836585814
O	-4.154442742325581	1.2024852372325587	-3.6443921058581394
O	0.5266020976744188	1.3537327622325588	-3.4752859758581396
O	-0.9420110930255813	1.3592705852325588	-3.5225532258581396
O	-1.3217902563255812	2.7322619652325586	-3.2943254358581395
O	-0.06583573732558123	3.6260222452325586	-3.24974037585814
O	0.7612934176744188	4.190537435232558	-4.32065521585814
O	1.9509273476744189	4.914932735232559	-3.6973827658581397
O	-2.1011744523255813	-0.9835038647674412	2.1071547741418604
O	3.561558027674418	2.369242475232559	0.6672380541418602
O	2.640902597674419	3.2976510252325584	-0.9955428248581397
O	-8.452212502325581	9.050210385232559	2.4538594141418604
O	-5.4593585823255815	9.479190675232559	0.1392812431418602
O	-4.289629472325581	6.065509965232559	-0.8967272609581398
O	-2.0519969023255813	7.614913465232559	-3.59681387585814
O	1.5243251176744186	8.783416785232559	-4.15753579585814
O	8.427430157674419	8.668354135232558	-2.1073981358581397
O	5.594988137674418	10.576083335232559	-0.5102180738581398
O	1.8532078976744188	10.566478925232557	-0.15386906985813975
O	0.054392897674418794	7.601520605232559	1.4019567341418604
O	-3.1917650323255815	7.687741865232559	3.3788644641418606
O	-5.582244712325582	5.116981585232559	4.77500337414186
O	-5.771979662325582	6.044828975232559	8.43992153414186
O	-6.8034938023255815	0.7009491432325587	10.11995441414186
O	-3.440981482325581	1.3152672622325587	8.49569331414186
O	-1.659667719325581	2.782358355232559	5.48393013414186
O	0.21632549767441867	5.945962345232559	6.56501579414186
O	3.0881140376744183	7.107367285232559	4.37710556414186
O	3.7744600476744186	-5.707899084767441	4.12236674414186
O	2.8008303076744188	3.106434385232559	9.40665211414186
O	2.074417737674419	-0.024486734767441343	7.39074625414186
O	-0.40720892232558126	-2.874382034767441	7.6847973441418596
O	-3.340440212325581	-2.0678912247674415	5.34139827414186
O	-7.253182002325581	-3.2754842547674414	0.11445320214186028
O	-5.905030322325581	-3.9345308147674407	-3.34524854585814
O	-2.7704327923255816	-3.9148550547674414	-5.41884021585814
O	-1.8048497553255811	-6.302729094767441	-8.31020819585814
O	-2.1068380623255814	-3.4893872847674414	-10.92662958585814
O	-5.747187952325581	-3.110271274767441	-10.14905494585814
O	1.349096747674419	-15.178357244767442	-6.43624090585814
O	2.3857753976744185	-4.126993154767441	-9.81561512585814
O	1.4691070576744185	-1.0259757647674415	-7.92634017585814
O	3.4289053076744187	-2.1243199047674413	-4.84409691585814
O	2.3193183976744187	-5.766030484767441	-4.75558162585814
O	-0.6889693323255812	-5.917133474767441	-2.43801989585814
O	-3.2633267823255814	-8.681199994767441	-2.2393416958581396
O	-5.950969332325582	-9.734804744767443	0.22550474414186017
O	0.1881102576744187	-11.261098044767442	-1.93910878585814
O	2.7461786276744187	-8.987857244767442	-0.28426467985813975
O	5.705253877674418	-6.784182004767441	-1.1853427348581398
O	5.259314387674419	-3.091883574767441	-0.28602142485813975
O	7.880981347674418	-0.3295834447674413	-0.07490360185813971
O	10.760823447674419	-2.7352942847674413	0.6506995841418602
O	13.04040864767442	2.2330607452325584	1.2302170241418602
