64

O	-2.8636260139800003	1.3494626481199996	-0.5713175583
O	-4.04684510398	1.4420338301199995	0.10047942190000003
O	1.79912220602	-0.31095051888000036	-0.16040601629999998
O	-0.3487615609800001	2.1482222071199994	-0.5191777532999999
O	-3.0235457939800003	1.6704773541199995	-1.9261044183000002
O	0.3535011560199999	0.6781363001199996	1.3310094217
O	-4.26177233398	2.0702309011199995	-2.4433601583
O	-1.6801338599800002	1.7299693741199995	1.8438548017
O	-5.32934331398	2.3244367111199997	-1.5824213183
O	-5.02553537398	2.2648965511199997	-0.24954084229999998
O	-1.74267843398	0.4799617041199995	-0.08531214329999998
O	-0.4660519589800002	0.44011952411999955	-0.9349557183
O	0.6458505860199999	0.0867172711199995	0.04982978800000003
O	-0.3423485719800001	1.7339563221199996	1.2727557817
O	-3.8146840539799998	11.667862711119998	-5.7079783983
O	-4.00253707398	10.61804823112	-2.0601833682999997
O	-4.26873052398	6.864074191119999	-1.7833013883
O	-4.84854826398	7.043972161119999	1.9788243417
O	-3.19134479398	7.32883196112	5.4009772917
O	2.52001756602	5.457999581119999	9.456452881699999
O	2.1929709860199997	8.46900584112	7.1455831217000005
O	0.2805639260199999	9.772922171120001	4.1059107717
O	0.4674890360199999	7.9264452811199995	0.7940562567
O	0.0743120360199998	9.12787337112	-2.7096641983
O	-0.18605936498000009	7.694057261119999	-6.1845251682999995
O	4.16448602602	4.26027764112	-7.9164020583
O	2.7638984860199995	4.524903001119999	-4.4095275083
O	4.74311897602	7.1904092111199995	-2.4940537183
O	4.66344783602	6.99201612112	1.2995146917
O	5.879824816019999	9.851830931119999	3.4165744217
O	4.84700896602	-8.971380288879999	-1.4028359283
O	4.394806206019999	-5.44008473888	-2.6942088083
O	9.69305824602	-1.7126368788800006	-2.1614002283
O	13.31076984602	2.6841696111199997	-3.3076391483
O	9.15574304602	4.83051296112	0.6503045087000001
O	8.48521766602	4.18532817112	-3.0268770582999998
O	6.34997591602	1.0870612271199995	-3.5913889083
O	5.1425589360199995	-0.7639106588800004	-6.6742194782999995
O	1.6300611060199997	0.44431548411999955	-7.4082631283
O	-4.97715088398	-0.3445415188800005	-8.0949428283
O	-7.254373273980001	-1.8907718588800004	-5.4816416783
O	-7.1538007739800005	-3.29087522888	-1.9365862283000002
O	-9.10689417398	-6.232120338880001	-0.5266201383
O	-11.291837753980001	-3.9824637788800006	1.6582535317
O	-12.62439495398	-2.2139439588800003	-1.3833697183
O	-5.778606663980001	-6.13108638888	7.4715278817
O	-7.89147045398	-5.98639172888	4.2929362217
O	-6.62402631398	-2.4402369188800006	3.6911842717
O	-3.03152234398	-3.6519053788800004	3.2160584517000004
O	-3.79031064398	-6.72864656888	1.0262202547000001
O	-3.5835707139800004	-5.44326482888	-2.5925711483
O	-4.96137325398	-7.05192781888	-5.7247080783
O	-4.45813160398	-6.684801608880001	-9.461944668300001
O	-2.68330997398	-11.790283688879999	-7.781798248299999
O	-2.86955581398	-10.552523688880001	-4.1985072183
O	0.054322056019999954	-8.99386108888	-2.3052503882999997
O	1.0899903360199998	-8.23265235888	1.2695469117
O	1.7951582960199997	-4.498342158880001	1.8290386916999999
O	3.5200401260199996	-2.4996642088800005	4.6296482517
O	5.62071794602	-5.50732578888	5.5819887217
O	7.89247728602	-5.316375398880001	8.6685270717
O	7.68826541602	-1.5250433588800005	8.7684567617
O	6.07765514602	-2.1014502988800006	12.164487611699998
O	-6.105722563980001	1.9565954061199995	14.5043359117
