73

O	-4.09026811881702	1.2177784700425534	-2.359754107968085
O	-5.378281098817021	1.5048464580425533	-1.7090642469680848
O	-1.587980178817021	0.24728795404255333	-1.7513586439680848
O	-2.970322868817021	0.7587615890425533	-1.618400396968085
O	-6.025905988817021	0.7527991330425534	-0.6376858119680849
O	-3.8806893088170207	-0.2712857489574467	-1.145040576968085
O	-5.18966288881702	-0.47187505895744675	-0.644819808968085
O	-4.422532548817021	3.7235390110425532	-0.556442038968085
O	-3.248264698817021	4.199842901042554	-1.406827201968085
O	0.868624821182979	0.6323416940425534	-1.8859819979680847
O	0.7676051211829793	-0.02394590895744675	-0.626553844968085
O	-1.9177862088170208	3.217663651042553	0.28898101203191506
O	-2.165492079817021	3.198486651042553	-1.085981765968085
O	0.1942290111829792	2.8602589110425534	-1.5752686369680848
O	-0.34944357881702093	0.8123368610425533	-0.187048418968085
O	-0.6460184588170208	-1.2708145589574469	0.470726762031915
O	-3.009447708817021	-1.2560436289574468	1.607677332031915
O	-2.270800697817021	0.07269818904255332	1.4739290720319151
O	-0.5308744288170208	0.9397952260425533	-2.2774139279680847
O	1.212634821182979	2.021466186042553	-2.057124867968085
O	0.6508000411829791	-1.2258955789574466	-0.03279641396808497
O	-1.0310013348170208	3.378809871042553	-2.044668467968085
O	-0.21170974881702076	1.9979235470425534	-0.611861976968085
O	-1.1979439608170208	0.07955903504255335	0.625353082031915
O	-2.925463808817021	3.8410603910425536	0.978259552031915
O	-3.528772948817021	0.8089796620425533	1.6610614220319153
O	-1.1232207318170209	0.5951883470425534	-12.566605407968085
O	-4.0291453088170215	1.1964711210425534	-10.237562137968085
O	-2.651131457817021	2.4189373710425532	-6.9541859079680854
O	-6.1571356988170205	3.2096810010425534	-5.700099417968086
O	-9.27109360881702	1.7929416950425532	-3.945552917968085
O	-11.835880208817022	-2.890975648957447	0.865860952031915
O	-11.071530288817021	-3.549707158957446	-2.791091157968085
O	-8.97895111881702	-2.253564188957447	-5.680678487968085
O	-5.1988727488170206	-2.281737138957447	-5.540329777968085
O	-2.5838724258170207	-2.475562208957447	-8.267979527968086
O	1.1252717311829792	-1.9440295189574466	-8.385505317968084
O	2.211349541182979	-5.272449458957446	-9.914502897968084
O	7.323343461182979	-5.231863128957446	-7.515119857968085
O	4.39681136118298	-5.399974118957447	-5.111601567968085
O	1.055121851182979	-3.9290916589574465	-4.196177857968085
O	-1.6959475304170208	-6.4054884389574465	-5.177149727968085
O	-5.053156098817021	-6.0238620289574465	-3.421307837968085
O	4.31201816118298	-2.4216189689574463	9.361238992031915
O	3.8749874411829794	-2.9753983189574464	5.617346872031915
O	2.078266121182979	-8.965313808957447	3.9264615720319154
O	1.374523431182979	-13.585083708957447	0.527144882031915
O	-3.3051584388170205	-9.955147608957448	-0.719165496968085
O	0.26204270118297934	-9.302041708957447	-1.879675237968085
O	2.0183498011829792	-6.5252360589574465	0.030273885031915082
O	5.46901217118298	-5.0256380989574465	0.005046968031915067
O	5.2896620611829785	-1.8965559889574466	-2.231435457968085
O	5.9887687111829795	4.540987681042553	-3.546995257968085
O	4.12847892118298	7.179891421042553	-1.630062303968085
O	1.7385593411829792	7.778530271042554	1.197139652031915
O	1.6230488911829792	10.435272591042553	3.823880942031915
O	-1.4614736358170208	12.109978591042553	2.2881541020319154
O	0.3522882811829793	12.695041091042553	-0.938109417468085
O	-2.748230840817021	9.493203291042553	6.0132030820319144
O	-3.734305968817021	7.402527291042554	3.077452152031915
O	-2.574509863817021	4.248824561042554	4.895131422031914
O	0.7449243411829793	5.502851821042554	6.176691912031915
O	3.419776931182979	4.7104732210425535	3.5479737020319155
O	6.804679631182978	6.231934021042553	3.2237038320319154
O	10.018668191182979	5.477352181042553	1.4158848720319153
O	10.88980609118298	5.138603151042553	6.996511682031914
O	7.1358381911829785	5.220395801042554	7.456909072031914
O	4.91243286118298	2.1444886110425534	7.727618152031916
O	1.382109341182979	1.1780322820425533	8.782941122031914
O	-0.7863752998170208	-0.33782587895744665	5.976473552031915
O	-4.113976618817021	-2.245995008957447	5.984790352031915
O	-3.519613378817021	-3.5247451289574467	9.504570392031916
O	-8.036558288817021	-6.282702428957446	7.928488862031914
