25

O	4.0634628657911085	28.260377109521507	6.769963089612482
O	3.457346555342837	28.066215707603888	8.983161483822652
O	5.038680243026954	27.33580179877948	6.981946010891987
O	4.2082539649492485	26.92974549776485	9.102201973392546
O	-0.2274485770023753	31.026077948800275	10.802871948289805
O	-1.0142247626120315	32.20207068983528	10.180191902240582
O	3.5952043066755683	28.911251474449426	7.871143759319961
O	4.742601753487697	26.414023357161422	7.949738184700146
O	0.7968435893779525	31.914313065457335	7.454787611891148
O	1.0895554461011316	30.715139510731106	8.401666963961361
O	-1.406618550382208	30.1900941759196	10.916687013167902
O	-1.0619141343121627	31.77201090271453	8.817127310778526
O	-0.9966430690142156	29.69185985468509	9.662802595090909
O	-0.3405637974982034	30.512116409292588	8.71726103203258
O	1.5242555322626652	32.85958819931485	7.71604433269016
O	6.612406636062567	25.244290863066134	9.29754761820659
O	5.0696560453698805	23.830014681469606	8.116137006120914
O	5.868655391918379	25.081113512529132	8.025833071533109
O	-0.44885246045771177	32.617509717113286	7.882157464386706
O	-2.1674148666155837	29.257350030580312	11.47372015666905
O	-1.8863512970037701	28.150581555114464	10.859642051489967
O	-0.7394177072980834	28.477147298143496	10.224820758464077
O	1.5202300705265936	29.63034454783093	8.11816019231895
O	2.7433939106888365	30.024855151105164	7.538709510504527
O	6.856427102669032	24.963054720821653	6.635076231625249
