19

O	-1.2556320273051629	29.039838314200185	11.347291569941467
O	-0.9269431944086235	30.39181165152502	10.858576794301548
O	-1.4168481378055229	31.379937945654717	11.437886446251863
O	-0.777288288878208	30.50254031825274	9.491356871297802
O	-0.40032532321979986	31.657042602874682	8.790183461808388
O	-0.6434316865582868	32.934045579753615	8.797985530130985
O	0.18581445492258253	33.462142053671386	7.782041477538196
O	1.2350496604251133	32.79353563458112	7.596614555344068
O	0.7788999331751472	31.46786640105518	7.8561306779246225
O	1.7411895290647414	30.51781364580794	8.40573796257233
O	1.536868350010754	30.22584861865124	9.635645900781675
O	2.3328854245158634	29.5002239660429	7.638498600704554
O	2.7250620234178458	28.315840167042573	8.296973414358261
O	3.8476888164447813	27.60112532084939	7.992166320957338
O	3.969907166481932	26.395097314549165	8.675373418516417
O	2.969952152400112	25.828497474736967	9.4106816752827
O	1.9918255160033924	26.649258965648407	9.904599059188087
O	1.8389643750294704	27.860304237861953	9.287332543998456
O	2.8110520581081584	24.486642720516333	9.273713918601592
