70

O	1.1016303106481484	-1.957616814018519	-2.322999864148148
O	-1.0475407256518519	-0.5362070490185188	-1.711212114148148
O	1.3220465906481482	-0.5769975060185188	-2.251285834148148
O	1.8858422906481482	-0.18085346401851882	-3.411182174148148
O	-0.04204584135185174	-2.591128004018519	-1.992313854148148
O	-1.0075558677518517	-1.8482148240185188	-1.4008817041481478
O	0.1692260006481483	0.06821653198148117	-1.9247606941481479
O	-1.0940303497518518	-2.3115616340185188	-0.08743396984814784
O	-2.2759612993518514	-2.370537714018519	0.21904306685185215
O	-2.697991989351852	-1.164240784018519	0.7261862298518522
O	-3.668797349351852	-1.282192034018519	1.657878705851852
O	-0.8205908873518517	0.3250773230814812	1.101671905851852
O	-3.9148175493518513	0.06601227898148115	1.9846876358518521
O	-4.500927939351851	-2.341661394018519	2.066324825851852
O	-2.097470319351852	0.17272115768148116	0.8849163658518522
O	-2.8510922893518518	0.6292949969814812	2.014143975851852
O	-12.679314609351852	-3.290630374018519	-3.896869634148148
O	-9.579405449351851	-5.1567925440185185	-5.0721651641481476
O	-6.867221109351852	-5.052395564018519	-2.460517094148148
O	-4.546097439351851	-7.380053774018519	-4.3412093341481475
O	-2.118178559351852	-7.768884574018518	-7.234497914148148
O	3.3811243306481487	-4.706063814018519	-10.827681834148148
O	-0.3442779713518518	-4.213368404018518	-11.369034934148148
O	-3.710343139351852	-4.468720174018518	-9.635876994148148
O	-4.395389789351852	-2.437530134018519	-6.462104964148147
O	-7.816701899351852	-1.1569512740185188	-5.414923384148148
O	-9.172369619351851	0.5465283689814812	-2.368350904148148
O	-10.676449479351852	3.708510035981481	-3.785259054148148
O	-9.820402029351852	6.775637845981482	0.9028400558518521
O	-6.6705547993518515	5.551314245981482	-0.8527839381481479
O	-4.949824509351852	2.5909346159814812	-2.370399514148148
O	-4.993795959351852	2.950832065981481	-6.156019314148147
O	-2.4008661393518516	0.9817942469814812	-8.057668244148148
O	-2.7443540093518517	0.6188374399814811	-11.839481034148148
O	9.693541390648148	8.771174515981482	-4.748162604148147
O	7.443701120648148	4.360828105981481	8.195001855851851
O	7.085502260648148	4.632593195981482	4.4267174158518525
O	3.6422710606481488	4.462155515981482	2.834548125851852
O	3.1091107006481487	7.943537025981482	1.4092520558518522
O	2.7992820506481486	8.236944655981482	-2.358289624148148
O	0.04731822064814817	10.889870335981481	-2.6142801941481477
O	-0.07879062935185177	11.386516935981481	-6.3703661341481475
O	-0.15661996535185174	5.553719315981481	-8.308623114148148
O	-2.236188599351852	6.842724555981482	-5.437680384148147
O	-1.0425592083518518	5.804726225981481	-2.014467524148148
O	-2.055036919351852	6.475797975981481	1.518603805851852
O	-4.408811979351852	3.7399275259814813	2.6492441458518523
O	-6.199407239351851	-1.527284394018519	6.573157425851853
O	-3.9744829293518515	-4.573745664018518	7.004821745851853
O	-0.6548697973518518	-6.093323934018518	5.980421555851852
O	1.8053457306481484	-8.071288564018518	8.080661495851851
O	1.0684188006481483	-11.327538564018518	6.239010895851853
O	-2.5336641893518514	-11.17793286401852	7.302569355851853
O	10.265513290648148	0.8900299569814811	12.903321765851851
O	5.124793230648148	-9.468020914018519	4.648915675851852
O	2.5936279006481486	-8.577822884018518	1.967528815851852
O	3.996990060648148	-5.083785554018519	1.4486824358518522
O	4.527140750648148	-4.239875904018518	5.130712665851853
O	1.3711670006481482	-2.407318664018519	6.213330765851852
O	0.12424788064814818	-1.819098624018519	9.728277695851851
O	-2.4122993393518515	0.42521652398148113	11.433969965851851
O	2.779673000648148	1.7288244859814812	13.238096965851852
O	4.157908250648148	-0.3810844920185188	10.398594465851852
O	5.132504570648148	0.9830919409814811	7.009947145851853
O	7.136531160648149	-0.04523354701851884	3.9738563158518523
O	5.117721190648148	-0.19237861901851883	0.7958797838518521
O	6.068838480648148	-0.41134617301851883	-2.872300404148148
O	9.470122490648148	1.380665835981481	-2.2508108641481477
O	11.972145190648149	1.7471654859814811	-5.127575374148147
O	9.32373719064815	1.048571005981481	-7.760564924148148
