33

O	0.7696138567203846	25.56805961519672	10.828684669974068
O	0.977043693420307	26.898518735746684	10.683580594149763
O	0.51828872638884	28.0356659546774	10.126771008147852
O	-0.0627117108935904	29.18774876202715	10.653548705796013
O	-0.7506090102891076	30.032815096853817	9.774769159703936
O	-1.064558212715884	31.43587276033885	9.467465809087814
O	-0.13720209594791966	29.611721529273716	8.555119285343597
O	0.6952123624272823	30.474143707223483	7.9340916929371295
O	1.7445776769197392	30.00511552615845	7.249307926874947
O	2.5957379298352654	30.983823211975245	6.839242745730992
O	3.6888338916483123	30.461324918207538	6.152403655316935
O	3.86070398849944	29.110712027532465	6.040121937962214
O	4.571886477764156	28.657983475118623	4.721209774729828
O	3.578289758110956	27.531847813957146	4.694760839864407
O	3.3713014954833556	26.65562387845952	5.813121614633916
O	4.787641800826694	26.862820445957023	6.188510113813541
O	5.556700437598975	26.381261422868377	5.098157952163065
O	6.870879450321969	26.57185036516585	5.574361851037221
O	6.808543631157432	25.730284616307525	6.815450843269014
O	5.614699831060911	25.881115953969427	7.691569396750309
O	4.705361348410742	24.91424436828417	7.285083182376247
O	3.9236837294525997	24.639421044129527	8.41597672475893
O	3.38219464579333	26.03932263451607	8.935050181675667
O	2.7503400577710426	24.215683995179603	7.846508782000427
O	4.757985000102284	24.259052770142077	6.097149737554101
O	5.436507641601102	24.95328149745521	4.984087965903506
O	4.750157115191678	28.21755244449564	6.817674502786988
O	1.9595090826982775	32.2238398940746	6.667259268737492
O	1.2401362542102798	32.521743581725744	7.8703511395190455
O	1.1543838402261604	31.480203987707828	8.913897697282874
O	1.9375107212868437	30.44291082165579	9.55728889803554
O	2.719132080783104	29.306877312871492	9.018636190276714
O	0.6272582808938877	28.015107545077043	8.406814515931726
