25

O	1.333603771499557	31.66009296469471	7.817554371351639
O	2.97541347457698	30.301337037895387	7.657315345486
O	-2.5472992094863676	27.55558401677413	11.627552230853375
O	-0.095441660078746	33.4492910001719	8.348949433441003
O	5.615162295147276	24.495889138269085	6.783879022603941
O	-0.7535965808879317	31.21618604912031	8.908832023602633
O	0.2177154600026634	32.18612486914319	8.544524125223264
O	1.6498804788427994	30.448603075077493	8.235310670763422
O	3.29285718366705	29.03367124624043	7.477327835836384
O	-1.4832541630111649	30.883998654952887	10.064336108858601
O	-1.4806778007039643	29.552680072319287	10.776704707072048
O	-0.5720488623282616	28.62089491835762	10.364989033288072
O	-0.457626033244382	27.224352917575665	10.520887740734565
O	-1.5397774811570029	26.704723973769134	11.247286509222468
O	-2.4834753663845444	28.965870068479113	11.498167635171542
O	3.9929944563998747	28.559205097507036	6.425749482865966
O	5.004315319631441	27.645184725560334	6.695571511805797
O	5.059151035960955	26.950512263845745	7.86666977023355
O	3.847919983640951	26.94203776412767	8.55702225399921
O	3.292538772943564	28.1899739274645	8.591664426239374
O	-2.392156429434996	31.657129521953305	10.485237425596965
O	5.837850781203897	24.808245869663715	9.336434724597545
O	7.500982180362564	25.78156577709487	7.889705103297751
O	0.05937851892854229	29.701646872144114	8.427007159593265
O	6.050770627246997	25.540184580710864	8.060601606504013
