26

O	-0.8737940219991762	28.167344384686515	9.402974420067343
O	-0.6934285539028033	27.245502312318365	10.449998563724368
O	2.177675801417803	28.360618484273324	7.890923304107027
O	3.019524156973029	28.349814257376828	6.768969433185813
O	4.123128875676697	27.455003216404176	6.74214667388064
O	4.504231323543262	26.75713939035304	7.84694061112787
O	3.43449336600259	26.6426579712719	8.728937648693442
O	2.4238185749966057	27.524086082690353	8.901913590370867
O	2.20207481386724	28.147229635075757	10.216970128546556
O	-0.16107435453896923	25.915089061220108	10.487468920730915
O	-0.38532596390382046	25.4389067129609	11.888315448374048
O	-1.6852786665870763	25.779419531428964	12.521903316297118
O	-2.0895014610270106	27.236458486108777	12.364363532842994
O	-0.7735010632414367	27.81853213211902	11.80752052587864
O	3.254160783069551	25.495884218855867	9.445853103531936
O	-1.1297121069370724	30.845452534281293	8.486692980745294
O	-1.149536305841295	32.320016688075945	8.251943211745763
O	-1.9669618208515407	33.139656825494214	8.755396686424477
O	0.10534823043983454	32.74303728767995	7.5924660868689084
O	1.0024777923045773	31.803003314744558	7.72891221566849
O	0.6541142853613253	31.302490729825507	9.061673032766453
O	-0.4829442337380818	30.477919577274236	9.414756579036816
O	-0.7670101235790387	29.37474568424938	10.068989627410739
O	1.402439457497509	30.164600961635532	9.051548362627884
O	1.8423562065007775	29.72224382481777	8.003234149859942
O	2.0059345600948	30.919345256909693	7.276558683586321
