16

O	2.4378366396975832	27.765827413595595	8.28875431294491
O	2.678042599373292	26.62214787780014	8.86721428097177
O	1.5446729506634913	28.614717506383524	8.701620485193054
O	1.483536559872276	29.934219456136972	8.26049547007492
O	0.4150055911271641	30.535024114449268	9.018784636223982
O	-0.3746108110227899	29.865906734926607	9.905826300797013
O	-1.3342279279098714	30.55278021166812	10.7391491026676
O	-1.9636438013677417	31.558841251362704	10.170081520157945
O	-1.1370336992131729	32.43138054136757	9.346704202652493
O	-0.3012643903269727	31.641954040823478	8.468037621488826
O	0.2906356931217696	32.31785917616928	7.568372290085035
O	2.4604849843930126	30.21326028335487	7.467885333476335
O	3.408167511326594	29.319660948164064	7.045730374660954
O	4.17130998609434	29.49551413720168	6.033937969675402
O	3.015318942996506	28.007156403911686	7.111768836371851
O	-1.8545427232276772	29.978209881538163	11.826248215465572
