78

O	0.18594506942222244	-0.2893624872044447	2.0500632589488896
O	-0.9383874044777776	0.2966832327955553	2.6585269189488896
O	-1.2757812505777775	5.270777882795556	-3.3597021110511105
O	0.4113970394222224	0.03678819279555534	0.7870563689488895
O	-0.8896907795777775	1.6344281627955553	2.7600299189488897
O	-2.1639257705777775	8.478511812795556	-4.650476531051111
O	0.32459645942222237	1.3695995095955553	0.6498320489488895
O	1.5065918594222225	-0.9008922972044446	0.5561853589488895
O	-0.5178931745777776	2.040418822795555	1.5662998389488898
O	-1.7656216395777775	2.3597865537955554	1.1569795689488895
O	1.8983703694222225	-1.1783076572044446	-0.6715461560511105
O	-1.0011100875777776	7.610263932795555	-6.88286588105111
O	1.0428720794222226	-1.4010098472044448	-1.7386717790511104
O	1.6359586794222225	-1.8441964872044447	-2.8616664910511105
O	2.8457677394222225	-1.4816518872044446	-3.40001200105111
O	3.199585229422222	-0.33068799720444475	-2.6959572410511106
O	3.083141719422222	-0.7264332272044449	-1.3359014240511105
O	-1.8290987455777774	3.316860562795555	0.2509397089488895
O	-1.7392329705777776	2.7101362527955555	-1.0363193930511105
O	-1.2294737865777776	3.358106872795555	-2.1259629710511105
O	-1.6854063045777776	4.631989692795555	-2.2065062010511105
O	-2.1751236705777774	5.223325182795556	-1.0740401960511106
O	-2.4303235305777777	4.506196952795555	0.09100453194888958
O	-1.3595724115777776	6.650209492795555	-3.2831631310511105
O	-1.6177309815777776	7.229528662795555	-4.6067788810511106
O	-0.8139146495777776	6.772604302795555	-5.757749911051111
O	-0.8397627175777775	8.954047782795556	-6.43155548105111
O	-0.31835051757777755	7.272668782795555	-8.08481517105111
O	2.9298195794222224	0.9523086537955553	-3.45284692105111
O	0.06990840942222243	-0.3796296672044448	-1.8551674010511103
O	1.6091774894222226	1.3200748037955552	-3.73161563105111
O	3.484444369422222	0.7856080017955552	-4.641508361051111
O	3.242451519422222	1.7887011507955553	-2.4774538510511106
O	4.562720609422222	11.046900662795554	3.4422352289488893
O	5.342750879422223	8.972322082795555	0.35734549894888945
O	2.5622026594222223	6.3746114627955555	-0.3224820970511105
O	4.228972559422223	5.437821352795555	-3.5610466610511105
O	6.568323659422223	3.1247899927955554	-5.3490217810511105
O	9.873276019422223	-3.1423090572044448	-5.329365551051111
O	10.827796619422223	-0.05296205720444469	-3.44680830105111
O	9.495214219422223	3.2098382327955552	-2.1076661010511106
O	6.761077889422223	3.190017412795555	0.49175617894888946
O	6.063170469422223	5.763726452795555	3.1835993289488895
O	3.274020289422223	6.407786262795555	5.68600131894889
O	5.125529109422223	6.425314032795555	8.99480334894889
O	0.6716702994222223	4.462588552795555	11.93937271894889
O	2.0826267994222225	2.078607624795555	9.36637621894889
O	3.1785523094222223	1.7576404537955552	5.7698868489488895
O	6.9902636194222225	1.4828338869955553	5.6175110889488895
O	8.448605609422223	-0.14146243720444462	2.5073206689488896
O	-2.4351203805777777	-6.7678812372044455	4.52593129894889
O	6.474437919422222	-2.617589107204445	8.04971774894889
O	2.8492757994222226	-3.146574027204445	7.02748373894889
O	-0.5277554975777776	-2.411269567204445	8.60177090894889
O	-1.6942275395777777	0.8787716147955553	7.01889756894889
O	-5.938210560577778	4.741348012795555	3.65515855894889
O	-6.989609410577778	3.9940970327955556	0.12281626394888956
O	-6.345626270577778	1.6066433047955553	-2.7221677610511104
O	-8.780058140577777	0.2566262827955552	-5.25258016105111
O	-7.282381150577777	2.207700197795555	-8.132675161051111
O	-8.179281960577777	5.328812542795555	-6.32284885105111
O	-14.804545680577776	-6.968009557204445	-2.8696176710511105
O	-5.759725370577778	-2.1547363572044445	-8.33194820105111
O	-2.8724495505777776	-0.31864884720444464	-6.83574434105111
O	-2.2287982505777775	-3.0752764772044445	-4.442776231051111
O	-5.728825530577778	-3.828011177204445	-3.3182284310511103
O	-6.399619530577777	-1.7565913372044448	-0.2170263850511105
O	-9.709455250577777	-0.8024242272044446	1.2843068589488897
O	-10.879164570577776	0.6000229017955553	4.58737430894889
O	-10.549765180577777	-5.067536667204445	1.0014920889488894
O	-7.059007260577777	-6.587801957204444	1.3282366389488898
O	-4.240146390577777	-7.966884227204446	-0.8447928741511105
O	-0.8726186885777776	-6.012015297204445	-0.6833849816511104
O	2.6281392994222226	-7.201800177204445	-1.5415863030511106
O	1.8523280494222223	-10.763633257204445	-1.4887091330511104
O	4.606145089422222	-13.182486757204446	-2.4983337910511105
O	8.081689189422223	3.519122632795555	-13.185149181051111
O	6.727603199422223	1.0979608217955552	-15.755434481051111
