17

O	2.9392281078923763	28.087941620572145	7.058276430272668
O	2.7325821428393353	27.942869931957155	8.414055294680907
O	3.1656453183932367	26.795060561174438	8.801184542092011
O	1.8242727481729886	28.792929863951233	8.795939192773439
O	1.4996505812255103	30.081572865008223	8.352625931277116
O	0.12975210357189837	30.28853678214123	8.893106974093543
O	-0.6070462972784408	31.322072367764626	9.463296154658888
O	0.0339478750886526	32.46658588713157	9.152112877330442
O	-1.0922771742051345	30.88400498517198	10.774837153608154
O	-0.8495563889711367	29.59199688693745	11.412408224925311
O	-0.2843932365351035	28.55541987789203	10.785301585589705
O	0.11007393837153645	27.350609186284334	11.25782622076205
O	-0.5850250663833413	29.281857648995167	9.571836128588215
O	2.2023768163661366	30.178314915669766	7.275944676994344
O	3.2733773162984496	29.41429864593852	6.904354932979931
O	4.278726929027034	29.51158984643287	6.144456168164387
O	0.971962076847373	26.346713595411813	11.042536023853817
