33

O	1.179458257023866	26.620654223197672	10.149331677315155
O	0.25022250756052133	29.211852222681866	8.980211093068625
O	6.279444517214298	25.896374263069795	7.24361523322094
O	2.6888165184825477	26.85533758471816	10.279825827317032
O	0.7042719566318691	31.133427932976172	8.227087323316587
O	6.5370551665779955	25.559135893072753	8.67594873895072
O	3.5909617818197104	25.80845774612801	9.780616261318658
O	0.06018331100663432	32.34834131103704	8.210687012563117
O	7.499438323967554	26.594102453498245	6.868088049956638
O	3.484350692426121	25.19522583432919	8.508641535492828
O	2.522132634889365	26.093410995692444	8.013546121288023
O	2.8108713207658163	30.75296416180848	7.4001529615649435
O	1.2805299531261565	25.878689215067315	8.898625000206005
O	6.146124483756043	24.479236921417336	6.350283948324771
O	1.554113445790701	28.76684810301497	8.84706658148934
O	0.8908407107516021	27.94088344686024	9.872835878502363
O	2.0562587834169435	28.95662249955215	7.617100857181018
O	3.9251018933401367	23.887506395933585	8.531999283378177
O	1.7627966650668134	30.299426161381803	7.681217584872514
O	-0.2761850463562965	30.488157555278292	8.927918631559587
O	-1.1978484159869522	31.358740126565806	9.529541336748311
O	-0.5366016792146442	32.599286927296866	9.353162014540146
O	3.788924878474237	29.699335920714727	7.090195001897287
O	3.7212620053627585	28.73494685808324	6.155346484719326
O	4.646477178054574	27.74373059723021	5.9671813649159935
O	5.058985124272056	27.14149033427528	7.0766666966820235
O	5.042480862295251	28.008388392261963	8.129859992264407
O	4.133738944308109	28.985778199299993	8.205697887836212
O	-2.259536004396967	31.234967070100105	10.362808508766294
O	-3.6181945596330563	31.701537814630814	10.025422722648255
O	-2.3572901024551483	29.922283794986114	11.07609048603639
O	6.750196263958152	23.401467969400027	7.088696746917558
O	6.927890726666126	24.639825079786124	5.153881585852943
