73

O	-1.7866901345	0.6875493462799999	-0.03556468857999939
O	-1.1248451435	1.66692612378	-0.5202920735799994
O	-0.19510795949999993	1.02166884128	-1.3418817175799993
O	0.8471523655000002	0.19935894727999992	-0.8724677742799993
O	1.2360849155	-1.0343802827200002	-0.7897484168699994
O	2.6713868755	-0.9709894727200001	-0.6986903201799993
O	3.0897405755	0.2398076672799998	-0.7473361378799994
O	1.9315162255000002	1.07017863428	-0.5443828855799994
O	2.0544729555	2.46030384028	-0.6908330635799994
O	1.1285728655	3.2105734772799996	-0.08034559157999932
O	1.4309670555	4.50404723728	-0.16989083857999931
O	0.7319099155000002	5.70933842728	-0.12970535457999932
O	1.1874840455000002	6.67588368728	-0.9812390885799993
O	2.5039483855	6.62923197728	-1.3505851685799994
O	3.3454119355000005	5.703389437279999	-0.7352778461799994
O	2.7973317855	4.4798530872799995	-0.4649467005799994
O	3.1560328255	3.17018144728	-0.4743411775799994
O	-2.0163703144999996	2.79376986728	-0.8640029569799994
O	-3.3075285645	2.5814087402799997	-1.3574911325799994
O	-4.0086003345000005	3.75544861728	-1.6449919775799993
O	-3.5234122445	4.99371361728	-1.2156318875799994
O	-2.6288430744999998	4.99734695728	-0.17545455057999937
O	-2.0229520845	3.7917537172799998	0.11920069942000067
O	4.0837915955	7.07077404728	-10.39645186658
O	0.5316427455000001	7.111814187279999	-9.05480883658
O	0.4823343655000001	6.17066743728	-5.350232026579999
O	-3.2107506745	6.90845515728	-5.012111946579999
O	-6.7503787245	5.678676117279999	-5.66714545658
O	-11.053206784499999	-0.11704149272000008	-5.36419795658
O	-8.8575812345	0.9946932902799999	-8.25167530658
O	-5.7572131744999995	3.04804842728	-9.03951659658
O	-2.4277853945	2.1666512542799996	-7.37303989658
O	1.0058331555000002	2.7612172272799995	-8.85917631658
O	4.5487750355	2.44084265428	-7.6223320665799985
O	6.0939930755	0.11661037727999979	-10.19622877658
O	9.8452807155	-2.1450171127199997	-6.605780686579999
O	6.2020364955	-2.8102077027200005	-5.793297326579999
O	2.7708039955	-1.21994969272	-5.3431226465799995
O	0.6063297155	-2.1932572527200005	-8.30399588658
O	-3.1446763945	-2.02020737272	-7.848145196579999
O	0.2026573075000001	-7.062157672720001	7.022369853420001
O	1.3549026255000003	-5.673642102720001	3.677547923420001
O	2.3885011655	-8.73833116272	1.7098782634200007
O	0.37387791550000005	-9.58676716272	-1.3841417435799994
O	1.1411673755	-11.78575106272	-6.722711046579999
O	-2.6551622645	-7.03030790272	-7.325009396579999
O	1.0682415455	-6.71733876272	-6.68840886658
O	1.8811953355000002	-5.624446792720001	-3.1255129365799994
O	5.1041435155	-5.14709902272	-1.2076459995799993
O	5.9994901055000005	-1.4687424327200003	-1.3823460255799995
O	6.9964352655	4.4998690972799995	1.1740312134200006
O	4.6651756555	6.30043798728	3.4186470134200007
O	1.2329111555	5.9638232772799995	4.908878333420001
O	0.13254898850000008	7.06318669728	8.402595163420001
O	-1.9983149645	9.92008444728	7.0849705734200015
O	1.0420553555	11.55064178728	5.59645658342
O	2.1064136355	1.5214056072799997	16.17195377342
O	-4.7637351145	6.22192599728	8.16921736342
O	-4.3975599045	6.035103267279999	4.37854462342
O	-4.0752774645	2.2893994622799996	4.378974893420001
O	-1.7359958944999998	1.9561583882799998	7.354948093420001
O	1.7786966955000003	1.9374306722799999	5.8788115134200005
O	5.0410557255	2.64529204728	7.6906717234199995
O	8.7327970055	2.1275700452799997	7.034055583420001
O	7.1422643955	-0.9755318627200003	11.50056507342
O	3.5374007355000003	-0.27582976272000015	10.54051137342
O	1.4142126555	-2.5101057327200005	8.31048983342
O	-2.2278841844999997	-3.0769209227200003	7.399834073420001
O	-2.9889774245	-2.6227136727200007	3.6826719634200002
O	-5.9760016845	-3.5868733427200006	1.5456992334200006
O	-6.9352856045	-6.47675873272	3.91230288342
O	-10.1507493445	-8.45808636272	3.2685854434200006
O	-10.4004288245	-7.177693862720001	-0.2961775585799994
