76

O	-0.595123758276596	0.06570380279574412	-0.9193683023723407
O	-0.28523176327659594	-1.1869685872042557	-0.7432108540723407
O	-0.4551830632765961	-1.3106744072042558	0.6792210609276593
O	0.755589566723404	-0.7315414372042558	1.0973617109276592
O	1.458455886723404	-0.3062535522042559	-0.13224314507234058
O	0.8060036067234042	0.6859070117957441	-0.9575472627723406
O	1.562933506723404	1.032097196795744	-2.105941499072341
O	1.344454096723404	-0.34837251120425594	-2.3963120290723405
O	-0.0027880232765959967	-0.4683399192042559	-2.1675608890723406
O	-0.950335983276596	-0.8774772872042559	-2.9584876790723404
O	-1.543897957376596	0.4973477274857441	-2.3131410890723405
O	-0.9125821822765959	1.413510832795744	-3.437420919072341
O	-1.424673984276596	0.7370569697957441	-4.713953349072341
O	-2.290028288276596	-0.44366142220425586	-4.424956369072341
O	-2.295520187276596	-0.891203547204256	-2.8406352690723407
O	3.0511876267234044	0.8764728747957441	-1.6634034580723407
O	-1.707761153276596	-1.045470127204256	0.8916635909276595
O	-2.912373543276596	-0.941056787204256	0.34260542092765933
O	-3.615299583276596	0.2753758937957441	0.0040821939276594055
O	-4.401938693276596	0.5128244958057441	-1.1790594360723405
O	-4.444337073276596	-0.8922475272042559	-1.8776661400723407
O	-4.890723263276596	-1.746312887204256	-0.7743066810723407
O	-3.992810163276596	-1.9172481572042557	0.3984496109276593
O	-5.936212953276596	-0.9899679472042558	-0.36628930707234064
O	-6.493001713276596	-0.4055560652042559	-1.4577324850723405
O	-5.120229433276596	-0.7291684772042558	-3.008277429072341
O	-5.239453643276596	0.3085574907957441	-3.8199180790723406
O	-4.507142523276596	1.3732420117957442	-2.096709739072341
O	-3.8994300032765956	2.134858012795744	-2.998537889072341
O	0.9008848867234038	-13.422773957204255	-3.2579077790723407
O	-2.297260936276596	-12.928775757204255	-1.2982463610723407
O	-4.247842083276596	-10.527870257204256	-3.5184453990723408
O	-3.893157513276596	-7.7709608772042555	-6.102389449072341
O	-3.625855473276596	-4.5770552872042565	-4.38504757907234
O	-3.787402923276596	-2.4711979172042557	-7.61944031907234
O	-1.949138710276596	-1.1453891172042558	-10.623908169072342
O	1.0370467067234042	-4.377902967204256	-10.657954329072341
O	1.1416508667234042	-4.549199767204256	-6.88787756907234
O	0.2394547767234041	-7.4574008972042565	-4.61443696907234
O	-0.24463428327659598	-8.009391387204255	-0.9214490266723406
O	2.2554763367234036	-10.807184357204255	-0.20547855907234058
O	6.065644256723404	-10.478680757204256	7.111406060927659
O	3.1267521667234046	-9.105123567204256	5.14150507092766
O	4.3166794667234045	-6.702382947204256	2.471852790927659
O	3.2668647067234042	-4.892400167204256	-0.6861269230723406
O	5.058155466723404	-6.362577687204256	-3.6453007090723406
O	5.348431086723404	-4.152513117204256	-6.71059477907234
O	7.183446596723404	7.830664162795744	3.7136093709276596
O	6.211047006723404	4.223234282795744	3.026237350927659
O	11.029637566723403	0.551781091395744	0.7521188109276594
O	9.054490866723404	-4.719878737204256	-1.5535002720723408
O	7.2960107867234045	-2.0900455972042558	0.5253281409276594
O	5.983017586723404	-1.9290858072042556	4.07402378092766
O	2.258956246723404	-2.7825652572042556	3.8891410409276594
O	-4.195215773276596	-1.4254696772042559	4.497237820927659
O	-5.862506193276595	1.6328211627957443	3.3665299709276595
O	-5.402329133276596	4.6748550927957435	1.259511660927659
O	-6.831134623276596	8.067110392795744	1.5036064909276594
O	-9.114135553276597	7.737278402795744	-1.5250264170723407
O	-10.900205953276597	4.879011332795744	0.12543366092765929
O	-11.051529473276597	6.618637532795744	3.4730826909276593
O	-5.255968503276596	10.238861902795744	-2.669394209072341
O	-4.521602493276596	6.8961715127957435	-4.13983508907234
O	-0.8952691382765959	6.886573492795744	-3.065780379072341
O	-1.406302160276596	8.312409102795744	0.4152474009276593
O	-1.643955747276596	5.428478212795744	2.8775871509276594
O	-3.104778563276596	5.408168202795744	6.35695905092766
O	-3.044797413276596	3.0625228327957443	9.318406800927658
O	-0.469912443276596	8.002330612795744	10.63317410092766
O	-0.45324777327659604	8.846625552795745	6.92701748092766
O	2.380710726723404	8.054466062795743	4.48892863092766
O	3.5637939267234042	8.929512222795745	0.9846376309276593
O	3.686185176723404	5.9047496527957435	-1.3810820480723407
O	5.338010586723405	5.442444522795744	-4.7380731090723405
O	7.933946016723405	8.277561042795744	-4.086072039072341
O	-10.478110953276596	-3.2204425172042557	7.36078452092766
