18

O	-0.13082643703271502	32.165103385655236	8.211456679271194
O	0.40478142305141085	30.962962541998788	8.239419826177674
O	1.4730656381692897	30.849899910331473	7.446946823443142
O	1.6504902403890378	32.07734395294619	6.956080802178963
O	0.7370066140925667	32.95891094027306	7.466227480758711
O	0.10375945758803873	29.89953715427202	9.023545446149706
O	1.0943058856757655	28.983651619389214	9.182887570262572
O	2.0865983369267287	28.763829753475402	8.284476708949972
O	2.394731119316959	29.817372312012278	7.488885509458341
O	3.367107482012175	29.589522950201182	6.49063675701137
O	4.475295282621639	28.714501143252065	6.684798573037897
O	4.504455035378191	27.500626436710615	5.858259157008453
O	5.119739771088209	27.444905673529817	4.644819807144807
O	5.3093220031987105	26.188562453979884	4.062393163688444
O	5.124719707122044	24.997183840114438	4.618456052375224
O	4.769977909915836	25.088899669581984	5.9148639630423
O	4.417596181022063	26.30182579216524	6.507263961659574
O	-1.227345736228179	32.598270448680466	9.088991264312131
