73

O	2.058194436659091	0.5705107511363637	-0.6522996865681818
O	0.886879656659091	7.768322170136364	0.4866799644318181
O	-0.4777163503409091	6.515619870136364	-1.528728211568182
O	1.8870580266590906	6.995979720136364	-0.31677691756818194
O	1.5398049666590907	-1.4930575198636362	0.4129730604318181
O	1.6211951466590908	6.646568650136364	-2.9043898315681815
O	1.1563740566590908	4.546194550136364	-1.447959421568182
O	0.438928656659091	-3.4335626998636357	1.6249433384318182
O	-0.7014486650409091	0.8353307451363637	2.8803010284318185
O	0.3376094966590909	3.831659430136364	-0.6258947135681818
O	-0.6805665851909091	-2.089121989863636	3.033777078431818
O	0.7164494666590909	2.5338049201363635	-0.4536037425681819
O	0.822346986659091	0.6497907551363638	1.2459332184318181
O	1.921383096659091	1.9719486841363638	-0.738543312568182
O	1.6297785466590908	-0.09809449986363639	0.3722196564318181
O	0.8004391166590908	-2.0944940798636367	1.261541288431818
O	-0.5621611503409091	-3.3003608898636365	2.647761698431818
O	-0.25973335834090905	-1.3235995398636364	1.9057375584318181
O	0.21148118365909097	0.020324120136363755	2.1980706484318184
O	-0.22889502634090908	2.1382093911363635	3.0725307284318184
O	-1.071918618340909	3.0888859601363636	2.349621048431818
O	-1.148196472340909	4.378397400136364	3.116640388431818
O	-2.497244843340909	4.6646250601363635	3.699165388431818
O	-3.092132603340909	3.6134809201363636	4.552598648431818
O	-2.548454913340909	2.2783531861363637	4.046962848431818
O	-2.452722763340909	2.5108957701363637	2.523123038431818
O	2.677114526659091	2.726800250136364	-1.6187778515681819
O	2.267451976659091	3.9787061901363634	-1.9549846615681818
O	0.9789850066590909	6.255479150136364	-1.6330969915681819
O	10.113600286659091	5.590359890136364	4.900814408431818
O	6.625363146659091	6.482812190136364	6.086793308431818
O	3.981886936659091	5.320017800136363	3.563065178431818
O	1.1826511266590911	6.959229760136364	5.436098918431818
O	-1.0885722733409091	6.862311840136364	8.412511428431818
O	1.3586881966590907	4.271378160136364	10.904423238431818
O	2.554787706659091	2.385077522136364	7.839617078431818
O	6.1691441266590905	2.1644225281363636	6.722167428431818
O	7.962565516659091	0.7727865371363637	3.721207588431818
O	10.441929186659092	-1.6687542298636362	5.287826898431818
O	10.480991786659091	-5.130968229863636	0.7742951024318181
O	7.156674426659091	-4.834941559863636	2.5805216684318184
O	4.554009296659091	-2.437285949863636	4.006748548431818
O	4.753370326659091	-2.555117769863636	7.802454408431818
O	1.6804000966590906	-1.3799159198636362	9.679873738431818
O	-6.304348663340909	-8.432977119863637	-2.3138460515681816
O	-3.051087523340909	-7.130593809863636	-0.8566423315681819
O	-1.025602806340909	-10.262830549863637	4.4861349184318176
O	3.3424287766590908	-7.128648299863635	7.378131868431818
O	1.8268335366590907	-6.697897049863635	3.937786068431818
O	3.015625816659091	-7.246463849863637	0.3804834824318181
O	4.271067366659091	-3.855180259863636	-0.9038997775681819
O	4.303608836659091	1.3608864811363637	-5.033865171568182
O	1.277944116659091	3.508935120136364	-5.661592161568183
O	-2.306641913340909	3.9976140101363633	-4.6076596515681825
O	-5.273259263340909	5.012673870136363	-6.7585885815681825
O	-5.527866893340909	8.450893720136364	-5.132399351568182
O	-2.112604383340909	9.342261050136363	-6.403314091568182
O	-2.660363733340909	7.831578080136364	-9.769383171568181
O	-8.758175493340909	5.560409830136364	-3.270455271568182
O	-6.011341113340909	5.593093690136364	-0.6469774925681819
O	-6.454260223340909	1.8557865691363638	0.02585633643181809
O	-6.6662200533409095	0.7107137771363637	-3.533039971568182
O	-3.099390623340909	-0.1128659298636363	-4.599186821568182
O	-1.7722709433409092	-0.48691593986363624	-8.135112381568183
O	1.3060467666590911	-1.9399697498636364	-9.817381721568182
O	-3.2658797933409094	-4.844896919863636	-11.419412561568182
O	-5.18480340334091	-3.1399364698636365	-8.628331121568182
O	-5.627074893340909	-4.510470679863636	-5.114211491568182
O	-7.768640613340909	-3.9859743398636365	-2.0297821915681817
O	-5.842614013340909	-3.0254147898636363	1.107535988431818
O	-6.796224363340909	-3.1377364498636364	4.764599238431818
O	-9.493556903340908	-5.703433739863636	4.267720198431817
O	7.731182506659091	5.615947180136364	-9.431585671568183
