26

O	0.09313334939053752	28.827033512809013	7.989687919450793
O	-0.38555451699423826	31.85918322857503	9.193823723188299
O	-1.7926529329683192	27.963331888670318	9.620639747356158
O	-2.5392809374740457	27.565482749497427	10.737772288824633
O	-2.0210703216942534	26.33303508895442	11.395797951872577
O	-1.3662738043224907	25.782967610303142	10.207526767380791
O	-0.7590460611488183	26.47007222042395	9.091805433680372
O	-0.67267593707044	27.831097361689586	8.740601354153327
O	2.6472687168816718	29.95991338945343	7.7746797888258765
O	1.002536193600865	26.433990541101416	12.577828637924318
O	2.0482168223790236	29.495109358118643	8.926995216985457
O	2.314895241779535	28.337917297669016	9.62986507807008
O	0.9636044355478679	30.158240990011773	9.34329799076433
O	-0.10580252515291066	30.64227892994705	8.484213213787344
O	0.650998440508414	31.343423395014586	7.453103680338708
O	1.5938275654574834	30.51855575610479	7.062666921813676
O	1.1841829660266365	29.18306682674577	7.3608875558144575
O	0.5821714073233244	32.6775483369336	7.502320311187227
O	1.2028433904338283	32.04679054143659	8.686801377257897
O	-0.9430579106109576	31.054275514812527	10.198304192582967
O	-2.275383770436279	30.479086102094193	9.976241698739303
O	-0.39500471476218224	30.040710981051536	11.083861475216729
O	1.4622090081624086	27.551847803308327	10.43024289794928
O	2.184046297900289	26.182137624479637	10.126954201778092
O	1.4012499871292776	25.15799091909215	10.842702463334788
O	1.1038620403220687	27.48689779902688	11.75372268471942
