21

O	0.5469013869286852	26.875308506952397	10.413828667702177
O	-0.04376310444095699	29.598056933595327	9.844158572459541
O	5.570147241765404	24.486305290217047	8.941636955721435
O	1.176186827112677	30.701832250067266	8.187274441453805
O	5.912737232630026	23.715516294355652	7.680492495692276
O	1.3736389265355564	31.908592641476393	7.657812794398206
O	6.852098075695437	25.160157377647984	9.284649488387789
O	3.0210024516832923	29.575044381416596	7.285547377068824
O	0.25900924499229294	28.34466159762611	9.41547916800622
O	1.0966990815429516	28.368589506341813	8.286501569246902
O	1.661151459246656	29.53412882428899	7.779435424849026
O	0.1471453636360276	30.699244072960063	9.046769446634823
O	0.6246461588716761	32.8126897409882	8.336039269996046
O	-0.26977954924491154	32.02857812588522	9.030540265175457
O	3.848048966168925	28.551709189722107	7.86643867101834
O	4.273382558097349	27.601385482775257	7.019416178693057
O	4.958758780032078	26.47932741594115	7.3776599355945764
O	4.503952651550689	25.864518703284187	8.55612920791766
O	4.25301934297865	26.845419861692527	9.524726595137011
O	3.569374529601456	27.997935594098273	9.112938260874369
O	4.935541810850035	23.43117092788085	10.180883081784556
