25

O	2.634643284056736	30.548195140084516	9.026547837397443
O	-0.44991100798721884	33.302125975187415	8.481163602737837
O	2.376332833712284	30.2281852153047	5.905069922727381
O	1.7351211242793116	28.388840828811606	6.420421899515499
O	0.32953038446642724	27.0693470750082	10.233313584922806
O	3.1182825299158337	28.807155021492253	4.18056206919163
O	-1.963678749783244	28.82838278286492	10.722185640547675
O	-0.8089226930138087	30.624572168899974	9.42967578516288
O	0.22126377112150175	30.953955865110522	8.526791085694583
O	1.3545387792709078	30.153176179435704	8.449064813999232
O	1.1621922941098453	28.94699091104586	9.13460626673319
O	0.056575674712070256	28.3625697805381	9.660882234258647
O	-0.9139474753574641	29.291775351888884	9.911400722932285
O	0.46215625501120816	32.28711340481738	8.015277398574264
O	3.576270504851899	29.36048244699359	8.938138036423538
O	3.4968164463675695	28.984082352823357	7.563307358319937
O	3.4284548377458046	30.195096152196882	6.789141117628841
O	2.32440093380389	28.928621255725496	5.362352177258735
O	2.7828772911924213	27.88822386895696	7.2011421266566344
O	1.653395973916595	26.389061785283094	9.890910277276962
O	1.7492129663597482	25.090832210847367	10.600208098673509
O	1.450931244649768	32.71153772416195	7.410870000374329
O	2.679781834870119	24.32320691426147	9.836098980829338
O	-3.012136711095888	29.61663436016744	11.169451918363226
O	-2.4090553985120495	27.645969148552638	10.517614075566614
