70

O	3.287545595554166	2.7652940821583334	0.7982293512291669
O	-1.5357727244458337	1.1763615271583334	1.3457498712291671
O	-1.3064107964458338	-1.8409455378416666	-0.882490800770833
O	-1.0735588284458337	4.666631292158334	0.2552396492291669
O	-2.7504383244458337	3.7923512021583337	-0.504500050770833
O	3.616255445554166	0.03805446215833341	0.030267266229166978
O	-3.015370804445834	6.267892222158333	0.060131294229166965
O	1.1416163955541663	-0.3291175978416667	-0.336097364770833
O	-0.14912952444583366	0.18002926215833348	-0.15953222877083303
O	-0.41082887044583366	1.3636915496583333	0.5462823842291669
O	0.7311445255541663	2.0190000061583335	0.9751150912291671
O	1.972765855554166	1.6278590041583334	0.5849824742291669
O	2.242109725554166	0.34985929215833345	0.146339001229167
O	-1.3721858294458338	-0.45374448784166654	-0.672374722770833
O	-1.6652341844458336	2.2494810411583335	2.3921402712291666
O	-1.9637013544458335	3.2405150921583337	1.447298321229167
O	-1.0449539134458337	4.222415952158333	1.481877231229167
O	-2.3172432644458336	5.070995982158333	-0.16142997877083304
O	-2.992588904445834	3.057524422158333	0.563930583229167
O	-2.502291754445834	0.048788882158333324	-0.546856228770833
O	4.212492395554166	-0.6751484278416668	-0.9521315467708331
O	4.488308145554166	0.7038110481583334	0.6773990232291669
O	-0.029319185445833673	7.1533110021583335	-11.550974318770834
O	0.15302328155416633	10.251962592158334	-6.616947878770834
O	2.982313645554166	9.098312192158334	-4.352044348770833
O	1.8478938955541664	6.9385480721583335	-1.437565838770833
O	5.267292815554166	6.811010182158333	0.13482600822916696
O	8.709048535554167	5.168668232158334	-0.018217375770833044
O	12.249286945554168	-1.0288151878416667	-1.016234400770833
O	11.145121845554167	1.4538313985583333	-3.6570074087708333
O	8.592187665554167	4.182952372158334	-4.281850248770833
O	4.845624805554166	3.415213652158333	-4.048952568770833
O	2.157543715554166	5.144680072158334	-6.074185668770833
O	-1.5790277044458336	5.064862152158334	-6.205640378770833
O	-2.455811194445834	4.172841102158333	-9.711060998770833
O	-9.092102314445833	-0.6208827578416665	-10.894768718770834
O	-7.331356194445834	1.5766162461583333	-8.348935688770833
O	-4.186583434445834	-0.004451727841666697	-6.958086788770833
O	-0.9644035654458336	0.6051754521583333	-5.051981598770833
O	1.9580152055541662	0.3621238321583333	-7.493143658770833
O	5.370598665554167	-0.31281048784166665	-6.080059298770833
O	-2.723792584445834	-7.1959167278416665	1.355473101229167
O	-0.4676053190458337	-8.978457907841667	-4.433402478770833
O	0.2851776005541663	-8.809501507841667	-10.191740068770834
O	4.398344755554167	-4.989947877841667	-7.797604938770833
O	0.6951228555541663	-4.231286557841667	-8.063403628770832
O	-1.1718163324458337	-4.4674181278416665	-4.772502508770833
O	-4.735510274445834	-4.0649168278416665	-3.647001858770833
O	-5.317994404445834	-0.5496165978416667	-2.527297718770833
O	-6.935360184445834	3.960267902158334	2.0942091012291666
O	-5.108751804445834	4.4610306621583335	5.369179091229166
O	-2.2824554344458337	2.9720691621583333	7.423708561229167
O	-2.1849330744458335	2.4462375521583333	11.151005581229168
O	0.42521635155416637	5.170708252158334	11.689578181229166
O	-1.9024499544458338	7.7694692121583335	10.286409381229166
O	2.4801211155541663	0.9045816221583334	11.769244181229167
O	3.3013801855541662	2.2213834881583336	8.327254131229166
O	2.7438873255541663	-1.1348001478416665	6.664538531229167
O	-0.4078103504458337	-2.1358575878416666	8.566695281229167
O	-3.361079264445834	-1.0277249678416667	6.4962525412291665
O	-6.942367284445834	-0.4477649378416666	7.452891861229167
O	-10.285322584445833	-0.04569607784166663	5.705566281229167
O	-10.310401734445833	-4.818760277841667	8.692243801229166
O	-6.549447884445834	-4.471567347841667	9.099886311229167
O	-4.018344774445834	-6.035128957841667	6.733120961229167
O	-0.2957284674458337	-6.765548207841666	6.575629851229166
O	1.524326915554166	-4.927924827841667	3.663537591229167
O	4.9653690555541665	-5.685128057841667	2.2525906412291667
O	5.011366675554166	-9.410643007841667	3.394699911229167
O	9.531511445554168	-9.145289707841666	0.332069504229167
