68

O	-2.0636087432093024	-1.2323060000000003	-1.0463822862093022
O	-1.4681337122093026	-1.1788013900000003	0.2349932967906978
O	-0.12834532420930256	-1.4620213000000004	0.1219528677906978
O	0.16052807679069736	-1.62042959	-1.1369235962093023
O	-0.9728631438593025	-1.2700384100000002	-1.8913102962093022
O	-2.0284486132093025	-0.7793002500000002	1.4009979807906978
O	-1.2510952422093027	-0.5190105860000002	2.4352289237906977
O	0.01765656079069744	-0.9956289700000002	2.3678444037906976
O	0.6518454167906975	-1.1389980300000002	1.1458891157906979
O	2.019912216790697	-1.5262890700000002	1.3779038087906978
O	-1.5001869352093027	0.4963872691999998	3.4693301537906978
O	2.7943157867906976	-1.0896534400000002	2.4756409137906976
O	2.7846228967906974	-1.5597357900000004	3.898421073790698
O	3.8617107267906974	-2.25105062	4.501038923790698
O	4.0576809967906975	-2.4347409	5.854703823790698
O	3.2441485067906974	-1.83043954	6.767408983790697
O	2.1341281667906973	-1.2232985800000002	6.251947683790698
O	2.2252470967906977	-0.7607233800000003	4.924989083790698
O	-0.8819900118093026	0.3621756440999998	4.6737495737906976
O	-1.3771731462093024	0.9250228109999998	5.8133663437906975
O	-2.7273981232093023	1.2596466729999998	5.840754873790698
O	-3.2989191832093026	1.5213804399999997	4.629862113790698
O	-2.8369277232093024	0.8985417499999998	3.508724013790698
O	-3.2674965832093026	-0.27640867300000016	-1.2774067862093021
O	-2.4906449232093024	0.8313352649999999	-0.5959866062093022
O	1.8235317767906973	-11.08881161	5.577767043790698
O	-0.46509994320930254	-8.47651255	7.200410683790698
O	0.11293356679069744	-5.06754611	5.628376123790698
O	-2.0704415132093024	-3.1724653800000002	8.164971383790697
O	-5.414193563209302	-2.04145846	9.044020373790698
O	-7.3322353632093025	-5.56184568	7.215440933790698
O	-4.816148213209303	-5.520576370000001	4.336652273790698
O	-2.4802133432093028	-8.41645083	3.3678492937906976
O	0.4243201267906975	-8.759668640000001	0.9092654329906977
O	-0.6556521862093025	-11.70281151	-1.211979056209302
O	2.061222536790697	-9.865877110000001	-5.856387466209302
O	-0.7682505312093025	-7.654635240000001	-4.635677566209302
O	-2.2498587432093027	-5.890743390000001	-1.6245154062093023
O	-5.451753293209303	-7.68339145	-0.5826901362093022
O	-7.942349023209303	-5.66352759	1.4440557577906978
O	-3.1019696232093024	2.8902705699999998	-6.676994576209302
O	-7.688368073209303	-1.38356309	-8.132380036209302
O	-7.1699468832093025	-6.40396705	-4.8608163962093025
O	-4.762076443209303	-3.4902764200000003	-5.248413546209302
O	-1.4912945652093026	-3.06447453	-7.070835116209302
O	1.2749786667906975	-3.51074186	-4.425189196209303
O	6.6108167567906975	-1.40984065	-1.3778910462093021
O	6.380535336790698	1.7211349299999998	0.8497891425906978
O	4.251059716790698	4.4993849599999995	2.297916883790698
O	5.082610806790697	8.25043107	2.7450200937906977
O	4.898756226790697	8.02076858	6.544404193790697
O	7.726330596790698	5.5425616799999995	6.494886653790698
O	9.744237706790697	7.496273629999999	3.969754243790698
O	0.8824110267906975	9.78326158	4.937789883790698
O	-0.03647010220930258	6.15059726	5.6118679037906976
O	-2.1420593432093025	5.90659085	2.451169983790698
O	0.3025383967906974	7.6965800699999996	0.12365095279069782
O	2.4519544367906976	4.9327279	-1.4235849962093021
O	5.802615596790697	5.319506679999999	-3.1852271262093024
O	8.016028616790697	3.252637	-5.486517356209302
O	6.296897526790697	7.87969123	-8.229495436209302
O	3.790695356790697	8.44622813	-5.430145466209302
O	0.22066423679069747	7.19695389	-5.412434816209302
O	-3.062695973209302	7.83961289	-3.6330402062093023
O	-4.512519473209302	4.79211472	-1.9191792962093022
O	-7.960747963209303	4.00265934	-0.5504198662093023
O	-9.668187163209303	6.50129222	-2.962582886209302
O	13.087392306790697	-2.29209366	1.0213377597906979
