14

O	-2.349120116951656	30.449189056838993	10.376600055030343
O	0.32275838862758943	25.770904505999752	12.544110446417573
O	-1.3619540120164206	29.167020441362332	10.681061207163676
O	1.3966301007030606	31.539100107259056	7.161803785491918
O	1.7691742154581962	30.219053842712164	7.2916602071715
O	-1.4619411995380172	28.196821324273515	12.053885156267945
O	-0.3567424529011368	26.974783832916838	11.430512565457265
O	0.919643986357562	29.5866937517646	8.123647108854245
O	0.381867200911571	29.967605490113904	9.212535624425287
O	0.3426448826574221	27.828924728928296	10.66984108977088
O	-0.17178200664245122	31.176221795212747	8.886697703707798
O	-0.21095101453855514	28.87470208948911	10.018941260450324
O	0.47275401264698436	32.07107673887597	8.021088112742062
O	2.7060018422799894	29.612389422561993	6.432192487330984
