78

O	-5.553833485395853	3.030157272437499	1.300595436810417
O	-6.030662605395854	2.4230581624374987	2.482774206810417
O	-5.4430037453958535	1.106937609437499	2.937792736810417
O	-3.979067905395854	0.9079882964374989	2.955679006810417
O	-3.515835315395854	1.611805383437499	1.725550846810417
O	-4.574165955395854	2.103419342437499	0.9334026068104169
O	-3.327049885395854	-0.36093051756250116	2.971896316810417
O	-2.087141763395854	-0.501968357562501	2.376096366810417
O	-0.9281926003958539	-1.0714492875625012	3.068501946810417
O	0.10834371460414594	-0.8611275675625011	2.023618506810417
O	-0.40685387539585394	-0.2109495615625011	0.7794369268104169
O	-0.470041025395854	-1.6650465775625012	0.8947014468104169
O	-1.7006975793958539	-1.636514557562501	1.603250046810417
O	-0.433824915395854	0.3466957494374989	-0.4296597611895831
O	0.6666636846041458	-0.19230527356250104	-1.1647420051895832
O	-1.153238893395854	1.502605175437499	-1.0338534411895832
O	-2.444741702395854	1.2553893034374988	-1.695056103189583
O	-2.743276555395854	1.9634216824374988	-2.931619353189583
O	-1.902603858395854	1.4851216234374989	-4.130661333189583
O	-0.7753457913958539	0.702517082027499	-3.443737923189583
O	-0.4268939653958539	1.566096205437499	-2.2671611131895832
O	-0.008571305395854045	2.777327212437499	-2.786519783189583
O	0.1309364846041461	2.734663342437499	-4.193669333189583
O	0.702931694604146	-2.409415447562501	1.1980271868104169
O	-5.547031015395854	4.147252842437498	0.3413142528104169
O	-3.247864625395854	3.937552312437499	-0.0503489571895831
O	-5.124161855395854	2.976824742437499	-1.396948713189583
O	-5.499888945395854	5.053308342437499	-0.5530838161895831
O	-3.1058486953958537	0.29974738243749893	-1.088062944189583
O	-2.528089900395854	3.342653012437499	-2.9444384231895833
O	-11.650547715395854	-5.740555947562501	-0.3608877530895831
O	-10.522670745395853	-3.124153637562501	-2.846787453189583
O	-7.968751225395854	-0.9678921175625012	-1.205892312189583
O	-7.910386665395854	1.496766060437499	-4.139964663189583
O	-6.437213985395854	2.3685507824374987	-7.511827863189583
O	-0.827113465395854	1.944208932437499	-11.725741613189584
O	-3.4661940853958537	-0.6873084975625011	-11.193026813189585
O	-6.062374525395854	-1.8440005075625008	-8.723891233189583
O	-5.034064655395854	-2.888489977562501	-5.239662723189583
O	-6.748160935395854	-5.350741207562501	-2.922040383189583
O	-6.383555485395854	-6.286034907562501	0.7192506968104169
O	-5.888477415395854	-10.067512547562501	0.4832336088104168
O	-2.745860175395854	-10.375340847562502	5.193560316810417
O	-1.222498351395854	-8.377140097562501	2.363231546810417
O	-1.859688534395854	-5.697143547562501	-0.17229853318958313
O	-2.173099905395854	-7.197381887562501	-3.6837025631895832
O	-1.535436977394854	-4.851485497562501	-6.605031213189583
O	9.816021484604146	1.299938903437499	2.795429296810417
O	6.704069734604147	-0.864437307562501	2.378534006810417
O	7.638156184604146	-5.969778717562501	-1.489213913189583
O	6.648185044604146	-11.205890447562501	-3.771935683189583
O	2.8881335146041467	-7.325968867562501	-6.654507933189583
O	2.403124624604146	-8.5245871175625	-3.072554593189583
O	3.135343734604146	-5.8627171975625005	-0.43282679618958314
O	3.2427195846041466	-5.849146337562501	3.3379142968104167
O	-0.1288218353958539	-4.454746077562501	4.482904396810417
O	-4.058916675395854	-0.05714390456250107	7.605428696810417
O	-3.8752386753958543	3.620018052437499	6.933822316810417
O	-2.247374556395854	6.255915652437499	4.770061646810417
O	-1.203886318395854	9.7785118024375	5.536671876810417
O	-4.041639945395854	11.3063576524375	3.471217636810417
O	-6.590382465395853	9.7164720524375	5.738226326810417
O	-0.013369675395853875	11.4435819524375	1.021683626810417
O	-1.845003545395854	8.552815292437499	-0.5369729431895831
O	1.348772734604146	6.505617372437499	-0.8367079551895831
O	2.7701926546041467	7.228751382437499	2.6213709768104168
O	1.5352158046041462	4.510565572437499	4.994082326810417
O	1.3450150246041461	4.466806122437498	8.742634746810417
O	0.838400404604146	1.913478392437499	11.468572786810416
O	6.032227014604146	4.188193782437499	11.877566686810416
O	5.514619024604146	5.676788622437499	8.419713936810416
O	6.548733154604147	4.006026432437499	5.146512976810417
O	7.029502774604147	4.825181342437499	1.462398276810417
O	4.795133124604146	2.855499862437499	-0.9338295081895831
O	5.097991994604146	2.282687402437499	-4.680595933189583
O	8.765618084604146	2.970583572437499	-4.763832763189583
O	10.625991884604145	3.015539972437499	-8.136098443189583
O	7.717560954604146	1.340740233437499	-9.924191423189583
