25

O	1.413669695921486	26.575651985942912	10.365522355459234
O	-0.6145765619643924	30.890632760101276	8.224209106876422
O	0.8084888936436309	31.09376376551732	8.445233085810944
O	0.8056589256231066	30.603646787120727	9.64129526002478
O	-0.06472462262093981	30.3916908986503	10.67363339317967
O	-0.7237147621825744	29.264270911573362	10.507754922450276
O	-0.49057622599407824	28.50571837265824	9.376082754595584
O	-1.1195308156728008	27.288138282419805	9.944478581686754
O	-0.9414689539886876	29.544092803837984	8.606787894303613
O	-1.0702936468017268	31.12186421089657	11.432967737598034
O	-2.4611581105370854	30.688661123869768	11.33943647217803
O	-2.658606351539541	29.50610618549566	11.958430322094028
O	-1.6511146079594905	28.688969273020973	11.457712305516553
O	-1.2322399011025356	32.1967238666992	8.693077966556556
O	-2.6130960024768313	32.648291913017566	9.097116922902368
O	-0.5047735088779732	33.08282503438249	8.012746843632373
O	0.7052157816653378	32.36726225758642	7.928807269509344
O	-4.043600058661836	29.10384247815348	11.986888340209845
O	-4.874495405295848	29.37110696578029	10.959383798364096
O	-4.293168564617677	28.17293223795223	12.737488254403043
O	-2.4054662646642546	27.184906102701024	10.325794342355824
O	-2.8167831329916333	26.142199040370024	11.148299902256861
O	-2.0851193103155774	25.8593037956195	12.26033359400056
O	-0.7456482909377706	26.21044701991639	12.132725591660604
O	-0.2701956890232473	26.703389674194995	10.912319656942778
