20

O	-3.4996520731655103	32.19074870114909	10.038188466231892
O	-2.8585288193026677	29.73385860427826	11.529900414736996
O	0.37915297269220155	25.880411069518004	11.240447375477222
O	-0.8078105831923204	26.58285888717673	11.29232252817772
O	1.0800387503264774	25.981154390220446	9.88501137616424
O	0.374236996093024	26.98895586195969	9.199418236791086
O	2.4460670994113203	26.494246852607496	10.171133550301983
O	3.5432874753360664	25.745456494927154	9.826099058325186
O	2.45412231049004	27.907348415852884	9.703650455052497
O	3.5733590172123266	27.989725796280766	8.900617144807914
O	1.3354496048267679	27.822459414043657	8.704138481850892
O	1.6099024605888943	29.983599579571557	7.616768975202216
O	1.0178292874078887	29.18811073914305	8.485752708795367
O	-0.9578270728773124	31.92628921679422	8.756075869181888
O	1.3367994137259953	31.286212083172188	7.90162235739583
O	-1.856487281608507	31.645922362696595	9.747675941686754
O	-1.8613537517077736	30.35950077499698	10.160156345897349
O	-0.6832920577037933	29.600519457351183	10.110202605431544
O	0.3753172406831343	29.964581395111566	9.261260711687811
O	0.18064721541740264	31.176958706278864	8.625294752299501
