65

O	0.8430567490431818	1.4033946086295455	0.9147380245000002
O	0.36937873904318186	-1.9043593743704545	-1.8315486184999998
O	-3.775530780956818	1.6132520827295453	-2.1913070685
O	-1.765371532956818	0.17605761562954547	-1.4894650484999998
O	-0.522807038956818	0.26495611562954546	-0.8533294974999999
O	-0.3377498249568181	1.1191319606295453	0.1998597076000001
O	-1.4157571769568182	1.9487955186295454	0.49777202050000013
O	-2.413926300956818	2.2272908426295452	-0.3949179334999999
O	-2.738863150956818	1.1946175246295454	-1.2843388985
O	0.561736839043182	-0.6988796043704548	-1.0782410884999998
O	0.8268359290431818	2.0028976666295453	2.2204547415
O	0.512496549043182	3.4672607356295453	2.2573265215
O	1.5106033290431822	4.3245240856295455	2.7324475215
O	1.1843261390431818	5.488016365629545	3.4286669815
O	-0.08108567795681809	5.6880881256295455	3.9072141615000002
O	-1.0946809679568181	5.091011075629545	3.1656112615
O	-0.770930765376818	3.9134555556295454	2.5595272515
O	1.6702596890431822	-0.5955252643704547	-0.5193269994999998
O	-0.3570025829568181	6.892958745629546	4.5234025415
O	-3.849179330956818	0.8414288606295454	-3.3494324184999997
O	-4.9133305009568184	1.9444183606295453	-1.8610849184999998
O	5.805121069043182	9.370369565629545	-8.2487838685
O	3.645009279043182	10.905837675629545	-2.9586556285
O	-0.07738844295681813	10.142085085629546	-2.8865882385
O	-0.7606614868568181	7.103029865629545	-0.7782084894999999
O	-4.505908810956818	7.455107955629545	-0.9394045484999998
O	-7.595934590956818	6.904742205629545	-3.0603204085
O	-5.579274800956818	7.129197835629546	-6.9706325585
O	-2.510604890956818	5.399390775629545	-5.5794286285
O	1.0149127890431817	6.691628185629545	-5.3849376585
O	4.250753269043182	5.601338685629545	-3.8148302885
O	6.615043799043182	5.463675935629546	-6.780874048499999
O	12.363867799043181	-0.5136111943704544	-6.7202265384999995
O	9.859315499043182	1.3624453276295454	-4.5442023485
O	6.276569209043181	0.37548474562954537	-5.2958357385
O	2.658484369043182	1.3467797476295453	-4.9038384385
O	1.249681219043182	2.5380708456295453	-8.2311008785
O	-2.510874210956818	2.439854155629545	-8.709117578499999
O	0.16817171604318193	-7.8874131643704555	-1.3873373084999998
O	0.850175049043182	-7.6038392043704555	-7.8309830785
O	2.063631129043182	-1.9593013643704547	-9.7262569085
O	2.093278739043182	-3.497356894370455	-6.2614278585
O	4.634770479043182	-4.345247384370454	-3.6632684885
O	5.008421939043181	-1.4552973543704546	-1.2333395284999997
O	4.624283949043182	1.3512771226295452	4.7658547615
O	1.4910519190431821	1.2674971726295454	6.8777775215000005
O	-2.085096570956818	0.04441617562954536	6.9275116715000005
O	-4.033137330956818	-1.4184859943704544	9.8733292315
O	-6.281125020956819	1.6452656399295453	10.1572530515
O	-3.316082580956818	3.8512905956295453	10.8422166515
O	-8.563628830956818	-1.8396701343704547	7.8739243515
O	-7.473908690956819	0.4879383256295453	5.1125082215
O	-6.551810340956818	-2.3625554943704543	2.7445634315
O	-4.813102210956818	-4.563593234370455	5.3450717315
O	-1.108556998956818	-3.6953912043704547	5.2340682515
O	1.591660999043182	-4.317979174370454	7.7958328315
O	5.376034909043182	-4.302011944370455	7.8900082615
O	3.464465029043182	-9.564449894370455	8.7868297015
O	0.05416046604318192	-8.377921694370455	7.6050035215000005
O	-1.207625056956818	-8.634004494370455	4.0271049315
O	-4.456051690956818	-8.415769894370454	2.0706704215
O	-4.5445406909568185	-5.668222894370454	-0.5503022334999998
O	-6.883315510956819	-5.000781154370455	-3.5089898985
O	-7.765559030956818	-8.675385894370455	-3.8498736485
O	7.465323169043181	5.221566035629545	9.8892362915
