70

O	-2.8963275123255814	-0.49155893799999983	-2.771072873488372
O	0.3127786576744185	0.19134810600000007	-2.655192603488372
O	-2.0560548293255816	0.5776959800000001	-3.257267113488372
O	-6.645981042325582	1.329910086	2.1270820565116275
O	-4.143979352325582	-0.6628236679999999	-3.487502983488372
O	0.8578516076744185	1.1413298150000002	-0.6087155290883721
O	-7.096028932325581	0.33746871200000006	3.136382446511628
O	-4.145669612325582	-1.792989488	-4.448751273488372
O	1.8421835076744184	1.365120294	0.19518695051162782
O	-7.457243682325581	1.077826514	0.9074057065116278
O	-2.970355912325582	-1.9832005179999999	-5.339064473488372
O	2.594163007674419	0.47292340400000005	-1.6287533734883723
O	-1.7555735433255815	-1.363672218	-4.731230783488372
O	-0.8702897923255815	1.648083996	1.0226696565116278
O	-1.9438315053255815	-1.619906738	-3.2320262734883722
O	-7.103027562325581	2.851185072	2.7346770965116276
O	-0.9230887833255815	0.6099006150000001	-2.421481693488372
O	-1.3023813303255816	0.728539306	-1.1119541944883722
O	-0.42046590232558145	1.3168060480000001	-0.25964193648837214
O	1.2677383476744186	0.5680261660000001	-1.7615910934883723
O	2.9747087776744183	1.178023703	-0.5337998386883721
O	-2.2584928503255814	1.471653915	1.3381388565116277
O	-3.0689767723255814	0.8624057125000001	0.4210758185116278
O	-4.415473692325581	0.813656463	0.6592692165116277
O	-4.926030062325582	1.3515348390000002	1.8384088565116277
O	-4.140349402325581	2.3293536020000003	2.3743088165116277
O	-2.8409624623255816	2.560539252	1.9180638465116275
O	-5.582172822325582	11.001372832000001	-2.334451683488372
O	-6.345998762325582	7.9531530319999995	-4.444107513488372
O	-5.255669532325582	4.789067542	-2.637686603488372
O	-6.779515182325582	2.5521999920000003	-5.236040973488372
O	-6.488556842325581	1.081007046	-8.673979703488373
O	-3.8580996123255815	4.116310092	-10.349004293488372
O	-2.1035790273255817	4.5740659919999995	-7.030112963488372
O	-1.9890466013255814	7.775352952	-5.000864813488372
O	-0.7954425963255815	8.617613852	-1.5281204964883721
O	1.6635908376744184	11.457947432000001	-2.267363603488372
O	4.877660087674418	10.333160922000001	2.2625211765116275
O	4.814315567674418	7.624488641999999	-0.3884769244883721
O	2.5567628376744183	5.535080892	-2.5723412234883725
O	2.8013613776744184	6.691976842000001	-6.169335843488372
O	1.7452946476744184	4.210728972	-8.829171873488372
O	7.174091177674418	-3.143855228	0.3548088775116278
O	10.368484027674418	0.23358211200000012	-4.172601833488372
O	7.365866287674418	5.215353481999999	-5.912482353488372
O	6.7908898876744175	2.839373052	-3.014252373488372
O	7.228209987674418	3.0867870120000003	0.7657541765116279
O	3.7089210876744185	3.920941122	2.1634077365116275
O	-1.7523079793255816	2.850963482	5.942578396511628
O	-3.7820443523255816	-0.23756117799999998	5.596395776511629
O	-4.164356052325582	-3.371135318	3.589647076511628
O	-5.2173064023255815	-6.801263538000001	4.883315436511628
O	-8.575675142325581	-6.6638608779999995	3.0901154565116276
O	-9.577685242325582	-3.678614298	5.104987456511628
O	1.1423834276744187	-12.564161768	9.492087156511628
O	-5.532208022325582	-9.357870367999999	0.6588615765116278
O	-5.511323792325582	-6.016276698	-1.190117201488372
O	-1.7592515623255816	-6.2453991779999996	-1.805687023488372
O	-0.7365749573255815	-7.323387448	1.6466725065116279
O	-0.023090232325581495	-4.167918038	3.6468443665116275
O	0.1678599076744185	-3.8381410380000003	7.416907246511628
O	1.4797453676744183	-1.2893038479999999	9.896509256511628
O	4.450803927674418	-6.118551668	10.395472456511628
O	2.8666336776744186	-7.242179647999999	7.127725626511628
O	4.410610027674419	-6.767452938	3.685407736511628
O	4.054114237674419	-8.017975247999999	0.11461337751162781
O	3.1888335976744187	-5.312962418	-2.437001893488372
O	3.255328637674418	-5.271248247999999	-6.2391205234883715
O	6.004834267674418	-7.962001008	-6.374125913488371
O	-6.2866901723255815	4.930592702	10.771814756511628
