23

O	-0.012148045060814926	30.275096008555543	9.780628478043514
O	0.6786268388107717	29.0150439047339	9.287659850559818
O	-1.0017916632125052	29.95328006561904	10.654078967708584
O	-0.28145220827029055	31.383217722394033	9.0624818191884
O	-0.2866813017549929	28.065102026096216	9.710195544366957
O	1.7346127043941886	28.353405866478827	10.080042860511425
O	-0.7894621848764124	28.55741053478859	10.896779201745947
O	-2.0300827239076598	30.786302512509764	10.87838845102936
O	-1.3814174982700838	32.18039015928754	9.187095045000232
O	0.5990166949867991	31.6977672894371	7.975094977124382
O	0.24204237138199372	26.72938194132949	9.347845040135912
O	1.558417828082304	26.860781724803985	10.032323571611505
O	-1.0671172888768323	28.03007643736541	11.928156465355123
O	-2.4205610809038287	31.415780320430304	9.73375748331433
O	1.6248319585175859	30.768480951586767	7.770066516386185
O	2.1971778601529195	30.56382978083944	6.526554333052227
O	2.496565129824859	30.96455699884128	8.622165434251384
O	2.9610521539153494	29.38560297458765	6.570161620459678
O	2.6441202115142937	28.07864052095618	6.8707395620465475
O	4.1876542598207624	29.52703934890618	6.168044999599886
O	3.5558373141630097	27.14788259992502	7.304623931774196
O	5.014061182495174	28.444438185540623	6.010919802282649
O	4.873423902174139	27.4875856182219	7.0170131242173275
