24

O	0.17946699563571566	32.11781625672213	9.209122187126516
O	2.4645511727272202	30.29371742796744	6.282264807976618
O	-0.939574663874301	30.212119495537394	7.612965728705156
O	-2.3224348143250064	29.718037761618298	11.006479180813532
O	1.051092893526468	31.008954019579853	9.36522360609906
O	-0.5844230781106801	28.81010344934604	9.39365485189672
O	3.122619556103165	26.681975371450754	9.263186057177569
O	1.9539958577291703	30.49636027908603	8.48879726234003
O	-0.3343617709697915	27.57735060691194	11.169949806963622
O	2.0014839461997105	31.065130118536565	7.2820551949230055
O	1.3079180376092712	32.30243634640751	7.133314202311763
O	0.1740816720553226	32.527479606091	7.9667655300900995
O	3.134014502282516	29.877503249355783	8.698698063894618
O	4.126367978046811	29.691510834651865	7.739348306721622
O	3.757286682935181	29.88407303864118	6.4349954865131025
O	-1.187892900774056	32.038921285657096	9.863929046723845
O	-1.7001950015213017	30.869828229052967	9.751795601029805
O	-0.8438866655718285	30.03858126721932	8.817535865582073
O	-0.793257176295008	28.790398786840026	10.644934120347886
O	0.8459556217038304	26.908038216599717	10.746608747689393
O	1.6357320925430276	27.464379417249003	9.582378120500573
O	2.9509809805848337	26.673096693635685	7.593869351508798
O	1.8244879266223513	27.337889707767005	7.368821165114105
O	1.020332038898339	27.157217383411258	8.398489243979945
