24

O	-1.6673773011828508	31.63894486692943	9.805649045784062
O	3.135851075396449	28.544494864926993	8.247395915846406
O	2.2050482018453414	31.819457899039527	6.871301154648617
O	2.282283217795495	30.594409367412972	7.549675796064243
O	2.9353026248638665	27.09497505728995	8.22842367980496
O	-2.7429064436307957	31.194780741998894	10.55621163956658
O	-2.1115191482191937	30.352906406389238	11.506041904487518
O	2.1740476694119897	26.336705307111718	9.276605300866313
O	0.9824295024601435	30.184400383563265	7.9003728949243595
O	0.4100165457352616	31.199298500629983	8.725818778082024
O	1.033286955807195	27.192004825217875	9.914216272375887
O	-0.4118775964229191	30.096132968456345	11.145057426863264
O	0.17771614893883436	32.53080969777034	8.08635364019802
O	-0.7162389620947391	30.59172870159044	9.406091493296552
O	2.1905941354834604	28.02466014313484	10.495742515470447
O	1.5225802120840313	32.87033696869695	7.547418473935489
O	-1.2933586936095072	33.067321610686044	9.852453267838754
O	2.298470323411698	29.028598257088166	9.386599170038753
O	-3.0005145836151215	29.196438034038316	11.714475604740677
O	0.3671554737111564	26.726915727763668	11.130994238553303
O	2.983555120854583	29.42526264021254	7.1353026232610395
O	0.6555464674748666	25.432605183566668	11.289776849966195
O	-0.9593141555312985	26.904088014851098	10.926842913255065
O	0.6892278598526347	27.340320887298475	12.328418040483967
