89

O	0.9450842599152538	3.0226479536661013	0.681997479025424
O	-2.6131578600847463	2.468434643666101	2.667003329025424
O	1.603155489915254	0.49226788266610144	-1.0283294509745762
O	2.594670179915254	1.4250648176661014	-1.357108610974576
O	0.3407041499152539	0.6863380216661015	-1.8120370739745761
O	3.538779209915254	1.0745570118661014	-0.5308128489745761
O	0.09545257491525383	1.9849531116661014	-2.1120304569745763
O	3.520657519915254	-0.23102562633389856	-0.8369900419745762
O	-1.0890801260847462	2.4060242836661017	-2.600273490974576
O	2.3902035399152535	-0.5681374863338986	-1.3897302489745762
O	-2.137247150084746	1.5561453246661014	-2.650790360974576
O	-0.7237270180847462	0.3489451276661014	1.0777447290254238
O	-1.8381657960847462	0.24958800866610142	-2.4519017109745764
O	-1.717140053084746	1.9514152156661013	0.32577729902542396
O	-0.5924213980847461	-0.1864587463338987	-2.077380788974576
O	-0.6353835870847462	-1.4313399163338985	-1.4818806139745762
O	0.33407507991525387	-2.0365983263338987	-0.8033295269745762
O	-0.009384620084746165	-1.9990303163338985	0.573830019025424
O	-1.348941989084746	-1.7338321063338986	0.902430079025424
O	-1.7255917740847462	-0.5292233763338987	1.6136413590254237
O	-2.176450800084746	-2.2647101063338986	0.01362874902542388
O	-1.7699728880847463	-2.1405519463338987	-1.328314578474576
O	-0.15366349208474617	1.4311373106661014	1.6059435590254239
O	1.1781964299152536	1.9046460936661014	1.458349069025424
O	-1.3312307630847462	2.4345823136661013	1.531658859025424
O	-1.918805620084746	0.6421602396661014	0.583303179025424
O	-3.3203749000847465	0.8540681396661014	1.0380337290254238
O	-4.155935650084746	0.5746324766661014	-0.1758903109745762
O	-4.702362540084746	-0.7346617563338986	-0.4704985799745761
O	-4.933456360084746	-1.1938693563338987	-1.851567791974576
O	-10.938595360084745	6.882496623666102	-5.756900280974576
O	-2.689292480084746	12.228455993666103	2.428884999025424
O	-1.4554823650847462	12.5040401936661	-1.202773427974576
O	1.9675795999152539	10.781671513666101	-1.248009284474576
O	5.962897719915254	9.7165506536661	-3.859906790974576
O	1.303386059915254	6.8861902536661015	-5.792503030974576
O	-1.296718599084746	8.329341393666102	-8.199951990974576
O	-0.6474015950847462	3.2227759336661013	-10.656637550974576
O	-4.079490350084746	1.6210230726661012	-10.241152020974576
O	-5.078273680084746	1.9217658996661013	-6.589023410974576
O	-4.767976930084746	5.699989973666101	-6.1771280309745755
O	-5.185224070084746	6.863296413666101	-9.618056510974576
O	-8.265894350084746	8.478434933666101	-11.109679960974576
O	8.609947379915255	-8.4683484563339	1.823788829025424
O	10.313637339915253	-6.568421246333899	4.636863189025424
O	9.538222739915254	-3.261230886333899	2.8543103790254243
O	5.902430709915254	-4.328544976333899	2.026879049025424
O	5.310067399915254	-5.465694966333898	5.641594979025424
O	6.703532649915254	-2.151676896333899	6.931124839025424
O	4.550423009915254	0.025205743666101288	4.698850359025424
O	1.5209544099152537	-2.1507761963338985	5.386591439025424
O	1.918825859915254	-1.9766055463338987	9.102163319025424
O	2.357646029915254	1.7857876976661013	8.818482819025425
O	-0.5350554840847461	2.3561155436661014	6.589597919025424
O	-2.9416682600847466	0.25547989766610135	8.666336449025424
O	-2.065305560084746	1.5656296266661014	12.136581119025424
O	-5.091031580084746	2.272434243666101	14.374792119025424
O	-2.137810120084746	7.400322643666102	14.785962619025423
O	6.582195489915254	4.925033593666102	3.6704811990254242
O	8.111816259915255	7.2517573236661015	1.0873449890254239
O	10.515349039915254	1.9731237776661015	1.1346156090254238
O	8.249509369915254	2.7665267436661014	-1.911010954974576
O	11.251652439915254	4.424466553666101	-3.5595941609745765
O	13.275946539915253	1.3026044156661014	-2.8614747209745763
O	10.601075339915255	-0.9889471263338985	-4.324610020974576
O	10.127404139915255	1.0954352933661013	-7.480548420974576
O	3.925855239915254	2.4635994636661014	-9.687447080974575
O	1.4625984199152537	-0.1277739663338986	-11.101947270974575
O	3.888135059915254	-2.8896918163338987	-10.239466720974576
O	4.242093899915254	-1.5072446963338986	-6.719947760974576
O	0.42096625991525394	-1.4798843163338988	-6.463302580974576
O	0.018951321915253838	-5.037823226333899	-7.466833970974576
O	2.603211949915254	-6.114777686333898	-4.876508130974576
O	1.1156841499152539	-4.258649286333899	-2.162577289974576
O	-2.555540740084746	-5.0084700463338985	-2.978891700974576
O	-1.9204483600847462	-8.545609986333897	-3.818227740974576
O	0.2913799599152538	-9.566341206333899	-1.077744559974576
O	-1.0873650430847461	-8.747277726333898	2.263758929025424
O	-4.775150120084747	-9.195050006333897	1.528524909025424
O	-4.222155070084746	-12.7355501063339	0.23440808902542387
O	-1.7803584910847463	-13.4725612063339	2.9498065990254245
O	-11.724034460084747	-4.700330616333899	4.475968079025424
O	-14.878827860084746	-3.551449546333899	6.388273149025424
O	-15.039065960084747	-0.28580921633389855	4.4317290290254245
O	-13.224745260084745	-1.3819024163338987	1.2545317490254237
O	-11.047790760084746	1.4975108086661013	0.11043643902542377
O	-6.832593670084746	0.7220734906661014	10.993330819025424
O	-8.032646160084747	-0.7190796263338985	7.716734859025424
O	-8.347433050084746	-4.533616716333898	8.039106509025425
