43

O	7.36521684413387	25.359706362465744	-5.180658651250877
O	2.0922543453287554	24.98829163882811	-1.0388705468135089
O	5.356130815629655	23.751359767375416	3.0978489378865532
O	9.508983032100407	23.673615498218737	-2.93926501734746
O	6.3859529863223585	25.34785108058869	-2.0846922745033645
O	7.589430089488442	23.975180997516304	-5.688442861762619
O	0.9182189374651433	24.86063641822159	-0.16703077615261286
O	4.201592261263174	24.325581639981998	3.91594668501717
O	10.258679548563236	24.58831691170631	-3.8362937217044832
O	5.2741694070931215	25.533240720697343	-0.39742488834217227
O	8.293568481278799	24.276243272873636	-6.964724466835332
O	10.834615080274826	23.648952247983228	-4.809895370004088
O	7.540238747829992	23.886372175152097	-0.7773993783619525
O	6.23421665859175	23.27782791813663	-2.578119392363152
O	5.926025551971645	27.483948903593312	-1.5224637784382922
O	4.112353454248916	23.645042872180195	-1.1619824774619743
O	7.31595262817851	25.42022478416656	0.5832618730310959
O	6.4653793541553	27.959062141834952	-4.035751501006735
O	3.5819669422505664	26.927065202818365	-2.430532817198924
O	3.2633797578239174	24.123361527921535	1.7606898156738835
O	8.947279850796596	26.55621472885988	-2.521172763061756
O	5.856291661827862	24.51423252701058	-3.1814254895042398
O	5.107162894166835	26.885919941076743	-0.37058391617858444
O	4.678891703866466	23.31592373286698	0.10274926161491749
O	8.146180440807852	25.116759354281665	-0.5312492213268689
O	8.859231611162578	23.135956918830097	-7.326051979136507
O	10.397104456461683	22.366259467577297	-4.789065750484644
O	6.442782681043604	25.31118864015697	-4.1631465896499895
O	3.801067431080149	26.86036693197088	-0.9872501624867246
O	4.406135964950605	24.409705122471383	1.0329374213534026
O	8.41219523470581	25.469877287515416	-1.8125567915531968
O	8.832207056932837	25.501858651432375	-7.12173154261013
O	11.291720029580112	24.262128516602107	-5.897090290769404
O	5.994481897884092	26.618143268182845	-3.7226686963311213
O	3.2674322131282065	25.5967772931666	-0.4705572870951107
O	5.524771577387559	24.674698304617735	1.9276554422509717
O	8.269512552799092	24.338938982747266	-2.7252287741894623
O	5.704966450211504	26.453785103402982	-2.3938504156309195
O	4.349071232147236	24.981911477677382	-1.4108076850490725
O	6.502789955802759	24.264592579141205	0.9179769703366947
O	7.4532991210760136	23.361859819622516	-1.9540729700874557
O	6.0136140676493195	23.441092034500674	-0.13259771763687023
O	6.146419013307543	24.974772047720215	-0.961448418108126
