88

O	-2.20412447279365	1.4482943524873018	0.7899149286507936
O	-6.40792924279365	-0.22693579351269833	-0.4495016863492063
O	-4.51341361279365	0.8946923224873017	0.5959173486507936
O	-5.53147180279365	-0.015865034512698384	0.7402716286507938
O	-0.3287212727936504	-1.2169829095126983	0.28122992165079364
O	-3.5269728427936506	0.5244722324873017	2.4610417386507937
O	-3.2364699727936506	-0.9674892495126983	-1.3151972463492063
O	-3.3603102127936504	0.8693213944873016	1.3035589386507938
O	-1.7729843207936504	2.6820324304873013	-1.9889607813492063
O	-1.4177339147936503	1.9793340504873016	2.7021331786507936
O	-1.1784276387936503	1.3930906804873016	1.5886796786507935
O	-1.6533315794936503	-0.5277803295126984	-1.3202721293492063
O	-1.5941616740936504	-1.2616658395126983	2.0941363586507933
O	0.1070246372063497	1.0097327184873017	1.0764137086507937
O	1.1813125672063496	1.1900734614873016	1.997314008650794
O	1.6202055672063498	0.14452759148730165	2.8674953786507933
O	0.3991164772063498	-0.20046342251269833	0.7101126486507936
O	-1.5587750125936504	-1.2483972195126984	0.8852568886507937
O	-2.2291055677936504	-1.0359944595126984	-0.2760943723492063
O	-3.20907194279365	0.5059285184873017	-2.134240591349206
O	-3.8419193327936503	1.7350103374873016	-2.2903164913492065
O	-2.7529747427936506	2.4807323204873017	-2.8466779213492064
O	-0.9832679967936503	1.6152943634873016	-1.8775075713492064
O	-1.9278173687936504	0.6736516356873017	-1.5730411563492064
O	0.4720910172063495	-1.0315077695126984	2.3152409986507934
O	4.601120257206349	3.155610830487302	-10.928680571349206
O	5.330280757206349	-0.5684171795126984	-11.299987271349206
O	7.59651137720635	-1.8879843295126983	-8.532781251349206
O	4.95388312720635	-4.438321039512699	-7.292328011349206
O	5.24146243720635	-7.979910509512697	-5.6982759113492065
O	7.89559787720635	-6.435455059512698	-3.303513711349206
O	9.603759197206351	-3.160745729512698	-2.262384121349206
O	8.530611297206349	-2.5932606995126983	1.3438505886507937
O	11.648923897206348	-1.7163227895126982	3.2962262986507938
O	9.05868569720635	0.14847964548730164	5.378319978650794
O	10.040632397206348	2.358813920487302	2.419624708650794
O	6.57606257720635	3.1323424504873016	1.1133216886507937
O	8.19067339720635	4.861553020487301	-1.7919718713492063
O	8.03089890720635	8.258635350487301	-0.10370295534920637
O	4.317167057206349	8.790792840487303	-0.44850045934920635
O	2.25899295720635	9.107315300487302	-3.596502911349206
O	1.1029999372063495	5.543086480487302	-4.442203181349206
O	4.33321291720635	3.759253890487302	-4.509480921349207
O	6.71857395720635	6.677486450487301	-5.452647831349206
O	8.326573077206351	7.639637850487302	-8.760415491349207
O	-4.7873660927936506	-1.7535414995126986	10.954009428650794
O	-6.064728092793651	-0.5349296195126982	7.590633288650794
O	-8.45082316279365	-3.552883759512698	7.268515688650794
O	-5.59529656279365	-5.895386739512698	8.081449188650794
O	-3.14345530279365	-4.476553749512698	5.553937238650794
O	-5.81330141279365	-4.324426319512698	2.8745808086507934
O	-6.87560383279365	-7.917145199512698	3.447368858650794
O	-3.2110290227936504	-8.934062699512697	3.2527825886507937
O	-2.3057241227936505	-6.950262879512698	0.11642528765079363
O	-5.35557515279365	-8.122640389512698	-1.6685521213492063
O	-5.18326440279365	-11.850064429512697	-0.9026527173492063
O	0.8512865072063498	-14.242221729512698	-4.520401891349207
O	-0.7180571207936504	-16.3324802295127	-1.7567641513492063
O	0.45223249720634984	-14.711821029512699	1.4030983586507937
O	2.0619456372063496	-5.226065249512699	6.832001918650794
O	5.36367036720635	-3.694467039512698	8.049895878650794
O	4.28931698720635	-3.307559429512698	11.690870828650795
O	0.7523394872063496	-1.9113475495126981	11.003922428650794
O	2.22293989720635	0.7139164707873017	8.648390588650793
O	4.769382777206349	1.6103238924873016	11.411275128650795
O	2.8945773672063497	6.518820980487302	10.678595428650794
O	3.7522394472063496	10.637532960487302	7.118795998650794
O	3.9638939472063495	8.194645740487301	4.208639348650794
O	1.6417136572063495	10.353020020487302	2.0448718886507935
O	-0.7910560297936503	10.583981490487302	4.917129558650794
O	-0.6991578337936503	6.7690626104873015	5.1674210686507935
O	-1.3138053567936503	6.289204050487301	1.4050923586507935
O	-4.31967221279365	8.801171200487302	1.5436075386507937
O	-5.90036947279365	6.768206530487301	4.354373678650794
O	-5.25340430279365	3.5725499504873017	2.658591918650794
O	-6.17908824279365	4.455722760487301	-0.7847632113492063
O	-9.145638982793649	6.563044160487301	0.24877829665079365
O	-10.83754724279365	4.395510200487301	2.731628978650794
O	-11.37308520279365	0.9435562514873017	1.3280952986507937
O	-12.000360302793652	1.8116735604873015	-2.3467313313492064
O	-14.71565230279365	4.231820310487302	-1.3444798753492062
O	-9.704610152793649	-2.3663567895126985	-9.770441751349207
O	-6.09842575279365	-3.8069790695126984	-13.719850271349205
O	-5.73646540279365	-0.4846274695126984	-11.860943771349206
O	-2.3883656667936504	-0.49959731951269837	-10.077229171349206
O	0.6369911972063496	-1.4501981895126983	-12.262934271349206
O	2.50549194720635	1.2325341914873016	-14.176352071349205
O	-6.553716082793651	-6.753269649512699	-6.520649051349206
