43

O	35.434824705612805	-16.606387981692066	25.57231618077882
O	35.648492121776684	-20.71507489409394	27.46211294582203
O	35.0681017680626	-22.171001565450094	24.66613243709694
O	33.592976219486076	-16.60014334674755	22.731821845920408
O	34.604426880215705	-18.905185913297935	24.437693088027327
O	34.387219358676795	-15.788193242692888	26.084188156558103
O	36.344423009525165	-20.273405412900896	28.671209784867905
O	35.98507017365834	-21.688990774924655	23.701576774526114
O	32.746003390384004	-15.661949580900398	23.466554002296146
O	32.97651646588556	-19.0166654383258	26.01253629232046
O	35.21374853483917	-14.878215612644606	26.848623457902143
O	33.266100816990246	-14.30218926279592	23.39254590117377
O	32.03053449012814	-19.247005271559193	23.83337517662345
O	32.85987388093644	-17.391346383208532	24.893874905786873
O	34.93417855820929	-18.472138781591905	26.549527150559413
O	32.05670033990557	-20.226636216785202	25.898216297182746
O	32.2166479904538	-21.094757273804376	22.68917640729086
O	37.13591182219248	-18.386049785820234	26.016722115103104
O	34.485909829808875	-19.072006412420013	28.821306564361407
O	32.77968751752843	-22.46518143260974	26.19545500861448
O	34.845166681048106	-19.993653017447734	22.087067277864815
O	34.14811818304516	-17.681769333552396	24.76278830297636
O	33.66934877441107	-18.41541861293728	26.946044700370457
O	32.10684180794539	-20.948297136779043	24.68865587216341
O	32.457831900130735	-19.798093083619914	22.704919204909608
O	36.21647582907774	-15.592928864335674	27.53609557399624
O	33.32623643232626	-13.386091967269447	24.38563035875099
O	35.45286203310207	-17.384161556264978	24.439693221140647
O	33.5637157746287	-19.577853597345065	27.79623513331962
O	32.49565268795726	-22.28326128720487	24.780341077608607
O	33.764575002384625	-19.2376237886157	22.47311364029457
O	35.823790774934714	-14.04694103234105	25.987682335394926
O	34.63662568964738	-14.479905146986873	23.29074583280948
O	36.27676625206361	-18.658596335466658	24.766737369325526
O	34.31596116063214	-20.583750978521397	27.09768145570535
O	33.7704853053707	-22.46163718212611	24.1410884177352
O	33.46125898587414	-17.958803853543323	22.737640084020377
O	35.482405822560516	-19.23613958904585	25.6014244117693
O	33.57706242791143	-20.236424858803872	26.000519497220793
O	33.57786439382293	-21.400477181637438	23.149715618243373
O	32.360447430611245	-18.06203389438923	23.735627530890085
O	33.53001798145659	-20.683284968478276	24.298848608060524
O	33.84934490658191	-19.662577758599532	24.654597012845493
