43

O	34.517159445770766	-16.674612314409863	26.660359945183213
O	34.9139794388817	-21.36426659330261	27.39576693485023
O	34.33822315426036	-23.06070672919812	25.035465866477885
O	33.769333602380065	-16.710461930048062	22.82085312413787
O	34.693622534126625	-18.773787062810158	24.201717552992644
O	34.144216625536465	-15.500552330860911	25.998363400436137
O	35.8205232649534	-21.07923474371491	28.514308077878677
O	35.595145557889545	-22.602302913513494	24.262316462566833
O	32.797393739556206	-15.79671458517328	23.430568759982897
O	33.574146689851936	-18.70252133060604	26.221432009091497
O	35.481742360046894	-14.87624342756996	25.878951376185455
O	33.124687684505396	-14.394139306332928	23.188007776127712
O	32.3459317076291	-19.386665173187687	23.797572974586103
O	32.94593232416848	-17.469495268625774	24.91761123960703
O	35.26932033008367	-20.017909732353345	25.761310592187545
O	31.720830846829166	-19.843467221360346	25.750274184007026
O	32.7350487642312	-21.241734451176878	22.783688527652945
O	36.932190272367706	-18.592926404367173	26.74392771647133
O	34.70271992167578	-19.12629136540068	28.8855565702983
O	32.005200097252086	-22.235578076046856	26.136318604146883
O	34.83794605198097	-20.225201298744796	22.126105267841936
O	34.35166751560208	-17.595823834837276	24.661317036009052
O	34.78959560008988	-19.124704505357972	26.703546502611204
O	32.09469119098682	-20.70426063972266	24.773611295238698
O	32.50083552044886	-19.973409125223597	22.663538970061527
O	35.33587052612657	-13.545200692207443	25.891492257634177
O	34.50050938350551	-14.38919490948328	23.0655832271098
O	35.239546954304465	-17.29080039377922	25.630236802401118
O	34.00989182093154	-19.490114175366486	27.776382025524455
O	31.98153123399417	-22.067431522338133	24.69738104699259
O	33.810473968132804	-19.31462048613287	22.375517295019783
O	36.267020193615366	-15.236490364237245	26.998364781300946
O	33.07266331762697	-13.37135837878386	24.073453386296553
O	36.23232318778084	-18.234501226265557	25.544953092227978
O	33.66999054678797	-20.73202801983879	27.1412465790538
O	33.32016135870695	-22.533997367093544	24.360402636216598
O	33.386029643004704	-18.040797257941936	22.659879387172133
O	35.86101531745537	-19.302528454893245	24.73090068200619
O	32.84836167919647	-19.720626638709543	26.54520073673943
O	33.836803475483045	-21.328277303819785	23.691009480181595
O	32.36945521867335	-18.144255654872133	23.748244044821792
O	33.56273512181438	-20.745054934968255	24.89964844118728
O	33.74079407928246	-19.635240121939077	24.55491314306624
