95

O	-0.04437989096153783	-4.197977220457692	-0.8311905590673072
O	-1.0778669319615377	1.8968984395423079	1.9496238626326927
O	-4.149977420961537	1.294944881542308	0.8142212626326928
O	-3.448825650961538	-2.200518100457692	-2.1968154673673075
O	0.5639997990384624	-0.9842607804576922	-0.7654770580673071
O	-0.10723708096153772	-4.249568200457692	-2.305662097367307
O	-0.8071763499615378	0.9469049955423079	2.9733496426326926
O	-5.245901100961538	1.7360815295423078	-0.11244565536730722
O	-3.1033385709615375	-3.277020260457692	-3.0426725173673073
O	-0.6509835949615378	-0.19143428345769214	0.9226691926326929
O	-0.6993858459615377	-5.4846846804576925	-2.7795474973673073
O	-4.292721870961538	-4.143432000457692	-2.667832057367307
O	-1.3320242279615377	-2.3623275604576923	0.3120831326326927
O	-0.9365953969615378	-2.2180172104576923	-1.9788818973673072
O	1.7572290490384623	-0.2324216034576922	0.8797484726326927
O	-0.3889902509615377	0.5457044125423078	-1.489564959367307
O	-2.5352447009615378	-0.9987014504576923	1.318417212632693
O	0.4563105690384621	-1.9137613604576922	2.214237872632693
O	1.248643359038462	1.7174224495423078	-0.5178696913673072
O	-3.858054620961538	1.052382652542308	-1.8212982693673072
O	-4.6799857809615375	-1.5198454004576922	-0.14955589336730724
O	0.36098349903846216	-2.0790926604576923	-1.359815217367307
O	0.5167213590384621	0.26098733354230785	1.4522709226326929
O	-1.7961278739615378	0.3055977794423078	-1.8268295163673072
O	-2.5271498609615377	-2.3191716604576924	1.0198541926326927
O	-1.3075216779615377	-5.6485057604576925	-3.9655840373673072
O	-5.418592340961538	-3.305732790457692	-2.7620330173673073
O	0.4925902090384624	-3.0512521004576922	-0.23010666636730714
O	0.6824130190384623	1.5361658395423077	0.7746076826326929
O	-2.599426680961538	1.1880755935423077	-1.0495475863673072
O	-3.5565979109615378	-2.323620210457692	0.08118939163269279
O	-1.7422874839615379	-5.770668560457692	-1.9404246173673072
O	-4.235510730961538	-5.143488130457692	-3.567862957367307
O	0.7422193290384622	-2.3122168704576924	0.9036576326326928
O	-0.8141762339615378	1.7744265395423078	0.5328620026326929
O	-3.121235440961538	0.6878162455423078	0.18181674263269287
O	-2.987171360961538	-2.902914520457692	-1.0461241813673072
O	1.367252019038462	-1.1861857804576923	0.21689010263269282
O	-0.6529090229615377	0.5181728135423078	-0.15253086336730715
O	-2.6198017009615375	-0.5824427644576922	-0.04009385436730717
O	-1.6715046809615377	-2.7648448404576924	-0.9152709347673071
O	-2.2008241599615377	-0.7808050004576923	-1.160510092367307
O	-0.8474197459615378	-1.0371888004576921	0.1391727406326928
O	-13.869737290961538	-7.991162720457693	-4.640302737367307
O	-3.8114875709615377	-8.710383890457692	6.307003842632692
O	-4.424692150961538	-7.358222860457692	3.1747505626326924
O	-7.646513670961538	-9.455081040457692	2.542036682632693
O	-6.3789112109615385	-12.641936030457693	4.117160192632692
O	-3.450270920961538	-16.948237330457694	7.211840842632693
O	-1.8673955169615377	-14.066200430457693	5.301808692632692
O	-0.26090996096153773	-11.910558930457693	9.640475532632692
O	2.5802180090384623	-10.800358730457692	7.386631172632692
O	8.565310409038462	-1.0010903704576923	10.535271832632692
O	-14.916821390961537	2.6481427495423078	0.9103542526326929
O	1.712810169038462	-1.7307520704576924	15.80198953263269
O	-6.079452010961537	-1.2938258204576922	7.054121942632692
O	-3.347530440961538	0.6875403235423079	8.653717332632691
O	-5.643661590961537	3.603378179542308	9.538469932632692
O	-6.988246710961537	3.8745822295423076	6.0577238726326925
O	-3.5413690409615377	3.5338574395423077	4.3784535926326935
O	-2.064731842961538	6.093466959542308	6.950990272632692
O	-4.795738240961538	8.597638959542309	6.3749919326326925
O	-6.2465752809615385	8.400770039542309	2.9065459526326927
O	-3.3075400409615376	6.8863666795423075	0.8528243526326929
O	-0.7979743789615378	9.266353549542307	2.542536942632693
O	-2.7910800409615377	12.437444369542307	2.250266762632693
O	-3.6446100709615377	11.721977069542307	-1.3989245483673072
O	0.001380189038462154	11.369065669542307	-2.427168027367307
O	3.063677009038462	16.15781536954231	-4.673809067367307
O	4.374159489038462	8.629483789542308	-7.832271747367308
O	0.6031177290384622	6.003828829542308	-8.862042787367308
O	-1.7980333299615379	5.046902099542308	-6.160726787367308
O	-1.1568986379615378	1.6819169895423078	-7.7728221373673065
O	-2.7772466809615377	2.321373839542308	-11.150175067367307
O	-2.711191950961538	-1.3544996904576923	-11.882909867367308
O	-0.9654159949615377	-4.3192877504576925	-10.167231617367309
O	-0.8541032749615378	-1.6541101304576924	-16.162429767367307
O	1.3533469990384623	0.44306451524230783	-13.856306567367307
O	-0.2021069409615377	3.771242859542308	-14.810264467367308
O	6.841771169038463	-0.39140056145769214	-8.783059917367307
O	4.774414369038462	2.281767849542308	-7.041741877367308
O	4.542855849038462	0.04315710154230784	-3.906564817367307
O	4.3947134990384615	-3.195036220457692	-5.728696717367308
O	6.949181869038462	-5.890366910457693	-5.402066287367306
O	7.532955389038463	-9.369570780457693	-4.075766667367307
O	6.382399429038463	-10.909726730457692	-0.7378746493673072
O	3.2425618590384624	-9.094610290457693	-0.8618058072673072
O	4.674264269038462	-5.488340990457692	-1.4992973913673073
O	4.354832349038462	-3.2871865704576924	4.1305671126326935
O	4.210482269038462	0.40264398264230783	5.105872732632692
O	6.355178759038463	1.5310920095423077	2.2144983626326926
O	9.487179809038462	2.9896075995423077	4.326370412632693
O	7.124392639038463	4.520472069542308	6.8804006726326925
O	5.0656974690384615	6.230102989542308	4.201673922632693
O	8.153345189038463	7.686890739542307	2.484910082632693
