94

O	-3.440595676196078	-2.9791053577803925	-1.7168982890392157
O	0.7924719638039217	-2.5126386377803924	-3.253726476039216
O	1.949041093803922	-2.048186807780392	-0.3006408380392158
O	-3.893102736196078	-1.4464342577803926	1.2675630639607842
O	-1.357046556196078	-2.0004506177803925	-0.31601999103921585
O	-4.343844016196078	-1.9897432877803922	-2.2008793260392157
O	0.5344580738039217	-3.1307287477803922	-4.554764656039216
O	1.5156820238039217	-3.1082743877803924	0.5311928739607841
O	-4.872932466196078	-0.6470526007803925	0.5338570439607842
O	-1.3341857721960781	-0.22056760378039253	-1.721062681039216
O	-5.081988446196078	-2.8371514577803922	-3.113355786039216
O	-6.157726066196078	-1.3295230477803925	0.4418453639607842
O	-1.3897272091960782	0.5217910242196075	0.5466454839607842
O	-3.040661046196078	-0.4107300587803925	-0.7420574710392158
O	-1.5849651228960782	-2.1648998577803926	-2.478684706039216
O	-0.2622361961960782	0.8200284892196075	-1.418996580039216
O	0.37545538380392185	0.44185713921960745	1.825612843960784
O	-1.431850751196078	-4.403684487780393	-2.157248466039216
O	-0.8775256151960782	-1.4222032977803925	-4.639633316039216
O	2.065701373803922	0.40124112021960745	-1.584736749039216
O	-0.4266691261960782	-2.3458652177803923	2.088817753960784
O	-2.6004053361960784	-1.6620478477803924	-0.7035701980392159
O	-1.7711482301960781	-0.8822703177803924	-2.762295426039216
O	0.3669990038039219	0.7342871942196075	-0.16080082203921586
O	-0.8754387851960782	0.05142402621960748	1.6753420939607842
O	-4.196620206196078	-3.6736906377803926	-3.824144256039216
O	-6.981615076196078	-1.3975714777803927	-0.6285020550392159
O	-2.754133136196078	-3.0187321077803926	-0.5272383590392159
O	-0.5708009001960782	-0.5544643247803925	-3.495061906039216
O	1.743487653803922	0.5177548222196076	-0.17090470903921584
O	-1.2820553581960783	-1.3292157477803923	1.7380634039607843
O	-5.891823166196078	-3.6250357477803923	-2.386861016039216
O	-5.816349686196078	-2.672536617780392	0.43401376396078417
O	-1.3648257651960782	-3.6485401177803922	-0.8155557930392159
O	0.46674137380392167	-1.2486000777803925	-2.782768786039216
O	2.033022833803922	-0.7847698887803926	0.36319161396078403
O	-2.565428306196078	-1.1546119277803926	1.391909313960784
O	-0.8312360441960782	-2.7113151777803925	-1.521359294039216
O	-0.052679056196078156	-0.6703610697803926	-1.6575073940392158
O	0.8845357038039217	-0.8201588957803925	1.2718765539607841
O	-2.527457580196078	0.04552731621960747	0.510634393960784
O	0.25546868380392174	-0.7422392657803926	0.07380986396078404
O	-0.6870346071960782	-1.1429028977803926	-0.3968556450392159
O	-9.942026546196079	-10.320667077780392	-8.723231686039217
O	-3.199629926196078	-9.764371677780392	4.636030823960784
O	-4.125767866196078	-7.952324077780394	1.917520643960784
O	-6.318963136196078	-10.694975677780391	0.25221563396078417
O	-7.785970046196078	-11.972212777780392	3.4961852839607843
O	-9.122831626196078	-13.319606977780392	9.234905433960783
O	-7.966758166196078	-9.935245677780392	7.919493783960784
O	-3.5120611061960783	-10.358870777780393	10.391317633960785
O	-3.9486987461960785	-6.604416417780393	10.644703133960785
O	5.965916963803922	-0.17815352678039253	11.913573533960783
O	1.8871237538039216	-9.860232777780391	-11.428150966039215
O	8.39510314380392	-8.332042577780392	10.318268933960784
O	3.0101310938039223	-8.748492797780392	-0.04482550603921576
O	5.687557223803922	-6.9356115177803925	1.7738620139607844
O	8.372310413803921	-7.827629567780392	-0.7730504440392159
O	6.328907983803922	-6.655736067780393	-3.6784817060392156
O	5.190175583803922	-3.3701895577803924	-2.0392987610392157
O	8.841115763803922	-2.7551988077803924	-0.7708602580392159
O	10.32143026380392	-3.3427961377803923	-4.167520866039216
O	7.931523323803922	-2.4632516477803925	-6.940251896039216
O	5.719377213803922	0.22625182401960747	-5.294431236039216
O	8.71794356380392	1.9823543122196075	-3.7104752660392157
O	10.917158063803921	2.0177943022196074	-6.741723236039216
O	8.085475603803921	3.2503225622196075	-8.970693056039217
O	7.321771863803922	6.270572582219607	-6.780874406039215
O	9.809567063803922	11.692277322219608	-8.046632146039215
O	2.017844533803922	11.333971022219608	-5.296623286039216
O	-0.8265111441960782	8.216700182219608	-7.304391296039216
O	-0.0024503461960780903	4.584190742219607	-7.111401286039216
O	-3.619298476196078	4.582834982219607	-5.957129576039216
O	-5.274915966196078	5.6532440122196075	-9.219972566039218
O	-8.611830726196079	4.5590267822196076	-7.872087776039216
O	-9.787109316196078	3.4935215822196075	-4.373754926039216
O	-11.418480626196079	8.167429182219609	-8.695476956039215
O	-8.253219996196078	9.310960682219608	-6.880209616039216
O	-5.548696766196078	9.926269132219607	0.07981107396078424
O	-2.458938164196078	8.499649072219608	-1.675664573039216
O	-2.3054936841960783	5.672045442219607	0.8846546839607843
O	-6.016763516196078	5.287397282219607	1.3001965339607842
O	-7.822281536196078	5.811147402219607	4.518905243960784
O	-9.698175276196078	4.029293142219608	7.260307163960785
O	-8.888626026196079	0.6738714612196075	8.971465133960784
O	-7.713797206196078	-0.7241862927803925	5.850506103960784
O	-5.218547976196078	2.1377449122196075	4.833135353960784
O	-0.023756996196078184	-0.39054409478039254	6.540852553960784
O	3.518495443803922	0.45812690921960747	5.2978236339607845
O	2.710822863803922	4.112632892219607	4.698386263960784
O	5.291771633803922	5.674183982219607	7.377936523960783
O	7.984334493803922	3.1819823322196075	6.393504803960784
O	7.592325913803921	3.9724391722196075	2.706585463960784
O	7.793417143803922	7.728521302219607	3.285065903960784
