95

O	1.4083107663230767	-3.170289443876923	0.009971053819231088
O	-2.1679635536769233	1.7756667261230767	-0.6128271954807689
O	-2.7710413336769233	1.1210031081230767	2.766058107519231
O	-0.3093664226769234	-2.8289985538769233	3.735873137519231
O	-1.4046819326769233	-1.2132534838769231	-0.493238919480769
O	1.900926786323077	-4.053057873876923	0.8844540085192312
O	-1.6289345806769233	3.0579016061230773	-0.046969937980768914
O	-2.8615453636769232	1.1970755891230769	4.260755587519231
O	0.7547145563230767	-3.831202623876923	3.666504017519231
O	0.6476196163230766	-0.5671766998769232	0.2547751275192311
O	2.0558304163230767	-5.474347243876923	1.073169327519231
O	-0.0492744416769233	-4.965052503876923	4.194189947519232
O	-0.5743477476769233	-2.0549295238769227	1.535871697519231
O	-0.9864491016169233	-3.486844953876923	0.33161111551923106
O	0.7683057563230767	-0.5555094658769232	-1.714401372480769
O	0.6897515063230767	0.6498870521230768	1.348324727519231
O	-2.3740781136769233	-0.8713819538769232	1.313070697519231
O	-1.1150741836769233	-1.8565847238769233	-2.544956332480769
O	0.5501503563230766	2.4081071361230766	0.17664812451923106
O	-0.8316529116769233	0.12314697212307685	4.496992977519231
O	-2.692023793676923	-1.9932001538769233	3.603173837519231
O	-0.9762847716769233	-2.5105948238769233	-0.5636826484807689
O	1.106582186323077	0.29407675798307686	-0.6632303374807689
O	0.6391469063230767	-0.19347573887692315	2.529807947519231
O	-2.0979675736769234	-2.1038151838769235	1.263651787519231
O	0.8495491463230768	-6.053118713876923	1.389269877519231
O	0.7413447063230766	-6.0142115538769225	4.424022767519231
O	0.47595960632307677	-2.586868403876923	-0.7230589384807689
O	0.23691784632307666	1.4648089261230768	-0.8878269144807689
O	-0.34306027067692335	0.5464587321230768	3.218800417519231
O	-2.2461275336769235	-2.6857194738769232	2.456578657519231
O	2.664087316323077	-5.919175653876923	2.217282387519231
O	-0.6748805296769234	-4.457556913876923	5.357486197519232
O	0.2386275663230767	-1.7152252238769232	-1.798148692480769
O	-1.0811095949769234	0.9717285221230768	-0.486551452480769
O	-1.4288244756769233	0.8377587781230769	2.364513807519231
O	-1.0515725651769234	-3.423581153876923	2.692092037519231
O	-0.6669657976769233	-0.6383066578769232	-1.386801382480769
O	-0.4476460786769233	0.3926276159230768	0.5549954145192312
O	-1.4152918476769234	-0.5995199688769232	2.350409937519231
O	-0.2911030286769234	-3.277576093876923	1.514477127519231
O	-0.17854451867692334	-1.1952725438769232	2.179763017519231
O	0.0956312163230767	-1.3199606238769233	0.9290703335192312
O	-3.867724823676923	-10.284104373876923	12.475731907519231
O	-7.186476113676923	-8.591065493876924	-1.900923502480769
O	-4.956946793676924	-7.622261233876923	0.5529471855192312
O	-6.244028373676923	-10.224239573876924	3.179520867519231
O	-6.785460193676923	-13.041402673876924	0.7334318945192311
O	-7.599203003676923	-16.599523973876924	-4.096811212480769
O	-5.177658593676923	-13.671625073876923	-3.818687502480769
O	-7.907870193676923	-10.954609073876924	-7.168826082480768
O	-4.463558953676923	-9.645131413876923	-8.05276354248077
O	-3.862468943676923	1.2086787031230768	-13.012757292480769
O	-9.158753053676923	0.46155160012307683	12.01243080751923
O	-12.079200383676923	-0.10504697187692313	-10.51666769248077
O	-9.206742553676923	-1.5705052338769232	0.7392643295192312
O	-9.010703063676923	0.9328882761230768	-2.013810122480769
O	-11.105917783676924	3.5122923461230773	-0.1365823014807689
O	-9.010548453676924	3.289057676123077	2.954996027519231
O	-5.655326303676923	3.294053036123077	1.019858383519231
O	-6.971789123676923	6.244109646123077	-1.163450422480769
O	-8.100169423676924	8.289205236123077	1.778189097519231
O	-6.084134053676923	7.599346556123077	4.876605587519231
O	-2.7035008636769233	6.393218636123077	3.413602957519231
O	-2.7140867936769233	9.215283086123078	0.8240770245192311
O	-3.6342110836769232	12.021436726123078	3.134477867519231
O	-1.0928809628769234	10.890995526123078	5.744597047519232
O	1.8232691463230766	10.967113126123078	3.302993167519231
O	5.329584156323077	15.958671326123078	2.9043394475192312
O	8.800167556323077	8.477681196123077	2.309460497519231
O	7.544564646323076	5.219674406123077	5.4695292275192315
O	3.967812806323077	4.137689266123076	5.6863782175192314
O	5.751843216323077	0.8137570031230769	5.549101407519231
O	7.586424726323077	0.8997049691230768	8.85257760751923
O	8.286428026323076	-2.7742040438769235	8.59191554751923
O	7.896879736323077	-5.297004993876923	5.729150447519231
O	12.872531616323077	-3.141822633876923	9.421411447519231
O	12.172808316323076	-0.5542238908769231	6.696611027519231
O	12.033722216323076	2.4099966061230766	9.05934659751923
O	11.114686316323077	-0.09337362587692316	-0.7305163914807689
O	8.470064056323077	2.359131816123077	0.4395413155192311
O	5.793497866323077	0.37950359372307685	-1.479752702480769
O	7.239094746323076	-2.9523184438769228	-0.9180355434807689
O	8.452569756323077	-5.211980983876923	-3.612338642480769
O	7.741933226323077	-8.443965203876923	-5.3905840824807685
O	4.377483896323077	-9.856437973876924	-6.593191862480769
O	2.6985246763230766	-8.582063813876923	-3.640389472480769
O	3.959109176323077	-4.857595133876923	-3.885026792480769
O	-0.9153783862769234	-2.193421243876923	-6.406867242480769
O	-1.8540768936769232	1.5265852561230768	-6.1695099624807686
O	1.7446360563230767	2.6724158061230767	-6.154445762480768
O	1.7194038463230767	4.741301936123077	-9.62407451248077
O	-1.7427365546769233	6.110661896123077	-8.86153882248077
O	-0.7135152996769234	7.250379886123077	-5.412724472480768
O	2.428027236323077	8.991541936123078	-6.691811002480769
