37

O	10.328508283082133	25.932966781780948	1.8254438383735538
O	10.97990433419373	24.595614142267557	0.8022999936555735
O	10.093949004805003	24.355224269241834	2.0822613598336783
O	9.677093486710971	24.68207313437516	3.545937718153127
O	9.822804150993585	25.919304445122314	4.47307790274326
O	10.94440417514943	26.01646518559361	3.280826388928194
O	9.511103357938806	26.26278897134959	5.721195391197391
O	9.270892593197365	25.076066797927616	6.382582702651584
O	10.603606897301656	25.69740304118368	6.73887688968173
O	10.512964482308067	26.709033538951637	7.766238020398621
O	9.438935965568154	27.56032182351153	7.770243707782086
O	8.994116198400523	27.342059539567153	6.374611418753332
O	11.337258981654552	24.81409793178377	5.737685761417458
O	11.973999064633793	23.81702244963068	5.250522116975789
O	12.242955683883041	23.49898333251334	3.7197305133289706
O	12.066692779582395	22.283476891288217	2.9419547099410783
O	12.984204305854792	21.039272828293633	2.91998291775465
O	13.711650305606817	21.802401150039906	3.809219488599425
O	13.285715725527133	23.095190056599385	4.230418442250052
O	14.62389248055563	23.1770225358377	3.9754450810518316
O	12.621786234145516	21.946916315019873	1.7347222995654326
O	13.217961873276053	22.723637657356683	0.7923875110922536
O	14.40206345558247	22.271506212936853	1.3108325154001523
O	14.711266247479328	20.951847326448352	1.0054792660916738
O	16.173965247843725	20.83097967905232	0.5758585932816387
O	16.908007594116057	22.049774256779905	0.1793689586305094
O	16.851970577242884	22.839492389667374	1.5043981216744202
O	15.503251301340137	22.32887910571582	2.0551273167796817
O	12.998089425057096	23.975938507486937	1.4372049373915592
O	15.761185313710923	22.63466504150439	-0.5738102925225568
O	14.947776591897833	21.7748084689006	-1.3721017346451476
O	14.54075316814944	22.422246387673187	-2.572727137813341
O	15.877248413655225	22.753085483163556	-3.030936514778945
O	16.993062714856475	22.095679119866535	-2.5878065589437065
O	16.842353906242927	20.7428925260214	-2.2627932150825667
O	15.457244954918435	20.623125733354293	-1.9056695041735385
O	18.013046303424733	22.367178071448617	-3.375524735683127
