83

O	-3.7091448029	0.7665637910586216	-0.6160311593655172
O	-3.1179931529	1.1568337415586216	-1.903241725965517
O	-1.4264098429	4.137725656058621	-1.0486699449655172
O	-4.8055644229	1.4732139320586215	-0.013114471965517183
O	-1.9936824439	-0.3762707739413784	0.3565949740344828
O	-2.4731211679	-0.9083081239413786	2.312646684034483
O	-4.3736649229	2.7766906060586214	0.2619623840344828
O	3.8730657270999997	0.9167569950586216	0.35643943403448286
O	0.6373028471	-0.3555022139413784	0.8584244640344828
O	-2.8974495029	3.0223334460586218	0.22996360503448277
O	-2.1564787289	1.9748074170586216	0.6855458640344828
O	-2.7852717949	0.7443459830586217	0.37182392403448283
O	-5.4583318529	1.7384828960586216	-2.2043656359655173
O	-4.2825510828999995	1.0124090030586217	-2.6621687459655172
O	-2.8761397028999998	2.2440041060586218	-2.760600015965517
O	-3.8930855629	3.3742653960586217	-2.963358035965517
O	-5.3171059329000006	3.0795169260586217	-2.829798025965517
O	-6.2063548929	3.7856064660586215	-1.9225560759655171
O	-2.5845718749	4.3076617460586215	-0.3241225549655172
O	-1.5829108469	-1.1151973239413786	1.472137734034483
O	-0.12473564289999994	-1.0493134939413784	1.668038614034483
O	0.6284277071000002	-2.120199173941378	1.9470755840344829
O	1.8868614271	-1.7518147939413786	1.613398764034483
O	1.9057270471	-0.5739849839413784	0.9287487640344828
O	3.0271973371	0.1413372860586215	0.42898731403448276
O	-0.45438531289999995	-15.43140563394138	-5.465319095965517
O	-1.6440138738999999	-12.031438833941378	-6.655184645965518
O	-5.0746455329	-10.621345133941379	-5.914010655965518
O	-6.7649597229000005	-7.279629163941378	-6.456730455965517
O	-4.6705900829	-4.297197193941378	-7.5842614559655175
O	-4.6074813329	-2.053672513941378	-4.827273595965518
O	-3.1963829229	0.9593729590586215	-6.889923185965517
O	-1.1391902499	2.201822981058622	-9.705376455965517
O	0.7314672371	5.195943576058622	-11.119249325965518
O	5.9909971071	3.9415901960586215	-12.334079625965517
O	4.303647317099999	0.8108435480586216	-10.997776825965518
O	1.5863935671	-0.6635089839413784	-8.809579875965518
O	0.8277595771000001	-2.367689203941379	-5.495284065965517
O	-1.1814445319	-5.585018273941378	-5.341702585965518
O	-2.7903227629	-7.427279083941379	-2.449775105965517
O	-1.6201247299	-11.066706633941378	-2.2513969959655173
O	0.5105087171	-8.879032933941378	2.083217874034483
O	0.9684713171000001	-5.943212213941378	-0.24029522796551722
O	3.3894793771000002	-6.357005893941378	-3.126231395965517
O	5.095225577100001	-3.3294234039413784	-4.658230635965517
O	6.3905283671	-3.6231578939413778	-8.239114095965517
O	7.3398269371	-1.5912738739413783	-11.307261225965517
O	5.7776273571	-1.6154433839413784	-14.760657225965517
O	4.7170933570999996	-0.3398344039413783	7.307762704034483
O	7.3080125571	-3.061988513941378	7.606783174034483
O	9.252282017099999	-4.954659493941378	4.982635584034482
O	6.613526287099999	-7.497268043941379	0.04210408603448279
O	5.281550857099999	-5.261835603941378	2.841942434034483
O	2.5423236471000004	-5.416182293941378	5.511451954034483
O	-1.1616401618999999	-5.4262489639413785	4.467550644034483
O	-3.1395038629	-3.0306754339413784	6.627409524034483
O	-6.8218969629	-4.0019425839413785	6.393740134034482
O	-8.5745473829	-0.6586725939413784	6.910550134034483
O	-6.7180366729	1.3280139296586215	4.336692944034483
O	-5.2567688629	4.816527146058622	4.739129184034483
O	-5.8635659029	7.311333846058622	7.389961604034482
O	-7.1162711629	10.224496696058623	5.2679870340344825
O	4.8002160171	12.938532666058622	5.750752954034483
O	1.0283154471000002	13.241397766058622	5.341692944034483
O	-2.2793626469	11.516889066058623	6.231849024034482
O	-2.3380392359	9.916335226058623	2.807894174034483
O	0.8485067371000001	8.080579366058622	3.864294114034483
O	-0.5738324828999999	6.620459926058622	7.099344364034483
O	-2.2794269239	3.2049714860586214	7.220764924034483
O	-4.5731915829	1.6072500330586217	9.703081474034482
O	-4.2668763029	-2.0791877739413787	10.414704474034483
O	-6.0514031429	-4.447369783941379	12.788717274034482
O	-7.0882553429	0.4970328440586216	14.003629974034482
O	1.5735567571	2.8491712860586214	10.586591174034483
O	3.5364895371	5.406048516058622	8.506621474034482
O	4.804737897100001	4.436469436058622	5.035390944034482
O	4.854971067099999	5.624078316058622	1.4469201940344831
O	2.4289473670999997	4.468032016058622	-1.0300085299655173
O	3.5157895371000003	6.811189176058622	-3.874962665965517
O	3.6710415971	3.7515479360586212	-6.091981545965518
O	0.10807276710000013	3.1051023560586213	-5.743576105965517
O	-0.8578924709	6.788532616058622	-6.425471575965518
O	-1.6933137457	8.685740826058622	-9.516454305965517
