99

O	-7.172359029377143	1.0689416946871428	4.739480985357143
O	-6.9932241193771425	-0.367324701312857	3.6388907753571433
O	-7.813482559377142	-0.1816084313128571	2.634632785357143
O	-7.4783520393771425	0.6790660016871429	1.6984106953571432
O	-5.867648549377142	-0.930464911312857	3.060080185357143
O	-5.306317539377143	-0.4382162713128571	1.8934131653571433
O	-6.232101499377142	0.6451592326871429	1.4869798053571432
O	-6.479291099377142	0.3682920936871429	0.12635125785544316
O	-5.694230529377142	-1.485001421312857	1.2134849453571432
O	-4.959557919377143	-2.6459501613128573	0.6719150963571432
O	-3.863001359377143	-1.974088881312857	0.05113097385714316
O	-4.215277129377142	-0.5521328313128572	-0.14878479164285685
O	-3.4097994693771425	0.29675501768714296	0.42510368335714316
O	-2.125892029377143	-0.282965941312857	0.5618081463571432
O	-2.3556264013771426	-1.2806975313128572	1.4801136153571433
O	-3.4952711993771426	-1.971473201312857	1.4862424153571432
O	-1.0032170663771427	-0.7470383413128571	-0.33372389064285685
O	-0.1992004593771426	-0.5562033113128572	-1.4384760646428567
O	1.1807639206228575	-0.43285540131285705	-1.8093945246428569
O	-6.231368919377142	-0.8444560313128572	0.04505988335714316
O	2.2874559006228576	-1.3328912313128574	-1.8412830546428567
O	3.6447829006228574	-1.0381157513128572	-1.4093402446428567
O	4.003484320622857	0.1826272516871429	-0.8625363386428568
O	3.0304885806228574	1.061140703687143	-1.3304127846428568
O	2.0609672606228573	0.650474045687143	-2.323576734642857
O	3.524086580622858	0.05326782968714294	0.6290764213571431
O	2.8393443206228577	1.153021119687143	1.0578418263571432
O	3.303522620622857	-0.9772543313128571	1.3817827953571433
O	1.9808182606228575	0.04911504568714298	0.6949757403571433
O	10.566127580622858	-2.022784801312857	2.7267024053571434
O	10.357214580622857	1.751787827687143	3.0304035853571434
O	10.259907780622857	2.710571858687143	-0.6697357546428568
O	15.144896680622859	4.172255878687143	-5.7909379846428575
O	-7.695828969377143	-5.241737431312857	6.509052025357143
O	-4.912040959377142	-5.362474571312856	8.825266215357143
O	-1.3955643693771427	-9.071897811312857	6.629997215357143
O	-3.5285718793771426	-7.493798331312856	3.9658553353571433
O	-6.934094269377143	-8.954773271312856	3.1157207253571433
O	-9.764477279377143	-7.544582221312856	1.102485101357143
O	-8.796103389377143	-5.6456172413128565	-4.2330005546428575
O	-6.399990499377142	-5.740529671312856	-1.3445403946428567
O	-4.063057729377142	-8.743576291312857	-1.1849183446428568
O	-0.8115895383771426	-8.555421531312856	0.6459719433571431
O	0.9243031406228572	-11.608827011312856	2.059318325357143
O	11.448835080622858	-11.047409611312856	4.507291585357143
O	11.752495980622857	-7.754479091312858	0.9268052393571431
O	8.268276780622857	-8.543716361312857	-0.33802954664285684
O	8.482359780622858	-4.139501581312857	-3.039987274642857
O	6.872207490622857	-6.109225991312857	-5.9424192046428574
O	9.779133780622857	-1.5005428613128573	-7.377542394642857
O	5.903997890622858	-0.9797254513128572	-7.542425934642857
O	6.273749670622857	-2.638042501312857	-11.053700404642857
O	9.126091080622858	-0.3064759513128571	-12.035958104642857
O	7.324547700622858	2.8698833786871427	-11.023985004642856
O	0.7875022706228576	3.670213818687143	-12.595841304642857
O	-2.6827683913771425	9.357724708687144	-6.5886033146428575
O	-0.7756741593771426	6.237364368687143	-5.562353374642857
O	-2.1339951643771427	2.887206688687143	-4.746606374642857
O	-1.3294996373771426	0.893678448587143	-8.015469714642856
O	-0.09476179937714257	-2.7211648613128574	-8.440633824642857
O	-2.7644219343771423	-4.770078511312857	-10.305206304642857
O	-1.0162843853771426	-8.170624671312856	-10.371313904642856
O	0.6333601306228573	-12.603977311312857	-2.9588285246428567
O	0.6610801506228572	-9.017317141312857	-4.104416594642857
O	-2.6919021783771426	-7.687829361312856	-5.536765564642857
O	-3.3175822093771425	-3.934906661312857	-5.355120894642857
O	-6.003847359377143	-1.3411125113128572	-5.460822894642857
O	-8.651846869377144	-1.3616067913128571	-2.5481332346428567
O	-9.377737259377144	2.095822958687143	-1.3839200946428567
O	-13.004555819377142	1.9934340786871427	-0.23818308464285687
O	-13.149962819377143	4.921909418687143	2.2457681153571434
O	-9.987802819377142	3.7704365186871427	4.151373155357143
O	-7.105351769377142	5.864468328687143	5.416394815357143
O	11.790834780622857	8.095765008687144	-1.9119340346428566
O	8.907348480622858	7.067255698687143	0.3777458963571432
O	7.205675230622857	7.206662508687144	5.813329865357143
O	5.050666310622858	10.078608068687144	4.512578195357142
O	2.0949077006228576	10.390324058687144	6.900382965357143
O	-1.8670386829771426	6.790880918687143	8.081235435357144
O	-0.32254583937714254	6.075994768687143	4.765323575357143
O	-2.8207105393771426	7.8661665486871435	2.634043545357143
O	-5.913810539377143	6.1346727586871435	1.4609158953571433
O	-9.131455179377143	7.604684208687143	0.02375101035714315
O	-10.814944149377142	5.717553448687143	-2.802644204642857
O	-9.436092479377143	10.765558488687143	-4.122071834642857
O	-6.212056809377143	10.525222618687144	-2.1034509746428567
O	-3.6732388293771425	7.8100600086871435	-2.885975154642857
O	-0.3647034993771425	7.552822638687143	-1.1287345246428568
O	0.9796665906228574	4.411897848687143	-0.31238788164285686
O	2.690448760622858	2.456725298687143	2.751376675357143
O	0.17508023062285738	-0.08608189131285704	4.748862015357143
O	3.073180750622858	-1.153285471312857	7.403812225357143
O	2.1465253306228576	-4.817496601312857	6.629588915357143
O	-1.3572307053771426	-4.028317181312857	7.7008712953571425
O	-0.3626376093771426	-2.2036438913128573	10.952935295357143
O	0.5888179306228574	-3.2710163013128573	14.462140095357144
O	4.021738060622858	-1.580790771312857	14.470871595357144
O	2.527100910622858	1.830741951687143	17.775639795357144
O	4.847699700622858	16.176034388687142	3.732788435357143
