36

O	9.134543199066567	24.470518258002887	3.0013111184237626
O	10.138972216705756	24.39439047835601	3.920271136644893
O	10.409271971381457	25.34487579390251	4.777195776704482
O	9.57895250320172	26.513664072757287	5.054273216329702
O	9.615035295154248	27.292139552536824	4.1486300884748495
O	8.814629255918675	26.27800909449413	6.26657242422507
O	7.805294651239382	27.195904828771774	5.937530421427191
O	8.049249485164625	28.400140843184214	6.526353879242553
O	7.951125906542837	28.1682772538239	7.909105262016516
O	7.472238831961488	29.169386046639744	8.572147016907017
O	7.439096329692055	29.18480711669229	9.886190011104675
O	8.247890371879592	28.328510812085266	10.422616430029212
O	9.082513341609381	27.47783484163524	9.742845840195402
O	8.720990170646763	27.167915014242276	8.492106723035793
O	9.47320552599822	26.286879242802314	7.632155119467329
O	10.637103128634603	26.631020678841796	7.343431620439701
O	6.686112569836227	30.331206982224316	10.207607761011824
O	5.8359412414116	30.963049182977556	9.188596600847312
O	5.329906399463808	29.907548821570433	8.354704681491071
O	4.3489542777087635	30.162112243098193	7.462702949452586
O	4.549942297160235	31.30562697253901	6.743400026591204
O	5.235914220282606	32.228187179144584	7.335570655948375
O	6.313229843795184	31.607695931359224	8.029527366820648
O	3.3700133727752397	31.68033521524402	5.994898649436059
O	2.372274719425975	32.11268514192908	7.085167249365728
O	1.2458683837068962	32.62001692398843	6.490039560945929
O	-0.07264350370102957	32.22761646874062	6.321525719923062
O	-0.22518813415369365	31.653878278649817	4.90523522595986
O	1.15863988252711	31.803764308830395	4.345241784445447
O	1.6020937107170985	33.00497301676127	5.137232215504918
O	7.102606195703274	29.245779759834495	5.871399712146422
O	7.818292559985823	29.993875099855913	4.863298367356153
O	7.0625707096526655	31.285430314663806	4.818874684286197
O	5.984945033317198	31.065561185943597	3.84576077446198
O	5.477945217378124	29.70518585097926	4.108805015496197
O	5.957508559184739	28.764936212028477	5.130560007980045
