83

O	-2.8732239062765963	1.9503102718340422	-0.927094108744681
O	-0.0754589862765962	-1.6605330041659578	1.408423457255319
O	3.036185173723404	-1.0767636141659578	-0.8882859977446811
O	2.134890553723404	-0.12267188416595776	-1.044253134744681
O	2.293463183723404	1.2355388318340421	-1.421466707744681
O	1.2353552737234037	2.2140252572340424	-1.361323721744681
O	0.25706254372340376	2.319965464734042	-0.326891850744681
O	0.4142536037234037	1.0684123558340421	0.21855058225531898
O	0.8464065837234038	0.006717755834042105	-0.585627399644681
O	-0.27300939627659604	0.5058546758340423	-1.395647281744681
O	-1.3238763032765961	-0.4138860741659576	-0.809015209744681
O	-1.5174958632765962	0.43126226583404215	0.596874757255319
O	-2.632346658276596	1.1825997158340422	0.6613946872553189
O	-3.5162441662765964	1.0912204058340422	1.672451257255319
O	-3.8162569362765963	-0.24649761416595783	1.941037987255319
O	-2.6687616862765964	-0.9800352241659578	1.9967706572553188
O	-1.4233747212765961	-0.6071908641659576	1.457890037255319
O	-0.29649035627659615	3.5104584358340425	0.278953266255319
O	-1.1553019142765961	3.714957665834042	1.280004427255319
O	-2.186910058276596	4.603734545834042	1.188325867255319
O	-2.140136435276596	5.640030215834042	0.29983876425531897
O	-0.9375157242765961	5.794635635834043	-0.319998313744681
O	-0.12208491627659623	4.707134285834043	-0.336432406744681
O	-3.348134756276596	6.058189345834043	-0.369101930744681
O	-3.3076308062765962	6.759695805834042	-1.375903452744681
O	-4.490790636276596	5.168966195834042	-0.253941394744681
O	-4.493620126276596	3.859901625834042	0.339764241255319
O	-5.659295926276596	3.2748435258340423	0.393478228255319
O	-6.469464476276595	4.480787525834042	0.766289807255319
O	-5.673644326276596	5.709291915834042	0.449920102255319
O	-4.9768886462765956	6.433629765834042	1.604663017255319
O	-4.447362216276597	7.622558545834043	0.912482087255319
O	-4.074206466276596	8.700711335834043	1.7670090772553189
O	-5.289257136276596	9.489747365834042	2.147890307255319
O	-6.392385246276596	8.713196015834043	1.435666457255319
O	-5.631727446276596	8.186015995834042	0.25109275125531894
O	1.9173828037234038	5.217594295834042	-12.35041819274468
O	-1.0026991502765963	6.272075835834042	-10.156124452744681
O	-3.536724306276596	3.653163395834042	-9.041414482744681
O	-3.133426156276596	3.292490075834042	-5.423382962744681
O	-6.443111806276596	1.2406037028340422	-5.105087522744681
O	-8.967889276276596	-1.207783654165958	-6.344194992744681
O	-11.693459726276595	-3.6243664441659575	-5.317197492744681
O	-8.117674696276596	-6.338878394165958	-8.812988832744681
O	-5.9579507262765965	-3.3213306541659575	-8.040658672744682
O	-2.514465650276596	-2.1699764041659577	-6.990161552744681
O	-0.5725183662765962	0.5406439358340422	-8.79460413274468
O	2.603805393723404	2.4272563218340424	-8.029716562744682
O	5.398999633723404	1.9445990858340423	-10.54205659274468
O	9.090648173723404	2.383212253834042	-11.20436519274468
O	9.489143573723405	2.6640669618340422	-6.602376262744681
O	7.325256243723404	-0.4348440641659579	-6.169864392744682
O	3.6484459537234035	-1.3328704741659578	-5.667581332744682
O	5.828406263723403	-5.9807237241659585	3.019556147255319
O	8.202381303723405	-7.962214534165957	0.899167017255319
O	5.9088661437234045	-5.569287694165958	-3.560653172744681
O	7.350916003723404	-2.8543115641659575	-1.491281364744681
O	6.556690163723404	0.6114507358340422	-1.794704972744681
O	6.133132783723404	2.1523598536340423	1.7383885772553191
O	6.244144743723403	5.952012815834042	1.3406458472553189
O	3.970281623723404	7.135831205834042	4.242915077255319
O	1.094093263723404	4.954188895834042	3.847898937255319
O	-0.8575748042765962	2.849184213834042	6.311999727255319
O	-0.7179872322765961	2.961140732834042	10.03023000725532
O	-4.373920946276597	3.6349791058340424	10.79984470725532
O	-4.512208306276596	6.793269205834042	8.67653400725532
O	-1.2452742162765962	8.038196095834042	9.99001240725532
O	-3.947447076276596	-1.359592884165958	11.703013207255319
O	-5.293997926276596	-1.0274641741659578	8.16031757725532
O	-2.9186574962765963	-3.975015474165958	7.2774266872553195
O	0.17520928372340383	-2.154371414165958	8.59443885725532
O	2.344092583723404	0.20396930583404238	6.5120996772553195
O	4.982507423723403	2.752113181834042	7.365984447255318
O	8.066011613723404	3.110418405834042	5.195820607255319
O	11.177297773723405	5.295096545834042	5.319567477255319
O	1.0619179137234038	-7.190673164165958	4.870252267255319
O	-2.3500112892765963	-7.816873634165958	3.252358067255319
O	-3.970239726276596	-5.145705754165958	1.072413417255319
O	-7.318480166276597	-6.5103116541659585	0.5262307172553189
O	-6.735602776276597	-6.1480289941659585	-3.233547722744681
O	-6.577255946276596	-2.4060560641659574	-3.0390338827446812
O	-9.639907576276595	-2.188169674165958	-0.7777923317446811
O	-6.171145316276597	0.6389343258340423	17.74209160725532
