78

O	-1.4076470374999999	2.030197261086	4.286227575394999
O	1.4326943395000002	-2.2935717989139994	-4.773010164605
O	-1.5817273705	-1.7742332989139995	1.6013930353949999
O	-1.3720095335	0.8797191500860004	3.459892435395
O	-0.8933715775	-2.865864178914	-0.8849961856050002
O	-0.5617845065	3.2438486710860004	2.637041105395
O	0.5692605295000001	-1.3486687689139996	-1.349130894605
O	-0.5216444759000001	-2.9568703989139995	-2.139479044605
O	-1.4560312615000002	7.088059621086	5.4034372753949995
O	3.0070458895	3.0037542710860006	-0.8396597766050001
O	-0.6746809646	0.09069102908600035	1.137697995395
O	2.1504298495	1.7905102770860004	-0.8567279296050001
O	2.5811808695000003	3.9392492910860004	0.21084116739499992
O	1.3110056195	1.2595018690860005	0.2119877383949999
O	-1.9265520305	4.678981611086	5.631359455395
O	-1.8940830305	6.025879831086	6.271168065395
O	-0.11920286150000003	6.757638811086	4.992299615395
O	1.5055013695000001	3.3665752510860005	0.9937819353949999
O	0.040342589500000026	5.4118344210860005	4.366750555395
O	1.0163571395000002	-2.0128657889139996	-3.745572914605
O	-0.6360256921	3.1180443410860006	4.027695645394999
O	-0.5908406637	0.8734291520860004	2.303154545395
O	-0.2831362665	2.0894980410860002	1.794102855395
O	0.6560225795	-2.2520614389139997	-2.358786204605
O	-0.35481638050000003	-1.6893210789139994	-0.45272922360500006
O	1.0344930195000002	2.212560931086	1.342329645395
O	-0.8080237995	4.3132412610860005	4.802125665395
O	-0.6963222415	-1.2523833989139996	0.8940810193949998
O	-13.1123183805	3.3167537610860003	-3.282627604605
O	-11.5607044805	5.517205981086001	-0.6172839686050001
O	-8.4284512005	7.6540473610860005	-0.31940580460500007
O	-5.7591710505	7.461162211086	-3.0048582546050002
O	-2.7432211404999998	5.7990263910860005	-1.391915124605
O	-0.4267857235	6.724150981086	-4.287709354605
O	-0.040158363500000016	7.501485521086	-8.012066754605
O	2.4984364895	7.712206691086001	-10.844344124605
O	-1.7289616904999998	4.358833141086	-12.620011324605
O	-2.5982970805	4.492903691086001	-8.938134114605
O	-3.4791307505	2.459649631086	-5.8704899446050005
O	-6.5115324005	3.2460583610860003	-3.758315854605
O	-7.6775152305	2.051679821086	-0.37462839160500006
O	-11.113578780500001	0.43341106608600044	-0.4498882216050001
O	-13.5585186805	-1.6784544689139995	1.516378405395
O	-9.7632777405	-2.837184538914	3.963752745395
O	-7.9280778005000005	-3.680051398914	0.6834362773949999
O	-5.5478894605	-1.8576255189139994	-1.687201094605
O	-6.7040691905	-1.6918998789139996	-5.3072598146050005
O	-4.2268142605	-1.3129793989139995	-8.146846024605
O	1.7527194895	-8.546423968913999	-0.04160766200500007
O	-0.7833665095	-11.155117278913998	-1.151492294605
O	-4.1461503505	-6.893718558913999	-2.711043744605
O	-3.5893139005	-6.761613908913999	1.020665495395
O	-4.0438225705	-3.664661508914	2.988597175395
O	-1.0742654635	-3.119083218913999	5.392131865394999
O	-2.1138227605	-0.5218704989139995	7.915672375394999
O	1.1738686495000001	0.9323122467860003	9.132353885395
O	2.5164454395	1.7609503360860004	5.751580755395
O	5.9481000095	1.2099608190860005	4.281191815394999
O	9.0658117895	0.3310614230860004	6.114191545394999
O	11.226155219499999	3.258288411086	5.011712615394999
O	8.765993459499999	5.876802671086001	6.356177585395
O	8.3499590195	3.9673211210860004	9.589589425395
O	12.857895319499999	-0.5959993489139996	2.059690875395
O	10.3244679195	1.3769049140860004	0.007657806044999923
O	9.0093970895	-1.9840989989139994	-1.215825474605
O	8.3895945495	-3.3276399789139997	2.282357435395
O	5.0560901695	-2.7805460989139994	4.071746775395
O	4.2077338095	-3.2871904189139998	7.767317105395
O	0.7877310194999999	-4.638481248913999	8.688755705395
O	-0.9668941575000001	-5.4036579989139994	11.985646775394999
O	4.1489678495	-4.713550248914	12.694556975394999
O	7.6586776595	-7.491624798914	0.6832765183949999
O	5.872991829499999	-6.450876658914	-2.505583364605
O	6.129392699499999	-4.116928088913999	-5.478698554605001
O	4.5547805895	-0.7227793089139996	-5.380705264605001
O	2.3648868595	1.9333280580860004	-9.464364054605001
O	1.8206309695000003	4.013888151086	-6.433258514605001
O	5.1453812195	5.8446645810860005	-6.662873234605001
