83

O	-3.1456456606271184	-2.7457704257016946	-1.4632884006135585
O	1.1187093893728812	-1.7775571457016945	0.3628871973864415
O	1.7926679093728815	-1.5848040757016943	1.5642520373864417
O	2.811038909372882	-0.06436502570169456	2.9163823673864417
O	0.07314183937288132	-0.9332083757016947	-0.007454247613558507
O	1.5113295993728812	3.4399271742983055	-0.5800436536135585
O	2.2896032993728817	2.5984201742983055	0.07406646038644149
O	-0.9021571212271186	-1.1199161657016945	-0.9492687706135585
O	-1.4709152056271186	-2.3630527457016943	-0.9893529846135585
O	-0.4860483116271186	-3.281233565701694	-0.8885678347135585
O	0.5964404893728814	-2.964690845701695	-0.12825373261355855
O	0.6682256293728814	0.22056236529830553	0.08464568938644146
O	1.5933414993728816	0.5989980622983055	1.1147082973864415
O	2.1701929493728818	-0.3615792157016946	1.9307120873864414
O	-0.6208012486271186	1.0672108299983054	-1.8275418326135586
O	-0.9092884543271186	2.3422369042983053	-2.3587893926135584
O	-1.4186617806271187	3.2535204942983054	-1.5408300906135586
O	-1.9373236536271186	2.5896602542983054	-0.4291563166135585
O	-1.3120121746271187	1.5016549692983054	0.17386016838644147
O	-0.10318108762711864	1.3206752072983055	-0.5311028396135584
O	0.7164185093728814	3.054372364298305	1.2940018573864416
O	1.7895546693728812	2.0864314632983056	1.1998594273864418
O	0.7919971093728815	4.011782704298305	0.3311568273864415
O	0.6967043693728814	5.527189784298306	0.25054709738644154
O	-6.688763980627119	-3.231595615701694	14.50965483738644
O	-6.704453540627119	-0.3479740757016945	12.053164037386441
O	-4.230088000627118	2.5298566742983057	12.081413037386442
O	-3.4321867206271186	5.444609094298306	9.781001537386441
O	-4.996624320627119	5.5711174842983056	6.322818037386441
O	-2.2710329806271186	5.012018844298305	3.9100307873864417
O	-4.298509750627119	6.228952714298305	0.8627096673864415
O	-7.772689430627119	6.546479334298306	-0.7363951164135585
O	-9.48473795062712	6.9667459742983056	-4.118793172613558
O	-13.23123257062712	2.975161564298306	-5.049569342613559
O	-11.653813470627119	2.3484170642983058	-1.6519426496135585
O	-8.688655310627118	2.826280334298305	0.6220753473864414
O	-5.804845300627119	1.0612093536983056	2.2664667073864417
O	-5.025554150627118	1.2457085322983055	5.985164467386441
O	-1.9404362956271186	0.29655241929830545	8.00619748738644
O	-2.771933540627119	-2.1659130057016944	10.776456937386442
O	2.4148794893728818	-4.450066485701695	10.59326743738644
O	0.2839206693728815	-5.028159475701694	7.499641897386441
O	-1.5814597096271186	-3.0556546757016947	4.859155157386441
O	-5.252591790627119	-3.655487825701694	4.451378327386442
O	-6.975942540627119	-2.980415215701694	1.1428540273864414
O	-10.752232530627118	-2.4095984857016943	1.2000321073864417
O	-13.629152770627119	-0.8397205257016944	-0.7134092626135585
O	-15.945863770627119	1.9930175802983054	0.28267888738644154
O	3.9490088293728816	-7.288931055701694	-2.5467183826135584
O	2.6193903793728817	-10.609765365701694	-1.1889783586135585
O	-0.8539904559271185	-11.589833465701695	-0.02152377161355845
O	-4.232499530627119	-8.181763435701694	3.9360591873864412
O	-0.8666868943271187	-7.700577805701695	2.2341485973864414
O	2.7606069693728816	-6.891859565701694	3.183389327386442
O	3.6179463593728816	-3.547477505701694	4.815081627386441
O	6.711350409372881	-2.0231528257016946	3.2136823373864414
O	8.178420299372881	0.4222414812983055	5.705788167386441
O	9.98994252937288	2.8846173342983055	3.423737627386442
O	7.193386489372882	3.6090750742983055	1.1094267373864417
O	6.966365119372881	3.8082914842983056	-2.6859319026135586
O	9.952644429372882	4.071591304298305	-4.964867412613559
O	8.981238499372882	7.268266394298305	-6.784181542613559
O	5.6885011693728815	2.218757394298305	-13.00281026261356
O	7.728628109372881	3.6449289642983054	-10.112728572613559
O	4.557357349372881	4.567073944298306	-8.209035782613558
O	3.816740539372881	0.8246501752983055	-8.186507412613558
O	7.121191759372881	-0.1735047457016945	-6.576754522613559
O	7.63895500937288	-0.32865497570169455	-2.8129046026135587
O	10.700011229372882	-0.47451075570169454	-0.6606543926135585
O	10.682169329372881	-2.6281706857016944	2.4501756673864414
O	13.31433712937288	-3.4792740757016944	5.080432087386441
O	15.50316502937288	-1.1805403457016945	0.9451743073864415
O	8.67652169937288	-5.067571575701695	-4.449774022613559
O	6.3107203693728815	-4.542070535701695	-7.386654762613559
O	2.573583609372881	-4.4374507057016945	-6.785456912613559
O	-0.5584797906271186	-2.5038823857016945	-7.666157692613559
O	-1.7722748606271186	0.16711079929830552	-5.537045572613559
O	-4.338940970627118	1.9663451752983057	-7.435296972613559
O	-6.7656414206271185	1.5910617782983054	-4.540062532613558
O	-4.921211360627119	4.008415014298306	-2.5656922126135586
O	-4.355643960627119	6.552862564298305	-5.301360802613559
O	-6.4458275606271185	9.472282154298306	-6.386517592613559
O	10.313014429372881	2.689879194298306	-15.225530862613558
