24

O	8.242408479499185	23.26543586267354	4.795060578810496
O	9.534624752629576	26.480917635411434	8.027386728104048
O	9.341225181160908	26.862280393449467	9.350946460039331
O	8.421740794512008	28.415426326383805	10.736355064542071
O	8.468491160530883	26.469421941295856	7.129324288340676
O	6.702528125473591	30.71248549597397	6.4981797491702595
O	7.483524530404141	30.500838113557638	7.540750622252591
O	8.363101586494237	25.848875526680796	5.914047512408294
O	8.847200674014132	24.571586031573048	5.8457783505102805
O	10.033856979769505	24.535036952098288	6.488963736191582
O	10.194220175062071	25.35229359622282	7.564339974983107
O	8.039064138378157	27.689965665905003	7.269536581903448
O	7.9498252989242975	28.40229765992178	8.512396785595925
O	8.617513683998435	27.942832803452962	9.636857880422482
O	7.4456918646070225	27.782409248472266	4.887472652652262
O	6.634577536951743	28.613631389690514	4.086034178766532
O	5.377348029215969	28.80272367597074	4.463624510773752
O	5.040031763725728	27.78501695663892	5.3558295920295755
O	5.909337366992133	27.30089122136479	6.329651376399676
O	7.075173217003133	28.088493345743824	6.222372402213943
O	5.696989964193382	29.585196162898708	7.916169345592716
O	7.051375054053632	29.603958852425432	8.428695045143975
O	5.5007773366228125	30.49888458753012	6.928196014379271
O	4.468158301204394	31.556502777428925	6.571574443146934
