92

O	3.003584534951613	-2.039454012677419	3.0799179172403224
O	1.9160513149516127	-1.0218751126774193	3.2655185772403224
O	1.678299124951613	-0.24043432267741927	4.5795862172403226
O	1.937911734951613	-2.645947552677419	3.709965527240322
O	-0.1273453500483871	-0.6613778126774195	5.672082537240322
O	-0.8922261390483872	-1.2004105726774192	4.8617922972403225
O	-0.21598507304838716	-2.4081754026774194	4.470945637240322
O	0.9823449949516128	-2.18902636267742	4.506385237240322
O	1.2372497649516128	-1.0709280926774192	5.439200577240323
O	2.7946129549516128	-1.8700834526774195	1.3074711072403224
O	-0.8029645930483871	-3.3521983026774196	3.5571472772403228
O	-1.420833086048387	-2.2926305526774193	2.5663369972403225
O	-1.012264837048387	-0.9163355626774192	2.798888697240322
O	0.11168386095161287	-0.39232741267741944	2.1606836472403224
O	-0.026108528048387147	-1.0013910226774192	0.8930071072403224
O	-0.019204184048387196	-2.419335332677419	0.8771891772403225
O	-0.39134422704838717	-2.9722325526774194	2.0433329872403223
O	4.051643694951613	-2.7378282826774196	1.1420600372403222
O	-1.113375612048387	-0.8463008626774193	-0.1350887857596776
O	-0.6750374399483872	-0.6519126326774194	-1.4693485097596777
O	-1.1830305350483872	-0.08215285267741934	-2.6951829227596775
O	-2.087515935048387	0.9240694513225807	-2.7290000727596775
O	-2.047215425048387	1.8014438083225808	-3.8422901927596778
O	-1.7619603450483872	1.5912869463225807	-5.097595732759678
O	-1.2275996470483872	0.3464624743225806	-5.079892992759678
O	-1.1435115440483872	-0.6081678226774194	-3.9816918327596778
O	-1.220309978048387	2.8091475073225807	-5.712592202759677
O	0.10508279095161288	2.6209889373225805	-5.620430082759678
O	-1.0139232490483872	3.2449936173225806	-6.941874412759677
O	-1.563961806048387	3.9793431973225806	-5.167603802759678
O	0.1222281379516128	-0.8871429526774193	-11.873013072759678
O	0.9910868249516129	-8.21960230267742	7.694944487240322
O	2.0563026949516128	-10.60487858267742	4.945358417240322
O	-2.936114615048387	-8.50939172267742	3.6712434272403227
O	-4.0908407550483865	-7.995027642677419	7.186991347240323
O	-4.002537515048387	-5.091244812677419	9.576417227240322
O	-7.485087385048387	-4.29698536267742	10.917674027240322
O	-6.285012605048387	-0.07527182267741939	7.994756027240323
O	-4.6795739450483875	-2.7042555126774195	5.753968407240322
O	-7.144136945048388	-5.191781842677419	4.113291197240322
O	-6.090868115048387	-6.968345992677419	0.9238817472403223
O	-7.762524335048387	-10.294421882677419	-0.02242103675967755
O	-6.8566548550483875	-8.84381328267742	-11.400037572759677
O	-7.824329605048387	-7.74700860267742	-7.916033752759677
O	-5.908327265048388	-2.9367246726774194	-8.949523822759678
O	-9.002304785048388	-1.7459386226774194	-7.200527352759678
O	-6.961751015048387	1.6139646333225808	-10.959998472759677
O	-6.318808225048387	2.7118100473225804	-7.322330122759678
O	-5.886019825048387	7.35831675732258	-9.797173172759678
O	-7.387675275048387	9.268240747322581	-7.003533652759677
O	-5.738723555048387	10.24198792732258	-3.8222037727596776
O	2.597947414951613	10.06611502732258	-1.2710194397596775
O	0.7604884749516128	6.94921561732258	-2.5890013627596775
O	-0.9990870000483871	4.659726887322581	-0.22504542375967757
O	-4.677834745048387	5.553472797322581	-0.7977010377596776
O	-7.745772795048387	3.3629352173225806	-1.3775685417596777
O	-10.188395845048387	3.9253305573225807	1.5649087072403223
O	-11.703073775048388	-7.07052325267742	0.20181383324032243
O	-9.671579795048387	-3.9734015026774196	-0.6246944526596776
O	-9.261136115048387	-1.4892943226774193	2.2764525872403225
O	-6.215102435048387	0.7952725983225806	2.089715647240322
O	-4.124360685048387	3.0305383773225807	4.3065402472403225
O	-2.052566535048387	1.4883151543225805	7.134261917240322
O	1.3303470349516129	3.066534247322581	7.407228257240322
O	2.575975464951613	2.3941348673225806	10.804014527240323
O	6.276853234951613	2.246027677322581	10.287760527240323
O	6.284741294951613	-0.31302042267741936	7.655051067240322
O	8.515355274951613	-0.27173314267741944	4.5605635472403225
O	8.620188484951614	9.23551990732258	-3.522146172759678
O	3.9258565149516125	1.4608218413225806	-11.324127372759678
O	9.311613984951613	0.9127004863225807	-8.273352842759678
O	11.620999724951613	-0.1306807326774193	-5.409061972759678
O	12.313148524951613	0.5306058313225807	-1.7010478827596778
O	10.335868624951614	-2.5842804826774195	-0.7389210457596775
O	7.368226624951612	-0.8039175526774194	-2.3730602227596775
O	7.652121064951613	2.4358727673225804	-0.2797985937596776
O	5.985372264951613	2.796531107322581	3.1656170672403223
O	6.483095994951613	5.2664620073225805	5.9554657072403225
O	3.4480247249516127	6.49767251732258	7.857306187240322
O	7.7417300549516135	9.35250995732258	8.638242847240322
O	6.144213204951613	10.43945553732258	5.333304337240322
O	6.843670534951613	8.20033725732258	2.3229549272403225
O	4.031437774951613	6.63935466732258	0.2999233722403224
O	4.522974824951613	4.554799307322581	-2.9196927027596775
O	2.428907814951613	1.4846146323225806	-3.348908912759678
O	2.450611644951613	-2.1741613326774196	-4.517532242759677
O	2.386284924951613	-4.96941269267742	-2.0652375927596776
O	3.121478694951613	-7.97620082267742	-4.064055662759677
O	0.1309151499516129	-9.71387658267742	-2.3087117527596774
O	1.881186504951613	-9.50161618267742	1.0711739172403223
O	5.206172204951613	-10.84548048267742	-0.30640792275967754
O	13.534774624951613	5.390238157322581	-9.406936582759677
