25

O	5.922312328958967	30.308589066743597	7.552162940476209
O	5.050927995481589	29.734708625309256	6.517739172073242
O	6.998446915439326	30.17659891311769	3.6040873981938075
O	6.171978581149821	31.718856603541322	7.66968389185554
O	7.2619847981349865	28.537987521243192	8.06707204496031
O	8.75768152931435	29.104383462545606	9.401669531124291
O	6.816022361094725	32.13738099077264	6.498658340778142
O	9.741335458889699	24.492853953960825	4.381916734611739
O	8.730680191805364	26.542194020935916	7.050169927586597
O	7.396919027559993	31.06898331605341	5.625925985189899
O	7.910474863756642	30.014276225304457	6.317125681299827
O	7.168623796728105	29.785018129599695	7.502425321032678
O	3.9815356456378463	31.8678583625519	6.978443827377772
O	3.890476001166455	30.417520624624842	6.892095742181794
O	4.557461110141911	29.920823393474492	5.214916292208274
O	4.18166275225961	31.303310180259746	4.666932570647966
O	3.7042504072992504	32.32724087660584	5.592239186302007
O	4.309233438591977	33.642189911712705	5.7238396198790955
O	7.240432922384642	31.376606434298964	4.233858157246422
O	8.30121007015086	28.073437541680665	8.881556882803988
O	9.050212682202268	26.97702589802574	8.244478116717122
O	9.404307811054794	25.857868137243536	8.887918361217682
O	9.649665643484918	24.959808934417325	7.906087468675247
O	9.24306525219698	25.41608103291093	6.688353306641778
O	9.346194282513107	24.77607526685608	5.423877094631708
