92

O	0.4769329549152548	-6.484356087440679	-5.963035355593221
O	1.641056624915255	4.9410572925593215	4.319585854406779
O	0.34105937491525484	-4.758581017440678	-0.20398674159322072
O	-0.15930146008474522	2.477907402559322	2.1107918044067793
O	-0.36998278008474517	1.678706469559322	4.412152484406779
O	-0.4361828390847452	3.694172122559322	2.6591188744067793
O	-0.8866970770847452	2.927010052559322	4.636773724406779
O	-1.4160409930847453	-2.608947157440678	-0.43234393759322065
O	-1.256213195084745	-3.932851877440678	-3.2387062755932208
O	-1.9818043450847451	-1.027879547440678	1.5132678644067792
O	0.3498685249152549	-2.0788889674406783	-4.20320445559322
O	0.8939820749152547	-4.856153187440679	-4.015122445593221
O	-0.4244498200847452	0.25090313155932187	2.6063705344067793
O	-2.829924825084745	-1.6111789874406783	-1.6158854515932206
O	-0.19712752508474518	1.489937078559322	3.0412823444067794
O	-0.2971692550847452	3.9545698325593217	4.034380654406779
O	-1.7598564050847452	-1.2038416374406782	-0.7375860265932207
O	-0.45887397108474515	-2.6671099474406783	0.5018627944067793
O	0.1368878509152548	-4.105033107440677	-3.0936384655932203
O	-0.7081626895647452	-1.6328913674406782	1.3829995244067794
O	0.3672685749152549	-2.6168486674406783	-2.719731375593221
O	-0.3433801520847452	-0.5318500274406781	-3.6003613155932204
O	-0.9113844470847452	-1.8761977874406783	-3.0622317355932207
O	-1.0398765260847451	0.5092617565593218	-3.261958005593221
O	-2.4563611250847455	-0.5892005774406781	0.25460303440677934
O	-0.5869090440847452	-1.1965046774406782	-4.632145675593221
O	-0.9767973660847451	-5.028422907440678	-4.46590604559322
O	-0.2853136870847452	-1.9252959374406782	-1.9721694355932207
O	0.09168338791525477	-5.642084557440677	-4.789879345593221
O	0.25186709091525483	5.139361442559322	4.354548914406779
O	0.6788825849152549	-3.4623316374406783	0.07945026440677938
O	0.08879876791525487	-0.41942158744067815	1.4159063044067792
O	-2.183836375084745	-1.7807681074406783	-2.8192381055932207
O	2.672206584915255	4.044479792559322	12.11627159440678
O	-15.955401415084745	2.724183952559322	-6.455743655593221
O	-4.608043505084745	-7.842548187440677	-4.059439465593221
O	-4.131797405084745	-9.525039257440678	-0.6879264945932206
O	-8.131468155084745	-7.355160507440678	2.6854320344067792
O	-7.074055545084745	-4.927722957440679	-0.01274492459322063
O	-8.681177715084745	-4.803885527440679	-3.4305933555932207
O	-7.829437915084744	-3.083288027440678	-6.716941725593221
O	-10.547883185084745	-0.7816344674406781	-7.956337025593221
O	-6.741545995084746	2.754004352559322	-6.727980575593221
O	-6.233632345084745	0.2612223925593219	-3.875736425593221
O	-8.894585745084745	-0.14379185744067802	-1.2684705725932206
O	-8.053319775084745	-1.2354877374406783	2.295024084406779
O	-11.029694015084745	-2.701237637440678	4.367793354406779
O	-11.718863415084744	-4.927226677440679	7.35566911440678
O	-8.443818215084745	1.532943415559322	10.980451294406778
O	-4.454483275084746	4.836380632559322	10.44648079440678
O	-2.4498884750847454	9.656830292559322	10.56846419440678
O	-2.239833935084745	9.401084912559321	6.763931924406779
O	7.9635145049152545	8.125006422559322	-2.131286805593221
O	5.180714534915255	7.046221502559321	0.21241517440677926
O	1.961678354915255	5.314427342559322	-0.6771946395932207
O	-0.4639120670847452	8.141636112559322	-0.3171211795932207
O	-3.951172255084745	8.206349872559322	1.0695040644067795
O	-6.352491295084745	9.397126242559322	-1.7180806205932206
O	-9.268900435084745	3.369398012559322	2.883168344406779
O	-8.372365675084746	4.380537162559322	-0.6354245385932207
O	-4.706860135084746	4.592299362559322	-1.3580095575932207
O	-2.4089394050847455	4.8496349025593215	-4.29881178559322
O	-2.1982367950847452	1.9456533235593219	-6.700561125593221
O	1.409045694915255	1.037164644559322	-7.718959665593221
O	1.4052780249152548	-1.0327370874406783	-10.889698915593222
O	4.475719794915255	-3.217372727440678	-10.385707425593221
O	3.939752374915255	-4.534609607440679	-7.004865885593221
O	6.314832514915254	-4.857038947440678	-4.066540575593221
O	7.019134064915255	3.436986992559322	10.692072194406778
O	10.499818384915255	-0.8227764974406782	7.53576658440678
O	11.277426284915256	-3.700273867440678	5.0830236244067795
O	11.350567684915255	-4.631733377440678	1.351948184406779
O	7.895313554915255	-6.234112037440678	1.5384409144067794
O	6.700170614915255	-2.7259199174406783	2.615464634406779
O	8.081298854915255	-1.0098249774406782	-0.5107617925932206
O	6.022996274915254	-0.7354336774406782	-3.7221347355932206
O	7.124632024915254	0.22913293855932182	-7.221314135593221
O	4.870930124915255	2.4108398925593217	-9.35799594559322
O	9.717746484915255	2.019444311559322	-11.20723980559322
O	9.657104584915256	4.665143212559322	-8.42308202559322
O	9.765353084915255	3.3121824225593217	-4.86863970559322
O	7.0298390649152545	4.135141122559322	-2.3040464555932205
O	7.178039254915255	3.078184082559322	1.3277463144067794
O	3.911968644915255	2.0519618955593217	3.0309877744067792
O	2.472794354915255	-0.5284258374406781	5.458465954406779
O	0.6384290349152548	-3.601227247440678	3.976212794406779
O	-0.028069989084745228	-5.580259297440678	6.9256573744067795
O	-3.680615885084745	-5.811159807440678	5.887701304406779
O	-2.9673677550847453	-7.698268107440677	2.6371618744067797
O	-0.4977959410847452	-10.127424857440678	4.245984684406779
O	-0.9372144830847452	-13.512630757440677	5.813919364406779
O	16.516567384915255	0.7326499575593219	6.844231994406779
