27

O	19.03670750592188	-7.582784870947037	66.77936228926748
O	19.39575320865966	-8.75243935583138	68.56859247415507
O	17.86723638907217	-9.429488708335718	70.68557943407693
O	18.845190007171144	-7.554020485148509	68.1649324601437
O	19.80069031287535	-7.573802543280778	70.2418879724074
O	19.829650154802913	-7.17755654717095	73.38267822962331
O	17.430624338553677	-7.14247861351855	68.43732215512105
O	21.499871967445937	-8.942999629694047	72.08737399572941
O	19.51102478672717	-8.847730779182095	69.82258574791385
O	21.738112106804184	-6.918046947599482	71.2731839186379
O	17.74904355164692	-7.836473702983932	71.43001889314091
O	19.460836445362325	-6.622370875530052	69.08683078886108
O	18.92383669919638	-7.398775490249106	71.18094363978116
O	18.73012403440783	-6.333332071082939	72.17171491826734
O	20.989755366423413	-7.836391954210576	72.10672352096282
O	22.726501342234435	-9.269289963234261	71.70677905536773
O	23.294085854231042	-9.278663394850462	73.21813655879286
O	23.024767080534755	-7.832067292663452	73.46911693133225
O	24.228707041012495	-7.123315172048213	72.95703311288528
O	24.86805056413195	-7.933175990727529	71.94277008906792
O	24.157719560544514	-9.16816850563221	71.49162366220533
O	22.495240082973286	-7.518566158557905	70.22624140797592
O	22.61055585418266	-8.204301763671824	69.06098650637924
O	22.21011016656751	-7.488772325181463	67.82703898857922
O	22.44396846185064	-6.078916928566961	68.030055564046
O	22.245663454815283	-5.602216439715468	69.33560335771715
O	23.411308914485193	-6.31984493604941	69.95531565596201
