27

O	20.391639807682708	-9.117249095976423	68.43346559117781
O	19.061010308217448	-9.58147877426818	70.5111257914053
O	17.722470834095024	-8.693755432919467	68.7118637488367
O	20.173417987090353	-9.883951140164264	69.70500745942786
O	19.87525942722662	-7.822224240665626	70.13558079280457
O	18.517949728232722	-6.648076162508779	72.00149898783958
O	21.00983653265928	-10.295963213195026	70.79513339981196
O	21.35767488437173	-6.873024887733175	71.88314607893223
O	18.587856903179404	-8.484733224788279	70.36754672512767
O	20.259214582845043	-8.49722540722332	73.1327854971048
O	18.61364639841412	-7.115818418160791	68.22725471222205
O	20.877392853591015	-8.692304303822588	69.95950440478717
O	19.440515719181608	-7.003064911640804	69.29543096314345
O	18.479139832885476	-6.0839067058623595	70.19636187095762
O	20.127640371019712	-7.402488228191707	72.2166895749383
O	22.517808296561583	-7.476527389953378	71.43153527496403
O	23.19215898805613	-6.212067623826696	71.23675125868485
O	22.428193891807723	-5.808941336079487	70.01560024867221
O	22.776300392384	-6.823718345282652	68.98826119656881
O	23.996888796605415	-7.539168456091346	69.56901222622619
O	23.49885397013641	-8.277639389017086	70.74567287664897
O	21.676359147685893	-8.417148694774449	73.31756796112941
O	22.553347987424207	-9.450739150824045	73.50130893229908
O	23.90528352671593	-9.096043128268445	73.94950571326513
O	24.06977665424982	-7.6768184071305745	73.7404554524382
O	22.989780761462615	-7.065285911183957	74.5385052047659
O	21.625253404296057	-7.165399802894847	74.04734928668259
