27

O	17.281631532782136	-7.184976094914915	68.65871950840302
O	19.385001844851264	-8.649829846263719	68.42620883357766
O	18.075418018326445	-9.583663724788792	70.69509067338811
O	18.663044650594877	-7.492915280520056	68.26754091252279
O	19.81863238389757	-7.607185748091596	70.21117708531466
O	20.04288328865385	-6.262497581066711	72.69659868580608
O	18.883260526601443	-7.1398088537305675	66.92442075211996
O	21.29279639706068	-8.643649769390247	72.16759213787282
O	19.552185009462654	-8.844811347697672	69.66862715067214
O	22.02954170313569	-7.0639683681519285	70.79852872284236
O	18.779929946325375	-8.57198045828638	72.04152373437407
O	19.367117455170614	-6.587391177652258	69.18567467063453
O	18.883835685831123	-7.613911772689514	71.19764255522058
O	18.383483807502856	-6.410704848998465	71.89786543331405
O	21.111213590602055	-7.479428570709476	71.78218350992321
O	22.394666794635555	-9.330215037083184	72.01849681394204
O	23.842476363495372	-9.39382315960977	71.81763128263265
O	24.653971862709398	-8.127868518838078	72.10322528060317
O	24.06659105498789	-6.996655752074966	72.73768516781756
O	22.83005641018179	-7.497537188958656	73.38552954067426
O	22.949344283491033	-8.973234400824616	73.49372043000328
O	22.618315081528326	-8.062417586649888	69.95200700892177
O	22.494657815236053	-8.078313042317085	68.55177371097012
O	22.0710929366885	-6.794024313330374	67.97664632891869
O	22.389551726485166	-5.802733799536845	69.06015708327683
O	23.74996461031435	-6.109130285046807	69.52228672742699
O	24.025841284222167	-7.488701265543767	69.48358139796214
