29

O	-37.246868424401406	26.477274984862152	69.5439670024681
O	-36.020174935330964	26.06306736698534	68.6100596988324
O	-38.371186691099524	27.50107013175204	69.63446191846701
O	-38.21248194244258	25.557621097519704	70.33357632509626
O	-35.275795187299074	26.519860296205316	67.62346940573882
O	-35.69782769362543	27.899910431282496	67.40062516624779
O	-34.40994762638889	26.239110148688148	66.61244642177923
O	-34.39974364919764	26.02583071213091	65.1899122904584
O	-34.42049992430286	27.204886722111873	64.2659997980363
O	-35.77851963798789	27.554878835487663	63.73236178708718
O	-35.10223797717444	28.618521948062387	66.50296220955866
O	-36.9872845388666	28.25923050974528	67.61582610829008
O	-37.64123952674002	28.254583231609516	66.29858336267412
O	-38.664621606091956	29.117178473728917	66.43209527191682
O	-39.867878365146154	28.60697165627669	67.02839418936718
O	-40.39634154336435	29.112705682378884	68.27928294052722
O	-41.139997589431104	28.316401294004844	66.37320492141512
O	-38.054913973108626	26.851921602400655	66.27079469835695
O	-39.218378629035215	26.498030697916555	66.86798806200785
O	-37.38750226727782	25.86514650140555	65.97222804871618
O	-39.77452343848951	25.46123669960018	67.56378908755896
O	-40.80635746973098	25.80724187988092	68.47132646052647
O	-41.96936730617223	25.08150498112773	68.16717488613871
O	-41.715411697333764	23.72413511495258	68.37699482116491
O	-40.555309745571805	23.3262577440655	67.77118884319528
O	-39.41748327891245	24.150606984009606	67.72446736749436
O	-42.775598434641616	22.768795384717414	68.18446074169385
O	-42.572916246903986	21.560206487445257	68.78218299776175
O	-43.86091001155277	23.23766293613115	67.84905629591259
