23

O	-32.4416268232024	28.94559970240256	64.19495561462288
O	-33.11150184330822	29.385617271253498	65.32322019637806
O	-31.66800774541608	27.988339080629878	64.29423461323684
O	-33.333808886253905	28.416683248572493	66.33861976864675
O	-36.28094549718342	26.570079177355645	67.01571778936786
O	-33.46155692337222	30.588703252253815	65.79079569120628
O	-34.40778775382832	27.503792871908875	65.7767602211028
O	-38.58041633853179	24.673846386990675	69.32672383945568
O	-34.23346345698672	26.586030654090465	68.00966130328914
O	-34.93535724200531	26.871423348525898	66.99205298810503
O	-38.66305730886836	25.397587009038155	67.20666143385225
O	-36.93939423052589	26.457358513617447	68.28583446594331
O	-37.964878414203	25.358025850772716	68.22473085323429
O	-33.97150622569127	26.369658799261217	64.89440542848095
O	-35.21867634823616	25.526688334247986	64.64597303778379
O	-35.252197770207	24.245673953054485	65.4255587532848
O	-36.687516114194835	23.716922307942014	65.61358665464233
O	-37.89009752229978	27.618708980508693	68.31273797494957
O	-39.161065189198055	27.433295273707664	67.50250622380179
O	-37.411840568801765	28.648601613297654	67.38286216075738
O	-38.54490218458021	27.686418012041045	69.57505401567857
O	-38.61450900777505	23.207700185398167	69.12961690501379
O	-39.939350224608496	25.161219480660076	69.65654430256252
