69

O	-2.1670987443365854	0.941892983560976	-0.39260749178048787
O	-2.251056924336585	-0.11735629243902412	-1.3155965247804877
O	-0.8341133263365854	-0.4162305324390241	-1.679080364780488
O	0.11128038366341453	0.36557118056097593	-0.9854043047804879
O	1.1378440156634144	-0.5157562324390241	-0.7741815047804879
O	2.2427608356634146	-0.1651664624390241	0.12913854921951212
O	2.506676425663415	1.1449354521609758	-0.21264049178048788
O	3.121354665663415	0.8217389165609759	-1.4417850147804878
O	4.5665556256634146	0.8765018525609759	-1.0581684647804879
O	4.6196843756634145	2.090971419560976	-0.4115614097804879
O	5.677856475663415	2.673036077560976	-1.0706701947804877
O	6.852310255663415	1.9002951705609759	-0.6007530047804879
O	6.642198735663415	1.865501132560976	0.7491481332195121
O	7.141841565663415	3.130605717560976	1.0754184842195122
O	5.9906242456634144	4.029913927560976	0.7471398992195122
O	5.602568635663415	4.5436521775609755	2.000839015219512
O	5.252635175663415	3.3230656275609762	2.446401315219512
O	6.343842405663414	2.669837017560976	3.146632325219512
O	5.829907515663415	1.7338403025609759	3.9930046052195123
O	5.255185795663415	0.8872962915609759	3.0972756952195124
O	4.015851165663415	1.417156397560976	2.5922839152195123
O	3.3644346256634146	2.087627325560976	3.6713415252195123
O	2.3532934356634145	2.452403587560976	2.7461365052195124
O	1.5051886556634144	1.223557167160976	2.812006545219512
O	0.4474717806634146	1.570296579560976	1.9485958952195122
O	-0.6028991943365855	0.7883104485609759	2.394136075219512
O	-0.22265707663658546	-0.6195861124390241	2.2270689852195122
O	-1.0921985253365853	-1.241150812439024	1.3964507712195122
O	-6.5287469943365855	-6.373845852439024	6.359863175219512
O	-9.972508564336586	-5.182519172439024	5.247179475219512
O	-10.730680864336586	-1.4499130924390242	5.326514945219512
O	4.295042865663414	-11.401993682439025	7.056329675219512
O	1.2287102956634144	-9.133818282439025	7.165321915219511
O	2.8586063156634145	-6.778090112439024	4.6580325752195115
O	6.051590355663414	-6.321652232439024	6.716895345219512
O	4.0817540356634145	-6.043925972439024	9.895579545219512
O	1.8527758456634145	-3.3004291124390237	8.741418505219512
O	4.7559809256634145	-1.5333419624390243	7.151414465219512
O	3.395155455663415	-2.3104466424390244	3.641203425219512
O	5.878719955663414	-2.6808405024390245	0.6484446562195121
O	3.321983315663415	-4.545516792439024	-1.3811717247804878
O	0.14754186866341457	-6.466267882439024	-0.7539411547804877
O	-7.210166834336586	-7.167138032439024	1.1690736492195122
O	6.076425895663415	-6.447273192439024	-3.2034964047804877
O	9.236090075663414	-5.830400722439024	-1.2975331447804879
O	10.879565935663415	-2.521153872439024	-1.7203755047804878
O	2.9779703156634145	10.328285717560975	-6.131366114780488
O	1.0689244656634145	10.557269597560975	-2.8266108047804877
O	-0.18642971323658547	7.023502187560976	-2.1603348347804876
O	-1.2843497043365855	5.615192937560976	1.111458736219512
O	-3.621715764336585	-0.4221227524390241	4.387074585219512
O	-7.220805704336585	-0.6693357224390242	3.470429875219512
O	-7.476753784336585	3.124091277560976	3.717959915219512
O	-5.999172904336585	3.103566777560976	7.3108346352195115
O	-3.8430173843365854	6.2899494775609766	7.471514305219512
O	-4.5632605043365855	8.476379297560976	4.478716675219512
O	-2.4662482343365855	9.616337337560974	1.5235928852195122
O	-3.2990781943365852	11.152372127560975	-1.8336197247804877
O	-1.8482597343365854	11.840359517560975	-5.299362324780488
O	-3.1445791743365854	9.390561477560976	-7.915294204780488
O	8.068006785663414	3.476041607560976	-7.5116894447804885
O	8.014815335663414	-0.20736251243902415	-8.583926544780487
O	3.3982200556634146	2.715020827560976	-9.209235594780488
O	3.3253145956634147	-0.1682298724390241	-6.935317314780488
O	2.6533321256634146	-2.8429333124390235	-9.211037814780488
O	-0.21888866063658546	-0.764146412439024	-10.689720344780488
O	-1.5492360343365854	-3.8604379924390235	-6.207368944780488
O	-5.801121934336585	-2.6920392924390244	-9.117230954780487
O	-6.601506134336585	4.406244817560976	-5.260220064780488
