69

O	-1.9712182270975613	0.7907823000951221	-0.17700894585365828
O	-2.3811307570975613	-0.518252983904878	-0.18377264685365827
O	-1.3228756970975615	-1.5504421639048778	-0.23744354215365826
O	-0.4251407520975614	-1.2109879639048777	-1.2313309808536583
O	-0.02875856509756139	0.07674121609512219	-1.0328102598536584
O	1.2228150129024387	0.529710981095122	-1.5915992748536583
O	2.1853553529024388	-0.250892203904878	-1.0378282388536584
O	3.275775892902439	0.508657000095122	-0.8162530288536582
O	3.186681952902439	1.6447324430951222	-1.7674164948536581
O	2.932274652902439	1.065120409095122	-2.9313347548536584
O	3.587412732902439	-0.13547170390487784	-3.014285794853658
O	4.998904412902438	0.27359398809512214	-3.2507044348536582
O	5.2424025829024385	1.365486085095122	-2.5155605548536584
O	6.262094002902439	1.990715909095122	-3.253007574853658
O	5.545450132902438	3.2476523760951217	-3.4673261348536584
O	5.342205142902438	3.9193339360951223	-2.3140579648536583
O	6.372125792902438	3.717979656095122	-1.5341434848536581
O	7.210927832902438	2.571405326095122	-1.3050950058536583
O	7.266308172902439	2.395056936095122	0.061677602146341715
O	6.035856402902438	1.983537897095122	0.38810946614634173
O	5.121522262902438	2.970132586095122	0.24350065414634176
O	4.780633942902439	4.171682976095122	0.6319410951463418
O	3.4243179929024388	4.005687256095122	0.2690254141463417
O	3.036452712902439	2.978636556095122	1.3328583751463419
O	1.7653195629024385	2.6390705460951223	0.9317412551463418
O	1.2474929129024386	2.078641044095122	2.1349041751463416
O	0.8002137689024386	0.7655028590951221	1.6921912151463419
O	-0.28337269909756135	0.17208624609512202	2.193307155146342
O	-3.7409720970975613	-2.1220622039048775	10.257173645146342
O	-7.468897967097561	-1.403816803904878	9.84333664514634
O	-8.514810967097562	1.959207038095122	8.37560734514634
O	7.218946812902439	-6.877732593904877	9.928231445146341
O	4.123063762902438	-4.646462323904878	9.879258645146342
O	4.707602062902438	-3.885403943904878	6.201187515146342
O	8.309414382902439	-2.7009335439048776	6.711090185146341
O	7.360951382902439	-0.8198014639048778	9.806732445146341
O	4.676059082902438	1.183521932195122	8.251681865146342
O	6.768072002902438	1.8277724690951223	5.1523834451463415
O	4.579438472902439	-0.4116193739048779	3.0622417651463416
O	6.077158462902438	-2.454036063904878	0.07524626414634172
O	3.1645411229024387	-4.851950643904877	0.013265649146341707
O	0.4907099129024386	-5.999151503904877	2.3921737451463416
O	-5.8721030470975615	-5.265160773904878	6.5889880351463415
O	5.418836792902439	-7.583668553904877	-1.4178959848536583
O	8.936178872902438	-6.281021323904878	-1.1171891788536583
O	10.05925139290244	-3.6654318039048777	-3.531811374853658
O	0.030461960902438606	5.899550066095122	-10.88063185485366
O	-0.8095292190975614	7.812877476095123	-7.685472824853658
O	-1.5246263570975613	5.143279846095122	-5.080162714853659
O	-1.2481415970975613	5.475001596095122	-1.3110057048536583
O	-2.0764356370975614	1.978511870095122	4.8739703751463415
O	-5.803005147097561	1.5687044050951222	5.4797088951463415
O	-6.305445257097562	4.975584026095122	3.863590225146342
O	-3.822280487097561	6.574262296095123	6.374697085146342
O	-2.101278267097561	9.362671036095122	4.373900875146342
O	-3.810749757097561	9.820171096095123	1.0530841451463417
O	-2.7036423270975614	9.270527516095122	-2.539689414853658
O	-4.666539887097562	9.094632476095121	-5.781224984853658
O	-4.4637310570975615	7.982224796095123	-9.443027894853659
O	-6.252067467097562	4.665433036095122	-10.06328964485366
O	5.156289922902438	-1.026441983904878	-10.276020524853658
O	5.118896592902439	-4.792318023904878	-9.45343616485366
O	0.26375254690243866	-2.2663452939048776	-9.960810984853659
O	1.1190473129024385	-3.7076055639048775	-6.672890644853658
O	0.0670527739024386	-7.050057123904878	-7.067841384853658
O	-3.3029804570975614	-5.821692123904878	-8.477617944853659
O	-2.952656987097561	-6.362011283904877	-2.8599074948536582
O	-7.962063067097562	-6.352735483904878	-4.506424714853658
O	-8.243768577097562	1.7535268220951221	-4.431198804853659
