68

O	-1.823562066487179	-4.43587084755641	0.9202816315641027
O	-0.8742867584871792	-3.1523586375564103	0.9195639815641028
O	-3.294444958487179	-4.81886010755641	0.8189892715641027
O	-1.5642144594871792	-5.82865007755641	0.29214115656410267
O	-0.9128291784871791	-1.8419040675564102	1.0512632515641027
O	-2.2927973854871793	-1.5076660935564103	1.3922648515641025
O	-0.29045243848717917	-0.6485604533964103	0.8531261015641027
O	-0.2681266784871792	0.44805003244358976	-0.07754172143589733
O	-1.3280477494871792	1.5039224724435898	-0.0006073014358972673
O	-2.462514363487179	1.3198602924435896	-0.9652772784358973
O	-2.619090253487179	-0.2757398695564103	1.6220890215641026
O	-3.3130304484871793	-2.2582971375564105	0.9087373415641027
O	-3.835723128487179	-1.5374278625564104	-0.2617100194358973
O	-5.113327428487179	-1.9461738375564104	-0.3610117944358973
O	-5.343093018487179	-3.19583379755641	-1.0312863514358974
O	-5.922508518487179	-4.345377287556411	-0.3660117114358973
O	-5.9259499684871795	-3.4108021075564103	-2.352671168435897
O	-2.954244256487179	-2.1124139475564103	-1.2774582184358974
O	-3.286177948487179	-3.29951640755641	-1.8397183584358974
O	-1.8033083094871791	-1.7902393275564101	-1.5600453544358972
O	-2.703188827487179	-4.43417987755641	-2.3306770184358974
O	-3.486451078487179	-5.61300474755641	-2.260696248435897
O	-3.617614848487179	-6.17272699755641	-3.541829018435897
O	-2.355701666487179	-6.57818708755641	-3.982451358435897
O	-1.4227930494871792	-5.59012843755641	-3.8257176984358976
O	-1.423813554487179	-4.73332729755641	-2.711144058435897
O	-2.230061663487179	-7.236683187556411	-5.256946068435897
O	-1.075426177487179	-7.94191189755641	-5.425790518435897
O	-3.278738658487179	-7.40596617755641	-5.874889408435897
O	-8.66848949848718	10.02817322244359	0.8408222215641028
O	-0.534457028487179	0.1276294324435897	13.494693361564103
O	-3.353229878487179	-0.3304275475564103	9.552672861564103
O	-4.602334108487179	-3.6109311875564103	10.974577761564102
O	-8.238719118487179	-1.1929954575564103	7.468693791564103
O	-6.583722518487179	-4.474025737556411	6.594964731564103
O	-3.467540078487179	-2.7607880375564102	5.352534941564103
O	0.18051297151282109	-4.204670867556411	5.385519571564103
O	1.6801750115128211	-0.7779278475564103	5.604367661564103
O	0.947284101512821	2.8275329324435896	6.774082261564103
O	-2.609138038487179	9.255119062443589	5.714205971564103
O	4.8117905515128205	-1.9333975075564105	8.000341001564102
O	3.7501997315128213	-5.44293947755641	8.927213631564102
O	4.005085361512821	-8.16786527755641	6.366218381564103
O	6.089433121512821	-3.4983015975564102	-10.242641028435898
O	2.988399071512821	-5.12665619755641	-8.935619458435896
O	-0.5782407684871791	-3.78005032755641	-9.076698468435897
O	-0.8564358984871792	-1.7701951575564103	-5.878582098435897
O	-3.7392392584871788	0.005726170443589695	-4.396929988435898
O	-6.174424368487179	2.98866946244359	1.5882825115641028
O	-6.185503238487179	6.68661073244359	0.6235930415641027
O	-7.387434098487179	5.8350188124435896	-2.899645288435897
O	-10.297274928487179	3.7344154124435898	-1.3789025714358973
O	-10.71584454848718	0.9051326424435896	-3.8803234984358976
O	-8.428842588487178	1.3270493824435898	-6.940600098435897
O	-5.374375848487179	-0.6962671168564103	-8.186560708435897
O	-2.638434897487179	-0.12949023355641032	-10.678196338435898
O	0.8695432715128208	-1.2648168185564104	-11.703352838435897
O	3.4345611315128206	1.2008188324435896	-10.438920218435896
O	7.42325825151282	-6.78811650755641	-1.6984327084358972
O	9.179009221512821	-5.11847847755641	1.3240895415641027
O	11.18322882151282	-2.92112370755641	-1.1206605664358973
O	8.00467012151282	-1.8567251075564104	-2.9742528784358973
O	5.909418131512821	-1.3597008645564101	0.21037122256410268
O	8.753108321512821	0.8041291924435897	1.7829065515641027
O	8.95998312151282	2.95482921244359	-1.3522906574358973
O	5.062734711512821	4.42745476244359	2.349232031564103
O	6.328911561512822	8.407975472443589	-0.8851558904358974
O	0.8723741215128209	5.6896063224435895	-6.2616177484358975
