28

O	-41.54330969586232	28.6110176213449	70.28482084404936
O	-41.370328517521244	28.125722860648875	69.00663374749365
O	-40.113034921182916	28.588260431776845	68.33210788158252
O	-39.32270881045535	27.508351049407946	68.08398072348974
O	-38.03499853412088	27.7964146706725	68.32265859634924
O	-37.61757829098792	29.12846948505795	68.77959949369327
O	-38.65565271919155	29.559113600729155	69.56241725742919
O	-38.42368149877355	29.29128948911064	70.8219258167333
O	-37.52804117933674	28.281302699457058	71.3179246752713
O	-37.1590136056746	28.67371597646831	72.57923179548365
O	-37.48386468148867	27.67513718531112	73.43002671312207
O	-38.49683706508697	26.809349849838725	72.88866496428061
O	-39.39064295638143	27.136954057277954	71.94344045506196
O	-39.34821166681702	26.242014329185096	70.92220516572108
O	-38.3863059786898	25.189414154906622	70.91523098686761
O	-38.218456317901044	24.757201077858973	72.17967551327676
O	-36.89393553904136	24.5954736251339	72.4241107253011
O	-36.20083844698478	24.404375054611414	71.1626576989989
O	-36.26691277313973	25.56368218245044	70.44170340558448
O	-36.3062458898611	25.13044795544458	69.16239132532225
O	-35.106676219452204	25.612538249432838	68.43855790078757
O	-35.238262275441755	26.930775873187578	68.72511177621327
O	-34.81190263234675	27.635314563502785	67.67136503906644
O	-33.95753939416404	27.0346966139377	66.66961238224104
O	-34.417991429991304	26.838138928475917	65.39238100926153
O	-34.40643789241542	28.0900918989888	64.75380458272087
O	-34.72400560126701	29.102803009543745	65.81150030127786
O	-36.0595266654973	29.36477166859362	66.00293879683848
