29

O	-37.35210630235587	26.560240824968727	69.55090970430773
O	-36.10084830436088	26.060071814166783	68.66313581543528
O	-38.54390420093212	27.549674064087082	69.65652962846968
O	-38.291059893664	25.618735457852257	70.35755333506737
O	-35.31718412637736	26.47228074251289	67.67523544436787
O	-35.75003901749549	27.83092425398095	67.32643737062865
O	-34.50474264946081	26.205255851423534	66.62769872676596
O	-34.52024596485539	25.68735700334254	65.2782136597746
O	-34.42915854841439	26.86549311781405	64.3090307934699
O	-35.70248021941512	27.131088286066927	63.578170766866286
O	-35.29656200311246	28.52283884296815	66.3326233895153
O	-36.92835407469593	28.29273144454858	67.83057976610216
O	-37.876013457751014	28.354874973143364	66.83844854579083
O	-37.4105738996382	28.958180825617823	65.61779700012916
O	-38.75082071761978	29.718219089507286	65.5815407658005
O	-39.995686131625625	29.18064371927162	66.32689089217914
O	-38.385558336293926	30.7478428396921	66.55313116066098
O	-38.21480111626101	27.000291470866586	66.46063611141719
O	-39.44469865321115	26.605762130281462	66.8305465260199
O	-37.50462482307685	26.102529495437512	66.03325282904423
O	-39.86674769696178	25.53447229749128	67.5836428430239
O	-39.457682744461295	24.249802459329292	67.73319641542824
O	-40.53868279836649	23.374153592145785	67.84038530348069
O	-41.71980205318281	23.73255059279774	68.4674812238481
O	-42.03892107216593	25.062154764728913	68.19913455591525
O	-40.941153525335345	25.909513825617957	68.40491147823113
O	-42.73172196751122	22.729276691396404	68.23911095099153
O	-42.4721871583597	21.513882437303803	68.79801901277784
O	-43.84217743125079	23.135503334507042	67.91229319234859
