68

O	-2.6633981417756094	-2.7175323925609756	-0.46017496299024374
O	1.4810908382243904	-1.7549593825609757	-2.032535528990244
O	1.3651850982243905	-5.651830262560976	-4.0877461289902435
O	4.21538946822439	-1.6752323325609757	-2.5781625689902437
O	1.5916395382243904	3.0124231374390247	0.5798731410097563
O	1.4577164482243905	4.246087027439024	0.10753702400975629
O	4.13267468822439	-3.7339837525609756	-3.822554568990244
O	1.6925508882243905	-5.066857732560976	-1.6320810739902436
O	1.4803297682243903	1.8861394474390243	-1.3779019969902437
O	3.7022882282243903	-5.254636892560976	-0.9591744569902437
O	2.8313594482243905	-1.7587427225609757	-0.24223767799024376
O	3.3374949082243903	-6.696466442560976	-1.3105741859902438
O	0.1272192062243903	-3.8764466825609754	-2.615436698990244
O	2.3489238882243906	-4.826707752560976	-0.38668860299024377
O	-2.6476358417756094	-1.2153331425609757	-0.7191734059902437
O	-1.4525277117756097	-0.9916153865609756	-1.6391394799902437
O	-0.8811840697756097	0.3598224724390244	-1.2159775829902437
O	-0.19383809667560967	0.09593756443902438	0.12232271900975622
O	2.2545218782243905	-6.490983952560976	-3.445385158990244
O	2.2903859982243904	0.6692441894390244	0.3692852610097562
O	1.9856005682243905	-6.410929882560976	-1.981039548990244
O	3.54796301822439	-3.0061666925609756	-2.6925465289902437
O	1.2130242282243904	-0.20474991256097563	-0.1501264659902437
O	2.1472364982243906	-2.8481347125609755	-2.597792798990244
O	2.0180226882243906	1.9786046774390245	-0.2695449669902438
O	1.6349314382243905	-1.5214287125609758	-0.6205015629902437
O	1.3830511782243904	-4.036302122560976	-2.532766948990244
O	4.95729119822439	9.981768237439024	-6.778908428990244
O	9.988552528224389	0.9859739574390244	8.125228351009756
O	13.39090562822439	0.8226649274390244	6.385244671009756
O	8.83927997822439	0.2525761264390244	3.449883671009756
O	10.911561328224389	-2.9347676325609755	3.527419151009756
O	10.49626002822439	-0.8477251965609757	-1.5539178409902439
O	8.75976285822439	-4.146789212560976	-0.8283455083902438
O	5.748179398224391	-2.4146462625609755	0.7405229810097563
O	3.6070038382243905	-3.9718563025609757	3.6174480910097557
O	2.6056301782243905	-0.5361276985609756	4.807513481009756
O	3.7283116782243906	3.1568737174390247	4.812671441009756
O	4.699342018224391	9.586493817439024	1.0790842210097562
O	8.09000208822439	10.493118037439023	2.479556411009756
O	2.5002640482243903	-1.6200136025609757	8.716428141009757
O	4.13110536822439	-5.047016122560976	8.594438691009756
O	2.23125797822439	-7.953837452560976	7.172166851009756
O	-12.13834397177561	-4.487450742560976	-2.138712108990244
O	-9.05917028177561	-6.016402122560976	-3.568083638990244
O	-6.690974641775609	-4.771706402560976	-6.306202728990244
O	-4.24756962177561	-2.4356015225609755	-4.593932688990243
O	-1.0671450127756097	-0.8052204745609757	-5.711514658990244
O	4.629729688224391	3.0315056074390245	-4.071249598990244
O	3.4918828782243905	6.659159627439024	-4.920378918990244
O	1.6695527182243903	5.377873847439024	-8.035516958990243
O	4.873769078224391	3.4396478674390245	-9.086847588990244
O	3.5880789082243902	0.20147758643902436	-10.679964468990242
O	-0.17688622797560966	0.3325909934390244	-11.024739488990242
O	-2.9724830317756097	-1.6759556825609758	-9.408807658990243
O	-6.706591001775609	-1.2643914925609758	-9.127460668990244
O	-9.77577824177561	-2.4511604425609756	-7.175927298990244
O	-10.82146907177561	0.09513417543902436	-4.567051318990243
O	-6.045677621775609	-7.352155562560976	4.404328481009756
O	-5.0865374817756095	-5.538294522560976	7.6512674710097555
O	-8.424562691775611	-3.6334917325609757	7.546446451009756
O	-7.836154601775609	-2.5741038225609754	3.926289801009756
O	-4.172085541775609	-1.6862897625609758	4.557260101009756
O	-5.050654221775609	0.4885259024390244	7.640955641009756
O	-7.661618951775609	2.3443534474390244	5.5831316010097565
O	-2.45196902177561	4.159825587439024	4.966909311009756
O	-6.04661559177561	7.879152357439024	3.6798492110097563
O	-6.5054365817756095	4.876287947439024	-3.8864826489902438
