70

O	0.7624722301063827	0.09649596212765954	-2.0109591047446806
O	-0.5439754768936174	0.3701735501276595	-1.645413024744681
O	1.3504379401063826	-0.8442711878723406	-1.4687929047446806
O	-0.9231518108936173	-0.02065118787234055	-0.33286924074468094
O	-1.1624833628936173	1.9817665621276594	2.5803877152553194
O	-1.6345818318936174	0.7689055381276595	-2.308867514744681
O	-0.21871993189361727	0.9617314251276594	0.5842925380553191
O	-2.5801842998936175	2.77484486212766	5.984086405255319
O	-1.5408631078936172	-0.23376190787234052	2.221746905255319
O	-1.0053837786936173	0.8432531341276595	1.818099725255319
O	-1.2295444558936173	3.80342701212766	4.520158335255319
O	-2.294519849893617	2.0725939071276596	3.4577136752553193
O	-1.8946579928936171	2.7825797021276593	4.722590915255319
O	1.1965384401063826	0.6563179711276594	0.9829377552553191
O	1.5682056801063828	1.6918289751276596	2.039976825255319
O	1.5877830301063829	1.1524046451276595	3.439445845255319
O	1.3943900001063827	2.2608679111276597	4.492526975255319
O	-3.1319173898936175	3.1694090621276594	2.866902935255319
O	-2.6461095498936174	4.5796032821276595	3.152482255255319
O	-2.7989386998936174	3.3105665821276595	1.444483403255319
O	-4.350996449893617	3.2987850821276594	3.590714745255319
O	-1.6592290748936174	2.5637053621276595	7.122883895255319
O	-3.4045583798936176	3.9801541221276597	6.230363365255319
O	-1.8378855538936172	0.9425818391276595	-10.37626831474468
O	1.4970059301063825	2.2623351311276596	-11.67259541474468
O	2.8290202201063828	5.4901101321276595	-10.19570271474468
O	-5.315390929893618	-7.6020279178723404	-7.046220194744682
O	-7.6929207298936175	-7.782632717872342	-4.0635210447446815
O	-10.429114069893618	-6.08042905787234	-6.1472563147446815
O	-8.009606479893618	-3.258394477872341	-7.026280614744682
O	-6.852522719893617	-3.082693147872341	-3.394927174744681
O	-10.357880359893617	-2.666693537872341	-2.027379874744681
O	-11.260193799893617	-0.2238218478723406	-4.8317650547446815
O	-8.336941039893617	2.0650354001276594	-4.106482344744681
O	-9.012488379893618	1.7942900801276596	-0.39779309374468097
O	-5.645905269893618	-0.08065974787234054	0.09414614425531909
O	-4.991911619893617	-2.4818529378723406	3.0397988552553192
O	-2.3198691498936173	-4.277258857872341	0.9957721902553192
O	-1.1358912398936174	-4.768784637872341	-2.581803834744681
O	1.8296680201063829	-6.263705757872341	-4.439352044744681
O	2.107649240106383	-2.170370357872341	-8.790708104744681
O	-0.3150621118936173	-3.6436742378723403	-11.29822721474468
O	-3.2169378698936173	-8.02544380787234	2.432602865255319
O	-6.510493139893618	-7.363777907872341	4.239689365255319
O	-6.498295239893618	-5.366521217872341	7.460215365255319
O	4.491915410106382	4.862771892127659	11.072732485255319
O	3.5960432901063824	7.4333040021276595	8.38478737525532
O	3.1558912501063823	5.377229572127659	5.194431295255319
O	1.2709338101063825	6.2699159621276594	1.9938668352553193
O	-0.9818118218936173	3.73345137212766	-4.0195126247446815
O	1.9746889801063825	4.041129502127659	-6.3407825147446815
O	2.960214000106383	7.34997103212766	-4.759931184744682
O	-0.6594159768936173	8.66547792212766	-5.304000364744681
O	-1.3078557398936173	10.92782203212766	-2.2953972747446807
O	1.8875028801063827	11.25820420212766	-0.22457007074468094
O	2.7905439301063826	9.99503627212766	3.286135235255319
O	6.063660560106382	9.67131047212766	5.213160525255319
O	7.609121420106382	7.930470922127659	8.27666541525532
O	9.746548300106383	4.9547219621276595	7.202180285255319
O	0.8654404901063828	-2.944937057872341	11.41473968525532
O	0.8868829801063827	-6.46174255787234	9.80838581525532
O	4.700816640106383	-6.583615497872341	10.18059863525532
O	5.143735440106383	-3.169947407872341	8.579100915255319
O	2.6042313401063826	-3.9430910778723405	5.7305388152553185
O	4.301795210106382	-7.24695350787234	4.881223055255319
O	7.673757140106382	-5.472366957872341	4.688714235255318
O	4.455848560106382	-4.938543087872341	0.08749445125531907
O	9.688641300106383	-4.43279825787234	-0.9465229947446808
O	9.380158400106383	1.8464671701276596	-2.722709194744681
O	9.176678500106382	3.461100712127659	0.7527297332553191
