28

O	-34.556605294684466	27.31589522423471	63.601449286801184
O	-33.199346306182356	27.200011090349033	63.43999864325038
O	-32.386869837841196	27.082052925472496	64.67051345423715
O	-32.96393793330782	26.132029866652466	65.49113396767939
O	-34.28249287832202	26.43717241507132	65.6430439343826
O	-35.00098157542211	25.935293667152543	66.7901075363522
O	-34.368790785613285	26.441077263286388	67.8796052912993
O	-35.2955804849438	26.738600719267374	68.81103868526445
O	-36.468339084861725	25.878253485347862	68.51480063100556
O	-35.946870584082404	24.66860212990434	68.37269819900331
O	-34.8976717619177	24.501938452239468	69.2380959404011
O	-35.576739819018925	24.320451120342778	70.5501425091653
O	-36.63239755565168	25.142736207293076	70.5874280754398
O	-37.49133413355837	24.472665679486568	71.47497777829966
O	-38.60821788556014	24.346473281489956	70.53900431348039
O	-39.13663834753328	25.54557856043833	70.2143345407797
O	-39.06622900608586	26.323293258793605	71.26302375121506
O	-38.078737880802244	26.474739572083287	72.29869264325168
O	-37.80677979481677	27.824155175576387	72.38442144360312
O	-37.15137475010839	28.09800522360744	71.25068090090636
O	-37.961495670428825	28.016991613873127	70.1702048030969
O	-39.04493768725341	28.493153749810364	69.61321541441465
O	-38.66210365885625	28.097167575950248	68.31110620869832
O	-37.49949250734544	29.070921605970664	68.11835874668732
O	-36.96532092370666	28.62456663716338	66.93201669433175
O	-36.22483066661847	29.77179210198328	66.52535394677383
O	-34.891568720518954	29.220450513588318	66.32832520140028
O	-34.07096852933505	29.65644550361878	65.37232112691291
