28

O	-12.24102758433777	-4.737342316954722	58.791880354131585
O	-13.512968840014793	-4.540570724661512	59.251409347684664
O	-14.34196393591216	-5.617265388368766	59.200395669075576
O	-14.23855647231342	-6.317205137801256	58.015736868064415
O	-13.006544460493608	-6.49029179910938	57.48294664019154
O	-12.03582568312156	-5.567370253949109	57.740572862775096
O	-15.470933022728088	-5.585886193846794	60.141957379826465
O	-15.598229241648987	-6.916401994656724	60.729744245875075
O	-16.899127166005893	-6.812309185969987	61.48457648154838
O	-17.878176556701035	-5.896776645785794	60.702440948957104
O	-19.17269519127622	-6.1834110453949584	61.38354271087693
O	-14.454551757703332	-7.140758784600012	61.548274883243415
O	-17.47687324079975	-4.716585941600247	60.68408490547283
O	-19.623126400967838	-7.4954856101974	61.678253291677336
O	-20.797041731785356	-7.832717960961913	62.53465291440072
O	-21.18460523413254	-6.809469038083018	63.47038150300425
O	-20.921388124864304	-5.56678355620399	62.9985031961763
O	-19.632124807637986	-5.1925824783830645	62.302757300464194
O	-22.366708774136228	-6.752517684630636	64.14614661959652
O	-22.945344955391146	-5.615240028679514	63.6127381326709
O	-22.140999692085227	-5.135875634711292	62.58595448736123
O	-22.976710335331752	-7.533573560541808	65.1993547123568
O	-14.090431683772245	-3.355670743310654	59.61096406577565
O	-23.928673470168185	-8.505008899287889	64.87747717900032
O	-23.760132238088445	-6.670383216451288	66.00478241740412
O	-22.260403090652634	-8.187239334393915	66.14439518150196
O	-11.341668806297955	-5.249378922897844	56.606398604159786
O	-12.991259946017838	-7.043385967804843	56.23431981014414
