79

O	-3.9391338722600007	1.162235492854545	1.378097710638182
O	-2.5942921952600004	1.6140949378545453	1.713298350638182
O	-1.5173316002600008	2.985468071854545	2.3551178206381818
O	-3.648666252260001	-0.06855749414545476	0.7872304976381819
O	-2.302872967260001	4.200488421854545	-1.0001837993618181
O	-2.7074904102600006	-0.6179931981454548	1.789008280638182
O	-4.98999620226	2.8154437618545454	2.3776083406381816
O	-2.520392041260001	0.5824617368545453	2.592533230638182
O	-2.139278820260001	2.9032060818545453	1.313951523638182
O	-2.8279794942600005	3.6430407618545453	0.19041699763818193
O	-3.1280532222600006	2.2133540018545452	-0.25410133636181803
O	-0.08822889226000075	0.4526004728545452	0.3764530762381819
O	0.1891513177399995	1.7496681248545451	0.29237504343818194
O	-0.7184703222600006	2.648745621854545	-0.410724327361818
O	-1.8467211280600007	1.8733874538545452	-0.659799291361818
O	-1.5746629332600006	0.9324828587545452	-1.518586839361818
O	-0.7909150122600006	0.010204127854545164	-0.687438299361818
O	0.6589074677399993	-1.5939734881454548	3.804059540638182
O	0.33413886773999923	-0.29177020814545485	4.041870290638182
O	0.29182355773999946	0.4831013728545452	2.875517730638182
O	0.29902545773999956	-0.07373781414545477	1.644322750638182
O	0.16297142773999918	-1.4059650681454547	1.522650450638182
O	0.18390861773999934	-2.162818228145455	2.663487220638182
O	-4.574857912260001	1.6019116628545453	2.602844120638182
O	3.5287284277399995	9.382264511854546	9.435031980638183
O	0.0699958177399993	8.763085281854545	8.107128020638182
O	-0.27576875226000075	12.264666791854545	6.615139680638182
O	8.51178680774	8.824546961854546	3.6790664406381817
O	7.85777031774	6.940509061854545	0.44515625763818195
O	6.354052447739999	9.776509611854545	-1.599189119361818
O	4.09095275774	10.635158291854545	1.366409820638182
O	2.7823512977399996	7.172824851854545	1.638096670638182
O	2.745242687739999	5.907847851854545	-1.8921820793618178
O	2.4374068877399995	8.645497221854546	-4.379094729361817
O	0.9152960877399994	11.922214491854545	-3.1892695793618184
O	-0.8709577062600007	10.545751631854545	-0.15587676936181805
O	13.44604580774	2.0831060618545454	0.16811593263818195
O	12.36301750774	-1.536832438145455	0.28874071973818194
O	3.3140160977399993	11.390545191854546	-9.775631929361818
O	0.9750834777399993	14.397055391854545	-10.237511229361818
O	-3.9169662322600005	4.083961961854546	-13.072903129361817
O	-5.767114342260001	2.7091414318545453	-9.982468929361819
O	-2.8971683022600008	3.451429571854545	-7.710732279361817
O	-1.2562141712600008	6.103964701854545	-9.736152529361817
O	-1.8407994629600006	7.903872671854545	-13.071003029361817
O	-8.16426431226	-7.064259578145455	2.4693813306381815
O	-5.185630142260001	-5.881290258145455	-2.263030959361818
O	-4.912682122260001	-4.722136188145455	-5.943749549361818
O	-7.8092051422600015	-2.277304568145455	-6.568932529361818
O	-9.51008083226	-3.4262766081454545	-3.3869249993618182
O	-13.21745879226	-3.4058585781454553	-2.729418399361818
O	-14.75674879226	-5.068566018145455	0.34860063243818196
O	-10.89740366226	-2.8184945381454547	-8.385946989361818
O	-7.677606942260001	-5.776410048145455	-11.606292729361817
O	-4.559655922260001	-6.790624478145455	-13.497725229361818
O	-6.9699309322600005	-9.098054508145456	8.016889070638182
O	-4.997184242260001	-5.998820628145455	8.725540110638182
O	-2.1579776412600005	-4.998737538145455	6.356418710638183
O	-2.4081601132600006	-6.6959173181454545	2.9377867006381817
O	-5.3897830222600005	-8.371931018145455	4.489798590638182
O	-3.0310454822600006	-9.560852108145454	7.203497730638182
O	-0.7892863622600006	-11.096051208145456	4.567265870638182
O	-3.248399202260001	-11.225964808145456	11.110178670638183
O	-2.6876971982600004	-7.613952228145456	12.150091070638183
O	0.4718340477399994	-5.870987898145455	10.861340970638182
O	0.8066911277399993	-8.153860428145455	7.8718128206381826
O	3.3522598277399998	-8.253257888145455	5.1660270106381825
O	7.598012347739999	-8.569457528145454	-0.5525166173618181
O	8.05360448774	-3.709714848145455	1.767573700638182
O	8.62815640774	-0.3105517881454548	0.03391117363818191
O	9.67920800774	0.16276845585454525	-3.5453221093618184
O	6.85697581774	2.2637324018545453	-4.934466069361818
O	4.02004072774	0.022176934854545194	-3.8762737593618186
O	5.591704677739999	-3.369311418145455	-4.1794783093618175
O	2.685528737739999	-4.894389518145455	-8.889663279361818
O	5.167405257739999	1.1638547898545453	7.406637140638182
O	4.97657724774	-2.6801102681454547	7.646763090638182
O	0.5625463577399992	0.5687628848545452	11.505139370638183
O	-2.6471016782600008	2.154727231854545	12.784217570638182
