33

O	-17.697938342411206	-2.107587772146916	56.115280128971186
O	-17.292006933012352	-3.394681786409328	56.41436496695936
O	-17.78970001296241	-3.9823028801311544	57.55732386607259
O	-18.7043408354087	-3.2912235964507905	58.36449298484668
O	-18.531104589866956	-3.7920174793235097	59.575912998101686
O	-17.524357925295615	-4.665478001901242	59.56582787786506
O	-17.092325536342553	-4.91340323448316	58.33015924672152
O	-19.247869668941277	-2.109907800433912	57.95529224407784
O	-18.73516509645963	-1.5444981064261487	56.81174743627444
O	-19.086185106414245	-0.23432244554043802	56.93759912202996
O	-20.32723197464434	-0.2971509401655146	57.4808100720112
O	-20.230762171443097	-1.3204601589096305	58.42013571072906
O	-16.118769958268604	-3.7511098705772685	55.960775314374004
O	-15.88107433970098	-5.5648249484688215	58.039088412169946
O	-14.73802330505165	-5.482098263867068	58.97851655484707
O	-13.656997305938113	-5.3570746051310705	59.505649469758865
O	-12.226872480326653	-4.971355792467119	59.49587442901004
O	-17.293116414139167	-5.515873128337525	60.64662486027545
O	-16.268262434627907	-5.5704573731210685	61.60847699334394
O	-15.942309216902848	-6.920459424384185	62.11481667764536
O	-16.76723139253998	-8.052371927571127	61.57052661473466
O	-16.97096156994879	-7.640553955556174	60.085562616112625
O	-18.148510557894536	-6.714506947475662	60.54488155557219
O	-14.5698812856604	-7.301560097168967	61.99703300910928
O	-16.35224783150244	-1.474751423168537	56.27070551547047
O	-15.69311358362107	-2.3237823203210866	57.54141062515547
O	-16.09228720547547	-1.9831284789768846	58.877357617787084
O	-15.945345819463256	-0.6142267879071963	58.90557326093285
O	-15.147804827411603	-0.053969529212355205	57.90628200679987
O	-14.156537744615008	-1.001362178031524	57.62238802498969
O	-14.424057891067019	-2.4334606301015542	57.90444042852985
O	-15.626202511557306	1.0860732168052385	57.09283780142444
O	-16.03742184611473	2.164992399984242	57.29770259295874
