14

O	-13.920906907425703	-5.804258891743578	62.42133939552464
O	-15.193755768758775	-6.195370951026864	61.945464847462965
O	-15.212562005737274	-6.668627823327782	60.52444724295228
O	-16.566565828103084	-7.118701317939973	60.50946115769584
O	-17.171092391387162	-6.775335831031581	59.38134468953182
O	-16.326784708329676	-7.008549069745126	58.271352067278364
O	-15.043920353809353	-6.457379336621937	58.23584011485922
O	-14.618516215662648	-5.974098420991593	59.46682820074777
O	-14.571840511377554	-4.466673130825628	59.49901629792598
O	-14.793484317788227	-3.9069856174669884	60.71766542596333
O	-15.967080863429349	-3.3532734836387905	61.15457937596539
O	-17.105006206554343	-3.763305075762526	60.54861803350393
O	-16.81796240733029	-3.4760067408624784	59.19411808682666
O	-15.526159243592993	-3.766326801106506	58.73737201062685
