85

O	3.2843182912448983	0.5864114223673462	-1.3212319175306129
O	2.304160441244898	0.36853175236734637	-2.0127636725306126
O	-4.376522748755102	5.459060792367346	-0.8368450485306127
O	-5.604656138755102	5.482608092367347	-1.3890573575306129
O	-3.381158858755102	5.186625152367347	-1.7852669915306127
O	-5.885262028755101	4.416141602367346	-2.2352941779306126
O	-3.680559288755102	4.341932792367346	-2.866390553530613
O	-4.839472398755102	3.664248162367346	-2.7856746565306127
O	-0.8150001617551018	0.6005443723673463	-3.5520247885306127
O	-2.574406768755102	3.506967012367346	-2.994092223530613
O	-1.1407927717551019	1.0779305143673463	-4.823018518530613
O	-3.7840442187551018	1.7618367883673463	-1.753598588530613
O	0.9459106112448981	0.9196430513673463	-4.683277458530613
O	-1.669176708755102	0.4462605323673463	-2.534339853530613
O	-3.318088578755102	0.9899541493673463	-4.149864878530613
O	3.2050458712448986	-1.2846219676326538	-4.8161505385306125
O	4.260114911244898	-0.6785932276326536	-5.816620868530613
O	2.137323241244898	-0.8167355076326539	-5.857950038530612
O	-2.9560417487551023	2.1762757723673465	-6.010033578530613
O	3.190513811244898	1.4757094633673462	-5.411677698530613
O	-4.305719418755102	2.2513606913673465	-5.6881766685306125
O	4.450033241244898	0.7123851433673463	-5.308487748530613
O	3.8888417512448985	1.0856115073673465	-0.07337134853061267
O	-1.2322046307551018	3.854808682367346	-3.256280468530613
O	1.2046336012448982	-0.40252723763265386	-2.6574988785306126
O	-3.6706560387551015	0.3433353023673462	-1.8003676425306128
O	-4.700545828755102	2.368561904367346	-2.3703005735306126
O	-2.7916235187551015	2.291920791367346	-2.628196466530613
O	-0.017658012755101815	1.6095183801673463	-5.292148218530613
O	0.5177267612448981	0.49572676236734625	-3.514836468530613
O	-2.3962786787551016	1.3839830143673464	-5.095669568530613
O	2.1296567012448984	0.5492362323673463	-5.308749608530613
O	-2.9229879087551023	0.2201435323673464	-3.0603984585306128
O	-4.444337368755102	1.4711018123673463	-4.647515548530613
O	5.082604021244898	0.6351912823673462	-4.045739828530612
O	-1.2648925207551018	0.5198023823673463	-1.3339855585306128
O	6.058060621244898	9.953690862367347	-5.751763298530612
O	12.896987771244898	1.4545851333673463	-6.8065919085306135
O	8.040766531244898	3.3857208023673464	-7.498330708530613
O	7.842725191244899	-0.15777827763265373	-8.680039448530612
O	8.274856311244898	-0.6056778876326538	-12.361913088530613
O	5.545271181244899	4.422399972367346	-12.045487158530614
O	16.822438171244897	1.3064598513673462	-1.5601465395306127
O	-1.4758606647551018	-7.053047557632654	-12.749085788530612
O	1.5118023712448982	-5.1779430276326535	-11.374579108530613
O	-9.157686088755101	-1.4490987576326535	4.263276541469388
O	-6.355110508755102	-1.8025125976326535	1.7012250014693873
O	-6.6089098487551015	-5.407827757632654	0.5721514214693872
O	-3.3079764787551023	-5.497912787632654	-1.3392811575306127
O	-2.7736355587551023	-7.674802187632654	-4.446459938530612
O	-4.915931368755102	-6.362663237632653	-7.315298248530613
O	-6.565462968755102	-3.8354119576326537	-4.995888638530612
O	-10.022266198755101	-2.5210256976326537	-5.475971228530613
O	-12.003115228755101	-0.9314846076326535	-2.661185556530613
O	-15.347625328755102	-1.1741277776326535	-4.182798078530613
O	-6.218455478755102	-11.115506957632654	-3.5351848185306127
O	-8.521772908755102	-8.499010557632653	-5.040644258530612
O	-8.091756948755101	-7.446280027632653	-8.637659498530613
O	-6.039499528755101	-12.358323157632654	-7.494269138530612
O	-8.264920198755101	1.3443557223673464	9.624258711469388
O	-5.725963338755101	1.2518235613673463	6.929308421469386
O	-2.9959837287551014	3.3078577523673465	5.092357431469388
O	0.08284599424489814	1.4883324973673462	3.6746224014693873
O	-0.7737490077551019	-2.026313557632654	2.7774734214693875
O	-4.054999748755102	-1.3493124976326538	4.494899491469388
O	-2.078535138755102	-0.21679172763265364	7.505601841469387
O	-0.37741330375510185	-3.5924768576326533	7.585059851469387
O	-3.6563936987551022	-5.522585737632653	7.165396121469387
O	-5.825600638755102	3.0677924323673462	12.958955111469386
O	-2.7141126087551015	2.1351152353673464	11.021523011469387
O	-1.248892006755102	4.901818432367346	8.815079911469386
O	2.291918501244898	4.2743109623673465	7.518550161469387
O	1.966667941244898	0.4905355823673463	7.756080121469386
O	4.2958055112448985	-2.172079717632654	6.643666301469386
O	9.9339085712449	-3.257320237632653	2.2305712714693873
O	11.5120288712449	-2.9714016276326536	-1.2426071525306128
O	6.962692411244898	-4.994868037632654	-4.744844728530612
O	11.200224971244898	7.194411752367347	2.010879581469387
O	8.722293761244899	4.442566632367346	1.0504792414693873
O	7.484244951244898	2.5655098993673464	4.155518621469387
O	6.506221821244899	11.239943032367346	3.761014901469387
O	4.2444239012448985	8.285786602367345	2.8365262014693875
O	1.6979109712448983	10.689385612367346	1.4476716014693873
O	1.2890307412448982	12.855073642367346	4.545493401469388
O	-0.06149854475510186	15.116108842367346	1.802389391469387
