26

O	-12.276066943707068	-5.502442162461977	58.51570410066924
O	-13.089174957415059	-6.374672265418219	57.85733492983
O	-14.320048008759363	-6.64123527590772	58.377790053333925
O	-14.800558487722036	-6.0814109165326755	59.590067318613144
O	-13.89339333310364	-5.07411432051768	60.0032140853431
O	-12.951804402240585	-4.501121822235752	59.14113939187043
O	-16.002961186595197	-6.614410877534782	60.13354094116003
O	-17.164366294080697	-6.812546665736281	60.87462416499934
O	-18.570353129565326	-7.539599438962239	60.765090016822384
O	-19.694134350028346	-7.1326759056436	61.619053526710864
O	-19.177854843625205	-5.122596996602776	60.98059496038231
O	-19.759193813880383	-4.166448749142871	60.08300868978639
O	-18.64215418522016	-3.927883134729152	59.14320171352766
O	-18.409672062275668	-5.092181209548766	58.335842278794175
O	-17.16335856972419	-4.890291426040408	57.64604227787092
O	-16.075783648924585	-4.011615464369204	57.937634172579706
O	-16.25639584831127	-3.2004430549112177	58.98580485106265
O	-17.349127581168776	-3.6105754871568037	59.75816890227757
O	-15.60787954949707	-1.9363007907894492	59.32038539918022
O	-16.747452819021692	-6.773874506258388	62.294234737849045
O	-20.43257284461183	-5.91212457592386	61.154825883051856
O	-21.05067525032169	-4.3674779288794845	59.93500936580109
O	-21.40928719117002	-5.1585556838582995	60.960380158773816
O	-14.325361608193266	-4.29420482046611	60.99832175243491
O	-10.942920343905229	-5.535130019872168	58.364604291556994
O	-12.462674558474163	-6.927673942969337	56.80853041348615
