33

O	-12.644031056692159	-4.123667484173147	59.09960114982809
O	-13.781278243915068	-3.727968834107361	59.73841277255016
O	-12.742830337021502	-4.2765273384031195	57.747321200271124
O	-13.963382800093397	-4.012325622614847	57.22832081793977
O	-14.829255120606703	-3.0370664841551083	57.625774612115535
O	-14.734672332628708	-3.0823020928571947	59.041849574295924
O	-15.656493918664374	-1.9216112760902875	56.88636161446083
O	-17.054240201414885	-2.284188153633153	56.42946311875853
O	-18.28206538797575	-1.8729387475778	56.89368950586468
O	-18.90385789489342	-2.5591863038867144	57.900660982418195
O	-18.35051136875867	-3.7098096352208403	58.36817081117559
O	-17.621168578293922	-4.435014194725692	57.41112433898405
O	-17.014568362263233	-3.649697390487572	56.43456729406121
O	-16.12831989114387	-4.115075376240181	55.64344250956
O	-18.620356941258976	-0.601830618072154	57.01298154402034
O	-19.796228160416714	-0.5991756842424762	57.68672998898226
O	-19.859430607126388	-1.767104504477572	58.445554606509596
O	-18.036776287155075	-4.187038911674336	59.58004955063352
O	-17.241038727005147	-5.294208288284343	59.38852118083956
O	-16.869059339932026	-5.389218831239455	58.11854722106338
O	-15.93403799077031	-6.315850469996668	57.673519693648565
O	-17.243745090944554	-6.439223881794585	60.23025530815033
O	-16.273990945750796	-7.262533537837942	60.842872648190266
O	-16.07120401752427	-6.7186930567255185	62.21377690274052
O	-16.898838654679107	-5.596829060936298	62.689973220797405
O	-17.956712464823024	-5.023635906757388	61.74443763161473
O	-18.39119381470773	-6.441752271231808	61.20138488612142
O	-14.653950302208077	-6.64197852498546	62.362162856628764
O	-14.778080290722887	-6.682337701381822	58.56830730350486
O	-13.690713325559038	-7.196059516859892	58.807394154992146
O	-12.233779637389725	-7.3943799983409235	58.51911567585153
O	-15.305480929256772	-1.8347854671783876	59.57091431885818
O	-15.922266316425155	-0.7691996128156444	59.52128503099272
