75

O	-0.39386035701886857	1.305937608492452	1.040718796245283
O	0.18817666298113145	0.3126982374924523	0.07787739324528298
O	-0.6825191280188685	0.3746079074924522	5.758593877245283
O	-1.3878572160188685	-0.5504612425075477	2.179110517245283
O	-0.4677754870188686	-1.060584282507548	3.007827067245283
O	-0.8251859600188686	-1.454529572507548	1.029235682245283
O	-2.7264173270188685	-0.3573791325075477	2.159637437245283
O	-2.7555945570188687	0.9252313254924522	1.403124943245283
O	-1.6775187116688686	1.8087068354924523	0.840147427245283
O	-2.4196702960188685	0.16732866749245212	0.17280281624528304
O	-1.0753220730188686	-0.4560394825075478	0.026158725245283065
O	-3.2531213870188687	1.8564994304924523	2.173181037245283
O	-3.9051172870188684	1.245156189492452	3.290920637245283
O	-2.741074957018869	0.9203011534924522	4.116912957245283
O	-1.7958877790188685	1.8874655834924523	4.233039107245283
O	-0.3253813370188685	1.8369224604924521	4.241965117245283
O	-0.2106477770188686	3.1936235574924523	4.833160927245284
O	-0.6715068370188686	3.568938077492452	3.3706115872452833
O	-2.0483800080188685	3.1687441174924524	3.7146701772452833
O	0.2820005629811315	0.9019380264924522	5.082472817245283
O	-2.8386765170188686	-0.060039242507547774	4.7706938172452835
O	-0.22657248701886856	0.45792938749245216	2.083164837245283
O	-2.8572135170188684	13.020865997492452	-0.488184722754717
O	-3.3512771470188687	11.041973057492452	2.608818807245283
O	-5.8256354070188685	9.216254637492453	-6.330090802754717
O	-6.370668437018868	5.469970697492452	-6.530332042754717
O	-9.90954701701887	5.316781817492452	-5.152901782754717
O	-8.78364196701887	7.557757377492452	-2.2441296327547167
O	-5.921504217018868	5.355200837492452	-1.2224131727547172
O	-7.181037707018868	1.9122486354924522	-2.1034837227547167
O	-10.943448247018868	1.5924219454924522	-2.122986452754717
O	-12.83224792701887	4.142586187492452	-0.031528212754716956
O	-10.005636557018867	5.330400617492453	2.157270977245283
O	-1.9398089010188686	6.878850417492453	-11.118963892754717
O	-2.4995948640188685	3.4224864974924523	-12.575828492754718
O	0.41744417298113135	1.1180819904924522	-11.837742892754719
O	-16.346702027018868	-0.7820746725075476	-3.625111102754717
O	-9.84276699701887	-8.244489282507548	4.354376417245283
O	-8.972221837018868	-5.278139652507548	2.132716867245283
O	-12.31427412701887	-4.9693115625075475	0.323455359245283
O	5.629526262981131	-4.823238722507547	8.078312517245283
O	1.9111893829811315	-7.2798554225075485	4.412038907245283
O	-1.3535245260188686	-9.237620002507548	3.583193957245283
O	-3.7612895070188683	-8.942863002507549	6.552733627245283
O	-0.9148178850188685	-7.540592292507549	8.678709337245282
O	-0.5927451470188685	-7.861765662507548	12.408101207245283
O	2.5339114229811317	-6.714959312507549	14.297822007245282
O	-4.520071647018868	-11.353984602507548	9.150320577245282
O	-4.033275657018868	-14.90106310250755	5.058942677245283
O	-4.271585327018869	-16.32871240250755	1.557723481245283
O	10.663610272981131	-1.4586835825075477	7.679537627245283
O	8.802708572981132	1.4013001783924521	6.217001717245283
O	6.563856272981131	0.7625035224924522	3.120699827245283
O	5.900281252981132	-3.0775167725075474	2.581796207245283
O	7.914063322981131	-3.3524969425075475	5.639241057245283
O	10.558638272981131	-1.527056652507548	3.619721377245283
O	10.077731172981132	-3.980807132507548	0.778821796245283
O	14.35236877298113	0.3444360574924521	4.303415177245283
O	12.196817772981131	3.494753157492452	4.329707687245283
O	10.058382272981131	4.222025757492452	1.2149504862452831
O	10.10882417298113	0.6105921664924522	0.09335806024528304
O	8.26620271298113	-0.951698572507548	-2.759255062754717
O	5.362973112981131	-4.725617402507547	-8.037051002754717
O	4.776210852981132	-3.1643286025075477	-11.405486792754719
O	2.8500433729811316	0.0611478074924523	-7.498087002754716
O	-0.8520442350188685	0.8939961764924522	-8.079577742754719
O	-5.983366697018869	-1.709157922507548	-7.069750592754717
O	-3.7009923570188685	-3.0167643225075476	-4.444548522754717
O	-1.0333981490188684	-4.893172282507548	-6.356963942754716
O	3.0172152029811317	10.197670897492452	-4.664014072754717
O	2.377950742981131	6.7485833774924515	-3.163827802754717
O	5.553077222981131	4.559800877492452	-3.3826747927547167
O	6.229907412981132	12.369511497492452	0.38088275624528306
O	5.606410752981131	8.825769577492451	1.6990586872452829
O	5.184993272981131	10.247998117492452	5.232205067245284
