76

O	-1.76981536576	-1.3714181336540006	-5.732840992939999
O	-1.9596804447599998	-0.9271996636540009	-4.428594052939999
O	-1.22593993176	-1.4983351836540009	-3.408908012939999
O	-0.048157929759999885	-1.982716363654001	-3.859653722939999
O	0.27839853024000005	-2.331508753654001	-5.136992032939999
O	-0.47523888975999995	-1.7118692136540008	-6.08939125294
O	-1.4534236747599998	-1.3156138636540007	-1.997131992939999
O	-2.32179898276	-0.15174853765400076	-1.7691436829399991
O	-2.8002746197599997	-0.3765062726540007	-0.37531171993999923
O	-1.8269365437599998	1.1866992383459993	-1.7544286629399992
O	-4.03128536976	-0.47641192765400076	0.12321355706000076
O	-4.16360497976	0.13448866834599923	1.3316356870600008
O	-3.1476828697599997	0.03350664534599923	2.2448497770600007
O	-1.9362955607599999	-0.33595269565400077	1.855190367060001
O	-1.7876538277599998	-0.6668575636540007	0.5406489200600009
O	-3.34652081976	-0.09264376865400076	3.6725498670600008
O	-4.40340476976	-1.0014005736540006	3.710922307060001
O	-5.24650980976	-0.5651231546540008	4.638572627060001
O	-4.84915243976	-0.056837431654000736	5.942769967060001
O	-3.59276499976	0.4679272883459992	6.045287547060001
O	-2.97684308976	0.6144422533459992	4.835221897060001
O	-3.19409351976	0.7167825943459992	7.405114367060001
O	-3.1143306097599996	2.054085486345999	7.934585077060001
O	-3.54751878976	-0.07609281165400078	8.35114025706
O	1.0337461902400003	-3.435667713654001	-5.305049782939999
O	-3.22420141976	-0.8030531736540009	-4.01025009294
O	-8.916962419759999	8.938674366346	-4.654305082939999
O	-9.76370509976	5.667172816346	-2.9639527129399994
O	-11.08810589976	7.338071776345999	0.18473973506000074
O	-2.27782840176	11.446787866345998	-1.8256649729399992
O	0.31473857024000007	9.308454136345999	-0.04809811393999924
O	-0.9484084077599999	9.658023956345998	3.510988007060001
O	-4.48776015976	8.949643366345999	2.214839377060001
O	-3.46105628976	5.776957006346	0.5197761320600007
O	-0.6540114887599999	4.452811856346	2.687326117060001
O	-0.8852298197599999	5.681861976345999	6.2990411570600005
O	-4.35527747976	6.722312446346	7.437625517060001
O	-6.43208367976	5.0232305263459995	4.802999817060001
O	-8.677575319759999	8.032776106345999	4.9279886170600005
O	6.5009841902400005	10.503742266345999	-3.906962772939999
O	10.31562799024	5.1395842863459995	-3.9474570029399993
O	1.10119734024	7.0347559363459995	11.83592105706
O	-1.7502006127599998	6.980199116345999	14.42561115706
O	3.2704669202399996	-3.490733203654001	12.493702757060001
O	1.37150495024	-5.4849769936540005	9.92473545706
O	0.8058245702400002	-2.411234303654001	7.602614677060001
O	1.15658982024	0.18393679334599924	10.197510257060001
O	2.0786760302400005	0.41600492584599924	13.969400657060001
O	-2.40555287676	-11.336754433654	-4.783929462939999
O	1.37106618024	-9.041919653654002	-1.2034216889399993
O	3.00526494024	-8.645589643654	2.253976877060001
O	0.4332397802400001	-9.544595133654001	4.916499427060001
O	-1.8765147837599998	-10.920344533654001	2.2182820470600007
O	-4.38266549976	-13.668275933654002	2.7118772470600008
O	0.09627271024000006	-12.588190533654002	6.858322317060001
O	6.582528700239999	-12.802843633654001	11.196699657060002
O	-4.7875510197599995	-7.284136723654	-10.027067322939999
O	-2.34258732276	-4.851724883654001	-8.29549649294
O	0.5289707602400002	-6.641596563654001	-6.557925472939999
O	-1.17866951976	-9.756228633654	-7.8914347529399995
O	-0.7292623437599999	-8.245264033654001	-11.354199442939999
O	-4.5709132297599995	-5.938340273654	-14.193713042939999
O	0.3207182002400002	-4.329889243654001	-12.18934174294
O	3.33617746024	-2.8120745836540006	-10.574411542939998
O	9.31544009024	-0.7293930436540007	-7.474782532939999
O	5.49144018024	2.9601867063459992	-6.730560892939999
O	5.00913909024	5.267432246346	-3.7047029029399994
O	7.53775688024	5.8443675663459995	-0.9368947009399993
O	5.51293557024	4.746862706346	2.052830357060001
O	4.47592437024	1.3381830143459994	0.7630329570600007
O	7.55097763024	0.39361045734599925	-1.2590116439399992
O	8.32707660024	-0.29053731265400073	4.021780477060001
O	9.32890149024	-3.573125613654001	2.3752770670600007
O	-2.08089406176	4.709908996346	-7.881896972939999
O	-6.77124686976	1.5642266863459993	-10.384963142939998
O	-10.315378409760001	0.30798900254599926	-9.61320451294
