22

O	-14.511305405300677	-4.120305506750066	61.50935999326247
O	-13.672829271387538	-4.609533472606243	60.323855402739
O	-16.288787491626707	-4.172577444814938	56.977794056124935
O	-16.56847412616874	-3.857627810228446	60.464986068626914
O	-15.54904510764049	-3.656521820683208	59.47578730707728
O	-15.729917150339878	-4.805859723761934	59.78187386941857
O	-17.20624655702631	-4.68901936294548	61.41604193688339
O	-16.410114191438133	-5.9728517273260735	61.6054485601485
O	-15.389407462666767	-5.121866799631507	62.173882068657896
O	-15.015451590668542	-6.558000168908917	61.27870934089927
O	-14.622211775929166	-5.694300828241756	60.1650537566126
O	-17.009916342056094	-6.5008614340173	60.46565937266058
O	-16.348795713890688	-7.5113658839970645	59.79815039649255
O	-15.861411141024753	-7.261938701828501	58.40589577782226
O	-14.595499085519602	-6.928961373413202	57.89556102725832
O	-14.390558147650424	-5.84147491138002	56.9388829193979
O	-13.175900216577604	-5.121209057207574	57.251250554235384
O	-12.289382135397165	-6.2123643210672155	57.77803109718763
O	-13.254398987191948	-7.32258129933382	57.93983760861009
O	-15.595084111864066	-5.164448762098652	56.65303983821288
O	-16.82489282020228	-6.566433901956273	57.95132516677983
O	-15.48668905073117	-3.0357195849905008	61.201714542060834
