33

O	-22.735064500650314	-4.462072927447157	61.372619357812106
O	-23.76547510277204	-5.5141313703155035	61.516790151359565
O	-17.625530230258544	-5.4294628823666145	60.334176037031355
O	-16.764025560110642	-5.936675961076699	61.52727861213223
O	-14.704842326278927	-5.97297181094869	59.05022160890142
O	-12.8548610024624	-4.651113063927976	59.190684358289964
O	-14.023436137894794	-5.034292603635139	59.75784169234135
O	-27.551157880648955	-6.597950243588322	59.776206336195735
O	-12.136077680674074	-5.600284589379599	58.53615280826705
O	-12.741478014666153	-6.630374268583239	57.913619793919366
O	-14.085312633573206	-6.767335571291756	58.08577949876224
O	-26.263569148892934	-6.671872897193418	60.513075403205136
O	-23.83099438753541	-6.417998862063888	60.49856802551572
O	-24.995140958454957	-5.315183569997818	62.080475692485194
O	-21.234923111834508	-6.164655744020612	60.67444377182824
O	-19.880072170713433	-6.4772523068156	60.13515641542091
O	-15.893990236326406	-6.6755696320268365	59.50245354723665
O	-15.73981832705343	-6.777520646987309	60.91750705536827
O	-25.066265987555063	-6.744575911107576	59.85741975276398
O	-26.094733114971824	-6.163172016990881	61.75829505518413
O	-21.434323449993506	-4.714922215525685	60.83013672245533
O	-18.946538740080598	-5.5759644980385525	60.736156119504415
O	-23.26668562108484	-3.3508572828333234	61.17948747571959
O	-17.245614064245707	-4.293076540501983	59.99784699638235
O	-28.138469232918947	-7.651837667664586	59.36922038437457
O	-19.201168689595658	-3.4336294110897434	60.61519208128648
O	-20.556768230926817	-3.78668145747353	60.22949928312292
O	-19.082846024028495	-4.500795450257942	61.741890815175346
O	-14.606132083658732	-7.207923992968127	61.60468717979931
O	-27.42984449360796	-5.721416333819212	58.72005907830349
O	-14.449328300182923	-4.643632397530718	60.95571583555845
O	-10.920995527486319	-5.25794968965978	58.07963249732834
O	-12.046332568446255	-7.004049355169256	56.796748700206564
