77

O	-0.9158103697735854	1.2443899169984145	3.5432598112264153
O	-1.8865818877735854	1.1122589098984146	2.4895007312264155
O	-3.347278346773585	0.9594325951984145	2.6215452012264153
O	-3.4823024867735857	0.8874883349984145	4.018330481226415
O	-2.6020957817735852	0.19148748799841453	4.687222121226415
O	-1.1799708087735854	0.49610025299841454	4.786020901226415
O	0.28671390322641477	1.4331613989984144	3.2794268212264153
O	-1.7872368095735853	1.8205850409984143	1.3326672922264153
O	-0.8931323117735854	1.4974625299984146	0.2414354326264153
O	0.3760930332264145	2.0702962919984147	0.2338986982264153
O	1.4498752232264147	1.2122976589984145	-0.05448430377358471
O	1.1823182232264147	0.43561730199841453	-1.1953923787735847
O	-0.013609686773585317	-0.24395752800158554	-0.9666290487735847
O	-0.9100482267735853	0.11713647299841445	-0.00042531077358470837
O	-1.1628719327735855	-0.5541229380015855	1.2691598452264152
O	-0.8127756657735854	-1.2506336180015853	2.188626501226415
O	-4.175994406773585	1.8017009259984145	1.8095524512264154
O	-5.457915776773586	1.9144811119984144	2.418533051226415
O	-6.000326816773585	3.2693970019984144	2.0708157412264154
O	-6.2711703467735855	3.4104733819984148	0.6187640332264153
O	-5.085594096773585	3.0517835019984147	-0.16029015777358468
O	-4.248519446773585	1.9138059409984145	0.44243442022641527
O	-4.2967768967735855	4.090745401998414	-0.7205863287735847
O	0.17969808322641456	-0.6374018180015855	5.414835761226415
O	-4.890718046773586	11.815257221998413	3.103924861226415
O	-5.909562206773585	8.837765541998415	-7.413724088773584
O	-6.715148956773586	7.683250341998415	-2.4212628487735848
O	-7.826757666773585	4.608495201998415	-4.276323528773585
O	-11.499772296773585	4.609920711998415	-5.044491378773585
O	-11.351949426773585	7.265901631998415	0.020527573226415297
O	-0.6268699367735853	10.873269421998414	-10.687541448773585
O	-0.9831209947735854	7.857008611998415	-12.971875048773585
O	1.6133458132264145	5.200518111998415	-12.190901448773584
O	-12.241386416773585	-6.273549558001585	-0.9394244687735847
O	-10.762788896773586	-3.019378128001585	-2.2217814187735847
O	-13.628663616773585	-2.097190658001585	-4.553184098773585
O	4.514155333226415	-6.324153578001585	9.093049461226416
O	2.064910393226415	-4.950833858001586	6.5746577412264156
O	0.9260241032264145	-8.052378598001587	4.649561521226415
O	-0.8925275917735854	-6.221205718001586	1.8268403712264154
O	-3.9496864367735856	-7.708383408001585	-0.0427988937735847
O	-6.916520196773585	-7.832025888001586	2.3504099412264154
O	-4.606940536773585	-6.751863808001585	5.187871421226415
O	-5.159908926773586	-7.727618088001585	8.765542321226416
O	-2.5518177857735855	-7.2356192280015845	11.478941051226416
O	-3.8023724167735855	-9.882563578001585	13.871875251226415
O	-3.098129786773585	-12.500916578001586	0.7615202432264152
O	-4.687454256773585	-11.640985478001586	4.107478301226415
O	-7.032975946773585	-13.397080478001586	-0.2372021387735847
O	-1.2757294157735855	-13.291979678001587	-4.5307890787735845
O	2.6809380332264148	-9.406099878001585	-5.460161888773585
O	7.276523833226415	-2.1941599680015855	7.944169621226416
O	5.775464573226414	1.0577470750824145	6.767587111226415
O	4.325979323226415	1.2990196009984145	3.2767326112264152
O	3.436909553226415	-2.060808588001586	1.8178336712264154
O	5.033258093226415	-3.438005688001585	4.980660141226416
O	8.115195373226415	-1.4460343680015855	4.048167721226415
O	8.079190113226415	-3.2031388380015855	0.7054684672264153
O	11.595333483226415	0.011367361998414482	5.938413921226416
O	9.568311183226415	3.2251794119984147	6.182984451226416
O	8.246365703226415	4.749041321998415	2.9063518612264154
O	8.448772283226415	1.4401514599984144	1.0593539212264154
O	7.211825313226415	0.6556177149984145	-2.3936809587735848
O	8.909483183226415	-1.5497977680015855	-7.692560898773584
O	5.305710853226414	-1.6843329680015857	-8.817379608773585
O	2.9863384432264146	3.069173571998414	-7.739134348773584
O	-0.44332986677358543	4.309458861998414	-8.852928678773585
O	-5.706449896773585	1.9388456939984144	-9.484815228773584
O	-4.097011066773586	0.14171579099841447	-6.526164068773585
O	-1.2705408467735855	-1.6208745480015854	-8.359561008773584
O	2.8968387132264146	12.366193421998414	-2.7077773787735846
O	1.8507957032264146	8.714450161998414	-2.280134818773585
O	4.929756693226414	6.409132201998415	-2.3295864987735846
O	4.646212743226415	12.975728721998413	3.4264315812264154
O	3.654489233226415	9.300896311998414	3.6021690812264153
O	2.310165763226415	9.757528611998413	7.135109581226415
O	5.525839603226415	11.338344821998414	8.591551471226415
