84

O	2.1854541190408163	1.5893816465918367	-2.1595303931836733
O	1.9448994090408163	0.3300768835918366	-2.6330790791836733
O	3.0349252190408165	2.1032826885918365	-3.1005209591836733
O	2.1364392990408163	2.232719248591837	-0.9339500271836735
O	2.4740368390408163	0.14841902359183656	-3.8571983791836737
O	0.7136994830408164	-0.3123720664081633	-2.3370926741836735
O	3.5087904490408164	1.0658850135918367	-3.8519165491836733
O	3.3631825590408164	3.3732420635918365	-3.2003939791836737
O	2.246653399040816	3.4979937535918366	-1.0853363531836735
O	1.2364634760408164	1.8062181075918367	-0.1472392491836736
O	2.0703365390408166	-0.7002466764081634	-4.957088459183673
O	0.9450852090408164	-1.7704388664081634	-2.1874455931836736
O	3.0194315390408164	3.976642633591837	-2.0973427551836736
O	4.272230579040817	4.088489233591837	-4.041963899183674
O	2.147745949040816	4.549614953591837	-0.13758016918367355
O	1.8019775690408162	-2.0950179064081635	-4.9889170991836735
O	2.828978709040816	-0.35730708640816333	-6.216731679183674
O	0.8989178680408164	-2.940564576408163	-1.8373068241836736
O	2.7610379090408164	5.267168613591837	-2.2405455161836736
O	3.649726769040816	5.079768493591837	-0.18729648918367348
O	2.994823689040816	-2.8054196164081633	-5.507285089183673
O	4.212562389040817	-0.5784769664081633	-5.501195699183674
O	0.6627371756408164	-3.9473408864081634	-0.7834120831836735
O	3.799245429040816	4.195440513591837	0.8340522908163264
O	4.705666339040817	4.664130653591837	-1.0661406811836736
O	4.254104639040817	-2.0588449664081634	-5.728215589183673
O	3.0893200090408164	-3.980852196408163	-4.698740909183673
O	5.161652089040817	4.190250603591837	1.1216000908163264
O	5.3766070790408165	3.4666577535918366	-0.9396879311836736
O	5.726527789040817	3.2158963235918367	0.3588031508163265
O	5.617850379040816	4.159760783591837	2.4552881108163267
O	5.743472799040816	2.2965190835918365	-1.7647759661836735
O	5.443904449040817	1.8899614095918367	0.7973658008163267
O	5.827005419040817	2.8937759235918366	2.9300295908163263
O	5.254850369040817	1.8674687905918366	2.1824667208163264
O	10.842535019040817	-6.9321639664081625	-2.4673224491836736
O	3.1178462690408164	-11.112834626408162	-9.042073979183673
O	5.719685009040817	-6.885511916408164	-7.376218689183673
O	3.1272205890408165	-5.460946486408163	-9.692083339183673
O	4.324395899040817	-5.077909406408163	-13.246926519183672
O	9.023554669040816	-3.7652317664081636	-10.154273239183674
O	0.10120125604081642	-15.929992026408165	-5.791911169183674
O	-0.2960035669591836	5.682813503591837	-13.548127619183672
O	0.4087871360408164	2.0972634065918365	-12.437296919183673
O	-2.2731183409591837	8.138554023591837	5.7410214308163265
O	-1.6968710109591836	6.133552903591837	2.5897179008163262
O	-4.295222600959184	7.409273213591836	0.1574645108163264
O	-3.7994800909591837	4.703248563591837	-2.4967382191836736
O	-4.330666730959183	5.358323693591837	-6.210953889183674
O	-1.6757782009591837	7.751299553591837	-7.524453299183673
O	-0.3615879409591837	8.274386303591836	-3.9590324691836734
O	1.2440083070408163	11.441213073591836	-2.8215524391836735
O	1.7920906490408162	12.201411973591835	0.8251922108163265
O	2.372478369040816	15.870043573591836	0.5063677308163266
O	-7.483304960959183	9.185368833591838	-5.855426789183673
O	-4.267733670959183	11.128778613591837	-5.385252579183673
O	-1.7479221109591836	11.301092073591835	-8.187816409183673
O	-6.8019751509591835	10.160609653591838	-9.828253609183673
O	-2.4267663609591836	5.491353763591837	11.245785880816326
O	-1.4951142509591837	3.6955100435918364	8.132386830816326
O	0.8454738970408164	0.9779747465918367	6.691535240816327
O	-0.33516807095918366	-1.1630869364081633	3.7365920608163266
O	-2.9452435609591836	0.6057802195918367	1.7133023108163266
O	-2.730884380959184	3.2095781935918364	4.446087920816327
O	-3.4015515109591834	0.44384428559183664	6.913183820816327
O	-6.5900045709591835	-0.4263109564081633	5.064485190816326
O	-7.737744650959183	3.2111057035918367	4.869943260816326
O	-2.8103450109591837	2.0527709735918367	14.116626380816326
O	-2.997705470959184	-0.2528835364081634	11.126937380816328
O	0.2872232560408164	-1.8425447764081633	10.005314580816327
O	-0.017221684959183636	-4.781160886408164	7.576557980816327
O	-3.372249510959184	-3.6265690464081635	6.233434960816327
O	-5.436283520959183	-5.005075386408163	3.4470701308163263
O	-4.9438134309591835	-9.189519826408162	-2.4663423991836737
O	-3.211919200959184	-9.981728626408163	-5.767627629183673
O	-2.6727607409591836	-4.402394056408164	-8.177191669183674
O	4.160338119040817	-12.762076526408162	1.4623928308163263
O	2.4912929990408164	-9.567012826408163	0.19211228081632648
O	-0.48678871095918363	-8.607391116408163	2.4190597208163265
O	7.3780167690408165	-9.635968726408162	6.1004151508163265
O	5.484573539040817	-6.608662266408164	4.722114470816326
O	8.529767539040817	-4.457977706408164	5.317925030816326
O	8.981708009040817	-5.1963998564081635	9.010759080816326
O	12.409031719040817	-3.8537976364081636	8.073089040816328
