76

O	1.4202439127909092	0.49749241888636375	2.544277018325
O	8.61782806279091	-2.319863898113636	2.374956798325
O	9.649677652790908	-0.35801232811363626	1.450779268325
O	8.49794413279091	0.1961377768863637	3.454559448325
O	7.139572442790909	0.009412121886363645	1.280408413325
O	6.303614022790909	1.1667096026863637	1.366299398325
O	6.180572722790909	1.5029725898863637	-0.06691471967499996
O	5.778251472790909	0.33656391288636367	-0.8636895016749999
O	5.406700302790909	-0.8024529781136363	-0.15392077567499995
O	4.14709637279091	-1.2872447881136364	0.44247885032500006
O	3.171896892790909	-0.39471431811363633	0.919060647325
O	2.606775852790909	-0.36755243811363636	2.1905096683250003
O	2.091457572790909	1.8246923018863637	2.540797628325
O	0.9363777957909091	2.7126134018863635	2.310164118325
O	-0.19163902820909096	1.8649681218863638	2.682907108325
O	-1.3956907172090909	2.4285860718863637	2.802961298325
O	-2.369505097209091	1.4918457238863638	3.097287358325
O	-3.636722907209091	1.9462338548863638	3.132314118325
O	-3.8199669372090908	3.2647197218863635	2.832201798325
O	-2.777251527209091	4.123274611886364	2.660017628325
O	-1.504060217209091	3.7740502018863635	2.927379048325
O	-0.49800847920909097	1.3087585168863638	1.2502842463250001
O	-0.6373421972090909	2.4379090218863637	0.42880363932500004
O	0.5990177447909091	0.3948702678863637	1.287337503325
O	3.477801742790909	-0.8685513581136362	3.103126228325
O	4.312040532790909	-1.9269727281136362	2.739664258325
O	4.417895252790909	-2.2475193981136363	1.420051518325
O	6.680584002790909	-1.0189668081136363	0.39956238882500006
O	-4.481173647209091	1.2415217798863638	3.917331668325
O	-5.033381637209091	3.6105672018863637	3.372182218325
O	-0.528082866209091	4.250284191886363	3.750120198325
O	8.413708242790909	-0.5885013381136364	2.2523728583250002
O	4.0691233827909095	12.166584371886362	-3.674887171675
O	5.363404842790909	9.922128391886364	-0.7971514016750001
O	8.497901742790908	9.228153221886362	-2.823377261675
O	1.095546706790909	7.453620901886364	-8.959413981675
O	0.008689977790909076	3.8706048118863636	-8.321422341675
O	3.270041872790909	2.062079737886364	-9.035087791675
O	5.016867192790909	4.665563621886363	-6.876460431675
O	2.816966912790909	4.0623763018863634	-3.971727331675
O	1.8455038627909088	0.42763525088636367	-4.272533191675
O	4.459281402790909	-1.6214862981136364	-6.131208151675
O	7.995101272790909	-0.20523889811363638	-6.066366301675
O	7.675625392790909	2.2560059318863637	-3.383482501675
O	9.819342592790909	4.601088961886363	-5.257678891675
O	6.811250762790909	-6.231762358113636	-9.275242491675
O	10.620390192790909	-6.563127728113637	-8.554064101675
O	4.0300908427909095	-12.098120128113635	-0.7233164616750001
O	3.436007932790909	-9.979065428113636	2.304839388325
O	2.865162842790909	-6.7658634281136365	0.27201721902500003
O	4.432384052790909	-7.951433628113636	-2.946327521675
O	6.479409802790909	-10.994651428113638	-4.138132611675
O	-3.575031847209091	0.25633748088636377	12.703702428325
O	-3.987413027209091	-3.5262071281136365	8.310017108325
O	-3.020364767209091	-6.683941448113636	6.364067188325
O	0.42738134179090903	-7.632159348113636	7.495863888325
O	0.34245121199090905	-4.9997675481136366	10.235528418325
O	2.138881512790909	-5.217918298113636	13.524507428325
O	1.451829202790909	-10.171915428113635	9.854757498325
O	-4.360019597209091	7.189748071886363	11.056881728325
O	-4.825740167209091	5.592121531886364	7.560130768325
O	-6.083345067209091	2.000251128886364	7.792978268325
O	-6.144350757209091	2.6516147518863638	11.503087328325
O	-8.441046487209091	5.603938761886364	10.859647828325
O	-12.798980207209091	0.27537921788636377	-0.700118721675
O	-9.04627089720909	3.357255951886364	-3.052846551675
O	-6.411301327209091	2.333398581886364	-5.607687151675
O	-6.370660257209091	-0.8718557181136362	-7.665662271675
O	-3.105326907209091	-2.3314914081136364	-6.498814451675
O	-3.524097087209091	-2.2010113581136364	-2.776867451675
O	-7.368584787209091	-2.7690732581136364	-2.621504321675
O	-4.716078707209091	-7.314165398113636	-3.460879691675
O	-6.949803007209091	-8.043081078113637	-0.516348928675
O	-3.601241447209091	9.123983711886364	-1.480437331675
O	-1.8702116372090911	12.146243471886365	3.793968728325
O	1.2312311327909091	12.927222571886364	5.957051598325
