28

O	-17.85883932673815	-2.2217972183701358	59.08229583342835
O	-17.1569149526376	-5.443759890194687	59.19572683790951
O	-16.894515458259107	-6.64088480168193	61.305275640796154
O	-18.342546360450562	-4.657788785451901	61.39882205396628
O	-22.838976455951467	-7.005946591920208	62.05694796535201
O	-23.235024260585362	-4.886213017434944	61.34975263151675
O	-24.224659537723777	-4.104891438625021	61.70934519697145
O	-19.46782364587132	-6.4065506546661615	59.37759174372375
O	-19.693150876127408	-3.459935785949164	62.307784655038766
O	-16.903985750570282	-2.9237891843913912	59.105153020982534
O	-16.523744821041557	-4.247403005658411	58.74455963728118
O	-15.173575750002623	-4.379570777427083	58.301660211285025
O	-14.784537340851742	-5.81307164872193	58.456083773194955
O	-16.079672934073578	-6.384179564309603	58.85691674522629
O	-18.200153814470205	-6.2245020568134946	59.650869869285266
O	-18.207770007112234	-6.794438395529979	61.051745677191704
O	-16.006942957521968	-5.615294573258682	61.44180013495057
O	-15.092617436769522	-4.481773561562022	61.476140088876946
O	-14.792314032147559	-6.344951844153295	61.7663491089542
O	-17.060159538843156	-4.672116832261855	61.855056025410555
O	-19.7399770697455	-4.611964981426382	61.80800504543856
O	-21.01943812428637	-5.353143327613558	61.66061252719093
O	-22.082010227031216	-4.998972507619465	60.79038007522186
O	-21.52112889595162	-6.584059262083883	62.086267723693325
O	-23.749163771402774	-6.140280850642218	61.616112778146416
O	-24.997211934885573	-5.956969434941497	62.255182502426194
O	-25.190106737991627	-4.592208870676164	62.479935207318725
O	-25.212660054343463	-3.89804605440729	63.85143911926946
