29

O	-15.165880533090185	-4.595845654702864	60.326338000441936
O	-15.074199236096423	-6.044280737173159	60.122116614480205
O	-14.577042600186147	-3.9134475816695016	61.15693505600316
O	-16.347527947388382	-6.765017708786603	59.673279403660885
O	-17.30972733176986	-6.8143943405954355	60.784459828722454
O	-16.639336039823682	-5.676912589617564	61.55123186335115
O	-15.336434795890904	-6.286675691025062	61.56467264644275
O	-16.290163541422064	-3.9785758864133367	59.71937320981792
O	-17.327080233125184	-5.428844651184193	62.752771022789666
O	-19.53988139808021	-5.49547762587965	62.70008750581819
O	-18.396798735065623	-6.212235288793247	62.61014180994338
O	-17.409223739191756	-4.570082029759183	59.214041528908304
O	-17.210691344853473	-5.020652483812276	57.88529404062457
O	-15.6567981305527	-4.862729721293337	57.769629469477735
O	-15.66084436629144	-3.502703557655984	58.48665414649994
O	-19.581134510876783	-4.203039200243201	63.19113712234539
O	-20.927528258093183	-3.7581390565967503	63.2866434970402
O	-22.001085050398366	-4.644880643033675	63.43212840956111
O	-21.67574519837089	-5.9004521582449785	63.80164568528586
O	-20.441045217771936	-6.3432546596072745	63.27523460806384
O	-18.84256372327377	-4.197227700511738	59.43635681606002
O	-19.763939242227465	-4.950223313863851	60.22407148600367
O	-23.439578846841187	-4.340487609503259	63.298860685724
O	-18.380671851318827	-3.545128650917877	62.72209180991642
O	-19.08543756672121	-2.3464739670517876	62.06130322825097
O	-17.504516217080955	-2.939577247362763	63.772497355813826
O	-17.457563611486385	-2.7544671605944853	61.97512721402229
O	-24.066736427127523	-4.298061351539801	64.4081447761318
O	-24.303301470982504	-5.115270957595848	62.47653806845827
