26

O	-15.874899537704058	-2.1213209335096916	54.76326743146773
O	-16.042489574270512	-2.693707888895567	56.1125535756729
O	-16.231307441023993	-1.9719988086934999	57.216282857472564
O	-15.69374466217827	-0.8435545820755674	56.92191241074581
O	-16.398124229123187	-2.5994726294933974	58.46094230306529
O	-16.429054053807377	-3.963206667649363	58.643047371065755
O	-16.68323593508449	-4.8378412758885005	59.740241122502354
O	-17.733890685218135	-5.868267512144272	59.64377869870436
O	-17.573328213705185	-7.067883855146149	60.501201521957974
O	-17.478140850748307	-6.887534424439633	62.0316818835185
O	-16.45010505991549	-5.8225668476205446	62.08943541169649
O	-15.436500397956825	-6.28579879116551	62.97603591005915
O	-16.187852348500115	-4.819657352505252	61.071425509308014
O	-16.270150960054018	-4.54781107459435	57.426965576116466
O	-15.937167552096927	-5.951226164923764	57.456646250168205
O	-14.51474801776404	-5.9730770921688325	57.51287242711462
O	-14.045833997988147	-5.3262567542337935	58.67015277983505
O	-12.812996733519485	-4.795262731003055	58.30272085594922
O	-11.980012580496846	-5.57933755073526	57.59781914929306
O	-12.376081876608485	-6.88062004009584	57.362887898164416
O	-13.735950653317833	-7.057777040733304	57.127654891270424
O	-13.881523608704738	-7.295076923259212	55.728719689995685
O	-14.065757913523504	-6.983850009184642	54.59644520990274
O	-15.758655186744534	-3.984774812740778	56.337461715774566
O	-15.794668685822657	-4.621503266692575	55.29046100034787
O	-12.976430852093953	-3.5411332616125852	57.7830443735529
