24

O	-19.507869409329356	-1.5042956544327666	57.18623770718107
O	-18.086209495767662	-1.7424423980570793	56.89229618996718
O	-17.485033084147144	-2.8830284107132322	57.34469476286065
O	-18.169928918684015	-3.5706284355994695	58.25129617253913
O	-17.883892412825315	-4.859088069486729	58.303574016646145
O	-18.45649153990837	-5.779005718130797	57.36347815565758
O	-16.507778115812695	-5.160150754656312	58.147315328967316
O	-16.054474928590274	-6.194202787714904	59.07965929470589
O	-16.357992570905804	-6.272886316519707	60.46971710491921
O	-15.614051925874065	-4.5449761431647495	57.28271556045702
O	-14.19355308541487	-4.721353904075708	57.14249520892029
O	-13.5392363659007	-4.829558466901059	58.39445037047757
O	-12.253052991045429	-5.240420386609415	58.54882811520829
O	-11.359956503408892	-5.309092202329059	57.51414425461185
O	-12.039618860839704	-5.716971173732357	56.40785005640235
O	-13.43174576597771	-5.508031302936138	56.2830007444595
O	-16.261442076320602	-3.328493940172702	56.88813189985446
O	-15.982143081323919	-2.9973287338020382	55.59309974081966
O	-15.1238457080631	-3.6386009608900576	54.99601251153684
O	-16.615786227630714	-1.8896209976950793	55.11569760151535
O	-16.28240896323134	-1.283190050483519	53.857047747222346
O	-17.64399913086778	-1.2898477974938691	55.72430144478047
O	-18.226606124353793	-0.3065872844356319	55.24896802544411
O	-14.00869767578521	-7.131319573078404	55.62919194382659
