23

O	-12.543680880086107	-4.618765681560553	58.34482801757303
O	-13.747347912588314	-4.387221781563106	58.94657082210096
O	-14.626844630378232	-5.48596524858542	59.07494101284173
O	-14.494674774513786	-6.440394886953457	58.140595510113286
O	-13.556135807723102	-6.304396099345379	57.1487126784023
O	-12.358943292020268	-5.836213280190617	57.73230800498583
O	-15.429949039524073	-5.646764013107748	60.23862071242214
O	-16.404235747590562	-4.529281875149787	60.31568958338261
O	-17.518660485693808	-4.751754861168012	61.2903230676797
O	-18.049169731327364	-5.969418850536251	61.20215510397543
O	-17.33599018447304	-7.174842205173956	60.83988851133296
O	-15.862676249244338	-6.984127216676802	60.67703349182156
O	-18.539416441029246	-3.965825656632983	61.72827542161615
O	-19.421745702992922	-4.705485563474635	62.44554915466096
O	-20.530693111394307	-4.414465133646072	63.239418000477876
O	-21.39717190462911	-5.3455587089423435	63.62892553193276
O	-21.192060831007858	-6.5782190907531914	63.16571958184642
O	-20.397277418653086	-6.750464582286709	62.018478004769996
O	-15.115715206367852	-7.418286162352596	61.83039734419138
O	-19.241040707976918	-5.977855949206244	61.897592257067146
O	-13.392554138645327	-7.035250514896442	56.04150869413603
O	-14.112126586366934	-3.3171583363045487	59.668706353962506
O	-11.275860728132951	-6.211947788809007	57.03954319509904
