85

O	-0.19739407203191484	2.641683660191489	-3.350697355893618
O	-0.3172983170319148	3.626862584191489	-4.2126325658936175
O	-3.822467760031915	0.6914693141914889	-1.9250532928936177
O	-3.027117240031915	2.9635441341914888	-1.9150516698936175
O	-2.8893948200319146	3.7336853941914887	-0.6901983238936176
O	-2.409421390031915	3.156719174191489	0.5943788641063823
O	-1.274332582031915	2.565217728191489	1.0543123241063825
O	-1.1659551490319149	1.413262482191489	1.9416975441063822
O	-1.5633240440319147	0.11981127419148896	1.8227396141063825
O	-0.8526195700319148	-0.990185065808511	1.8488762941063825
O	-0.2285361870319148	-0.6713116558085108	3.0566128741063823
O	0.5911643099680852	0.426995064191489	2.9747189641063825
O	0.1402400199680851	1.503341869191489	2.3269215841063824
O	-2.260019840031915	0.5044202141914891	-2.1266917298936177
O	-0.9136776240319149	1.441126683191489	-0.32916244589361754
O	0.09940146996808519	0.24975009419148897	-2.0023573598936175
O	0.26885539996808516	0.822881393191489	-0.8205531488936176
O	1.1434431199680852	1.845504372591489	-0.9009296118936176
O	1.709627109968085	2.388333134191489	-2.075146924893618
O	1.085442749968085	1.987547796191489	-3.268129345893618
O	-0.7595859120319148	3.337041724191489	-5.495776795893617
O	-1.6521234120319148	2.485560312191489	-5.830557555893618
O	-3.849224060031915	1.954211970191489	-1.3852692198936176
O	-3.1002310200319148	3.822572334191489	1.6519873941063823
O	-1.8280468280319149	1.270441430191489	-1.0936458798936175
O	-2.978380730031915	3.116848214191489	-3.1082064058936174
O	-2.096342260031915	0.856057109191489	-3.2635474258936177
O	-0.22200823003191483	4.520737204191489	-3.1128633658936176
O	-3.8374422200319147	1.725800077891489	0.0011307241063824858
O	-3.643722180031915	0.630939674191489	0.7898284941063825
O	0.9359921899680852	0.6069777541914889	-3.1172532458936173
O	-3.561255070031915	-0.521292565808511	-0.4530308758936177
O	-0.39223353803191485	4.362898284191489	-1.5805943120936177
O	-0.40079556403191485	4.336812284191489	-1.5696296130936176
O	-0.08583564203191485	3.748537404191489	-6.6648445958936176
O	-0.18142595903191483	-1.8383969958085111	1.0858001841063825
O	-0.060500440031914904	-1.7861316358085109	3.7706917841063827
O	0.9964868499680852	2.412249045191489	1.8594416941063825
O	-1.7343846100319147	13.530024214191489	3.5190264941063827
O	-1.366609275031915	11.73297009419149	0.22283162410638235
O	-8.297531900031915	6.439066004191489	6.322369134106382
O	-11.099958110031915	7.287698304191489	3.961189004106382
O	-8.648123960031914	9.54326839419149	2.1355365741063825
O	-5.9544644700319145	6.786928164191489	1.5420008741063822
O	-7.919957480031915	3.759625694191489	1.3422771341063822
O	-11.557581410031915	4.309499084191489	0.19186090410638235
O	-12.115041010031915	7.473124064191489	-1.8702616458936177
O	-8.376368130031915	7.999996944191489	-2.681448855893618
O	-5.856661470031915	6.203476334191489	12.366290454106384
O	-10.048208490031914	-4.461070065808511	-7.387018245893618
O	-9.579654370031914	-2.228416645808511	-4.3590212858936175
O	-13.260963110031915	-1.4120964858085112	-3.6945334058936177
O	5.9258058799680855	-4.259649345808511	-5.060091785893618
O	3.793366979968085	-7.403531695808511	-5.246462735893617
O	0.7580639599680852	-5.857082135808511	-3.4878058158936174
O	-2.720647330031915	-7.159915305808512	-4.222367815893618
O	-3.798078410031915	-6.037676115808511	-7.678070465893618
O	-0.2637267860319149	-4.873695395808511	-8.384180805893617
O	1.3319186899680853	-4.8133409858085106	-11.790776745893616
O	5.047305279968085	-4.113719805808511	-12.212624545893618
O	-1.083069608531915	-9.67555278580851	-9.162712495893619
O	-3.9276167700319147	-7.808971865808512	-10.812727715893619
O	-5.494523540031915	-11.962015285808512	-7.724160365893618
O	-0.4841002770319148	-11.97567468580851	2.8082477641063823
O	11.004965889968085	-2.4707644958085107	-2.3317853128936177
O	9.115141589968085	0.5611966741914891	-1.0168314378936176
O	5.768283019968085	0.11805440419148905	0.9766335441063823
O	4.183747289968085	-3.1758030858085107	0.4556311041063823
O	7.326250019968086	-3.888270515808511	-1.6785986098936176
O	9.416824089968085	-3.0442651158085106	1.3355995841063826
O	7.694185559968085	-5.784601195808511	3.2730129741063827
O	13.493118889968086	-2.030368325808511	2.2823372341063823
O	12.039820589968086	1.497218792191489	2.2123260241063822
O	9.107075689968084	2.293322165191489	4.5510563441063825
O	8.124467239968086	-1.347921075808511	4.838169394106383
O	5.174704229968085	-2.744694615808511	6.563696824106382
O	-0.20572610303191485	-6.20162775580851	9.715198754106382
O	-1.4045029390319148	-0.8240286558085108	9.184847754106382
O	-4.547486150031915	0.981991558191489	8.157040604106381
O	-6.730806220031915	-2.103844925808511	3.890641344106382
O	0.9461327899680851	6.030511174191489	6.551253114106383
O	3.3785298899680853	3.160027654191489	7.294478844106382
O	5.792458329968085	7.743680674191489	3.402169234106382
O	6.7724996399680855	9.55259847419149	0.27392308410638244
O	10.281126389968085	10.654319504191488	1.4318343741063826
