26

O	-16.12550886485643	-6.633259716780966	59.829527316070696
O	-14.816888853753237	-6.595368543961188	59.33691176486292
O	-12.6764570768003	-5.772467194718874	58.62602923938217
O	-16.51261186986973	-6.291768024416461	58.56981240301172
O	-17.325061571209936	-4.162627040243628	58.63226555695413
O	-17.140999866923703	-6.285883915243495	61.67544653710864
O	-15.62028770606444	-6.695886194295162	57.5430249898301
O	-16.327914420864726	-3.6129239475912476	57.84566084183103
O	-16.089201266177888	-3.375548407528856	59.81501342729329
O	-14.735055284786041	-7.61513375026363	58.28748884638044
O	-14.388606623225334	-5.3544560288125265	61.34757602309894
O	-15.126367700830988	-8.6490573273357	61.60865472940674
O	-13.75456188638973	-5.766515961100247	59.17259067287843
O	-13.978137518180889	-4.784554290385536	60.140376360870896
O	-16.662692300744236	-5.568455644556783	60.68364693177612
O	-16.85252960147285	-4.414631843879018	59.901321067493654
O	-15.490334573427042	-3.1611660426799393	58.68258936598095
O	-14.22857382013009	-2.5446644539352192	58.55134486979761
O	-13.917778601239482	-6.699241773571121	61.43305247922433
O	-14.135003353051873	-1.6225484300021273	59.79981517509704
O	-12.576078113985439	-5.925816990487584	61.44355258770096
O	-14.783717461911344	-1.3286030992757043	57.81911164971303
O	-14.601315037067542	-7.522488080624866	62.20099971782834
O	-12.929757063556163	-2.7672409213065374	58.388464758718825
O	-12.994078826109856	-7.5061758226573625	60.527805642809774
O	-14.659311322190057	-5.6930656750785165	57.26147627909937
