26

O	-11.402094988215495	-7.814804490545017	56.19496465021209
O	-13.691199144246086	-3.0996028640950577	57.92929783658309
O	-14.8056752841563	-6.7183408172737655	57.28549706885832
O	-13.642883199034674	-7.474068529968056	57.443955101825516
O	-12.542407581595576	-5.5173013403538045	57.21501135604411
O	-14.830086929253229	-5.395386232047924	57.55268958954875
O	-15.865161535232374	-4.887382925750785	58.40232241862655
O	-16.429455203374005	-3.6557334600505387	58.34170519348892
O	-15.956462614111475	-5.586103325403967	59.62440400077518
O	-12.504912072102282	-6.863143720142582	57.11500998832938
O	-13.621977526875	-4.78130406634552	57.58685038230148
O	-17.26697934151316	-3.3015009661963934	59.40016482146993
O	-17.161214087477116	-5.4284284893298835	60.193754183487
O	-18.038281403639214	-2.1021299823279254	59.16160979725318
O	-19.37738690684202	-0.4151482428175397	57.03963991582032
O	-17.339598277641947	-3.2628755708018495	57.19178666078222
O	-18.055366287434104	-6.578920763925399	60.26893618078819
O	-20.65476872647016	0.7835071141223713	58.56738738328959
O	-15.112518550439637	-6.729508243436006	59.97806505267593
O	-18.032747013242094	-0.9130065795703945	57.23634768677813
O	-17.465857613769476	-4.1525190404473	60.354420572967435
O	-18.215411051918736	-2.2415969884145333	57.73263944488133
O	-15.76519534032514	-7.802978680239149	60.65012034701088
O	-19.012494708880904	-1.6664258001858547	59.8526025348113
O	-20.31171279630609	-1.190263965829101	56.80968721435432
O	-19.622943067823037	0.7860444564694262	57.635808506590436
