81

O	3.6551946832631574	-0.2639301521421051	-2.229980144873685
O	3.2584299232631575	-0.9354122741421049	-1.0781452948736852
O	1.9209024032631579	-0.9359811041421049	-0.697933846873685
O	1.0000658732631578	-0.862236614142105	-1.6974058648736852
O	1.3855387332631577	-0.20712098914210503	-2.8619051448736847
O	2.6630022532631576	0.3437757187578949	-2.946407624873685
O	1.4634312832631577	-1.468441654142105	0.5823531811263151
O	0.6968430032631578	-0.319658217142105	1.230325715126315
O	-0.06681120673684227	-0.8451283541421051	2.443332305126315
O	0.5001191132631577	-2.170295444142105	2.6880994851263154
O	-0.2574952737368422	-3.238291024142105	2.050515475126315
O	1.6804540732631579	0.5727222208578949	1.784530855126315
O	1.7221210032631578	-2.322117474142105	2.665287305126315
O	-1.6508222427368422	-3.0714094541421053	2.454738785126315
O	-1.5937106427368422	-2.622869354142105	3.883561605126315
O	-1.3993224317368422	-3.7028938641421054	4.903126345126315
O	0.028549803263157703	-3.983493424142105	4.861004145126315
O	0.8774595732631578	-4.3551377341421045	3.761199545126315
O	0.30041412326315786	-4.500171064142105	2.380449885126315
O	-0.5885246787368422	-5.675683344142104	2.679465705126315
O	1.7254069532631577	-5.248024204142105	3.853136165126315
O	4.075174793263157	-1.018077534142105	0.019401302426315038
O	2.818626423263158	1.280176696857895	-3.896339544873685
O	0.5376788232631577	-0.04881630014210503	-3.919894424873685
O	10.658125783263158	2.564696065857895	7.876323915126315
O	9.063731853263159	-0.8577862041421049	7.3519756351263155
O	8.223812823263158	-1.150755144142105	11.103381455126316
O	5.002403703263157	7.669079975857895	8.323744845126315
O	1.5080537932631577	7.177434945857895	6.919155315126315
O	-0.11208201673684226	5.646061925857895	9.982561425126315
O	2.8395141632631575	3.244217165857895	10.269839755126315
O	2.4940136332631577	2.0057665658578947	6.738233375126315
O	-1.1872043697368422	2.220577185857895	6.078018485126315
O	-3.243045016736842	2.011185665857895	9.250707255126315
O	-1.6165993317368423	0.28467477495789495	12.233386955126315
O	1.1212533132631577	-1.533236854142105	10.383030855126314
O	4.128520613263158	12.233036425857895	3.6578470751263152
O	0.6411228432631577	13.131768425857894	2.448515115126315
O	0.15792033826315777	12.197562225857894	-1.194181344873685
O	-8.092926626736842	2.955917515857895	12.849623655126315
O	-8.223889476736842	0.5687711658578949	15.838007055126315
O	-12.835365516736841	-3.8246972441421057	5.858579885126315
O	-10.106914436736842	-5.748892284142105	3.9632390551263152
O	-7.662574046736843	-2.940222234142105	4.419219655126315
O	-9.160165476736841	-1.373728274142105	7.489089825126315
O	-12.193608916736842	-1.9151809941421052	9.747643055126316
O	0.7440810632631578	-8.182557124142106	-7.662969284873685
O	-3.646537526736842	-5.138745094142105	-5.658350834873685
O	-7.0119308967368426	-4.770834074142105	-3.8549738848736848
O	-7.484228816736842	-7.772395514142105	-1.560597814873685
O	-4.488960656736842	-9.481777084142106	-3.1792291848736847
O	-3.9788695067368423	-13.202423874142106	-3.385440904873685
O	-1.2186490607368423	-14.771187374142105	-5.513408254873685
O	-9.456422526736842	-10.767668374142106	-1.921971304873685
O	-12.968849916736842	-7.341982144142105	-4.253514074873685
O	-14.882581016736841	-4.133846434142105	-4.864960274873685
O	5.895376303263157	-7.050944174142105	-10.617137544873685
O	7.181286553263158	-5.240563484142105	-7.583243544873685
O	5.102604023263158	-2.372886154142105	-6.081030714873685
O	1.4414044432631576	-2.4450994941421054	-7.1704334648736845
O	2.6040026832631575	-5.413055914142105	-9.195358614873685
O	5.152304953263158	-3.0734082541421053	-10.755279844873685
O	2.3631101932631577	-0.691143184142105	-11.696364744873685
O	8.726860883263159	-3.3311305641421054	-13.091092244873686
O	10.379426883263157	-2.9575700941421053	-9.676729884873685
O	9.503059283263159	0.15086766485789493	-7.594270974873685
O	6.231511043263158	0.701281144857895	-9.440048124873686
O	3.5548917632631576	3.2404460458578948	-8.774571494873685
O	-1.9312527467368423	7.663045015857895	-8.106302084873684
O	1.1113767132631578	7.805901995857895	-3.6640129448736847
O	-0.043899475736842275	8.369259855857894	-0.06465474387368497
O	-3.4785747367368423	9.577240795857895	0.998925338126315
O	-4.577097616736842	6.630702925857896	3.156118895126315
O	-3.9475287467368423	3.8089617958578947	0.678344841126315
O	-4.805918756736842	5.618639485857895	-2.5486910348736846
O	-9.764902706736843	2.8897943058578948	-3.4066671548736847
O	7.359352113263158	4.5938626858578955	0.11905652972631503
O	6.864574133263158	4.478531035857896	-3.661706984873685
O	14.385825883263157	1.623684395857895	-0.20684344587368494
O	11.158887583263159	-0.11629869514210506	-1.293592894873685
O	12.522170583263158	-3.462952844142105	-0.05693960067368497
