78

O	-2.9713640466222224	2.3200548834844446	3.2127386966
O	-2.7474724576222225	1.6032795104844444	4.4132300566
O	-3.855480030622222	0.8675743134844445	4.7603881266
O	-4.279948480622222	0.5679340054844445	3.5086294166000003
O	-3.9766177406222223	1.6190822894844445	2.6916711666000004
O	-4.959179640622223	2.5598904524844444	2.1152602166
O	-5.834070500622222	1.9148898154844445	1.3126173966
O	-7.171967970622222	1.7326562324844446	1.6955840765999999
O	-7.558814500622223	2.4871813524844444	2.7983828666000004
O	-6.747926500622222	3.473151792484445	3.3468919066000002
O	-5.522880830622222	3.6989051524844445	2.6833972466000002
O	-4.743616410622222	0.8392055194844444	5.9823375666
O	-2.013370744622222	2.9209207224844445	2.2195406866000003
O	-1.4985788776222222	4.274514572484445	2.5114875766
O	-0.5112648006222222	4.745401722484444	1.4397163366
O	0.06731947937777782	3.631214392484445	0.8424572726000001
O	-0.9406994506222224	2.9245781024844444	0.11859068460000005
O	-2.2625353693222223	2.7438521624844445	0.7941632866000001
O	1.0062176193777779	3.644117892484444	-0.2240604423999999
O	1.2876573893777779	2.0914752104844445	-0.2531086064
O	1.9942909493777776	2.0946798774844444	-1.5775475933999998
O	1.0719916393777775	2.6232827224844444	-2.4015037834
O	0.8223094993777775	3.8748026124844444	-1.6332522134
O	3.014500519377778	3.2456172824844445	-1.4944255533999997
O	3.306294139377778	3.789487142484444	-0.23711674839999997
O	3.7494106693777773	2.605083602484444	0.5302017306000001
O	3.1139234493777774	2.8332308524844443	1.8038279766
O	3.0688571393777773	4.628406042484444	2.1432821066
O	4.065326009377777	4.783717092484444	0.5377584196
O	2.9472253893777776	4.164200672484444	-2.3101675434
O	-6.040643330622222	1.3376633744844444	5.7528496066
O	-4.227941550622223	1.6991415994844445	6.8819019165999995
O	-4.951195940622222	-0.4574234875155556	6.2771308066
O	0.9131751793777778	13.318985532484445	-7.758348783400001
O	0.2877783093777775	12.374068132484446	-4.149477093400001
O	-3.434813180622222	13.216977332484445	-4.3359984634
O	-1.3784172306222224	7.563921492484444	-12.2248208334
O	-1.7985210286222224	3.9670394124844446	-11.0824800334
O	-5.393524920622222	4.147996242484444	-9.9964899334
O	-4.599899540622222	7.339790622484444	-8.0358314334
O	-1.8759829426222223	5.778173152484444	-6.1195947234000005
O	-2.868339430622222	2.2213850424844446	-5.6494406934
O	-6.582274930622222	1.7606383744844445	-5.9633310534
O	-8.727460750622221	4.808390812484444	-5.0200784634
O	-6.052728660622222	6.809566962484444	-3.1823874034
O	-11.871698750622222	-1.2461594875155557	-7.060863303400001
O	-14.775520470622222	0.4611534724844444	-5.2041572234
O	-8.660134880622223	-7.044590137515557	1.5515529166
O	-6.015981710622222	-5.007332957515556	3.5159766866
O	-4.874649400622222	-2.8980796975155556	0.5133226526000001
O	-8.117595930622223	-3.579545807515556	-1.5424100934
O	-11.583003490622222	-5.069835387515556	-1.0343211333999998
O	-13.264457270622223	-3.170591637515556	1.8231210166
O	9.053203929377776	-0.24053025751555546	6.604765566599999
O	5.506927709377778	-3.737796557515556	3.8132884566
O	2.434924209377778	-6.110418027515556	3.6798154966000003
O	-0.22575230062222218	-4.823561647515556	6.2010795266
O	2.3535636993777773	-2.509019247515556	7.7618554866
O	2.5965312393777777	-1.5607811775155553	11.390807066599999
O	5.667987579377778	0.15638567248444435	12.9259863666
O	2.1297458893777774	1.4319652896844444	17.767552266600003
O	-1.0411253506222224	-6.152415417515556	9.4298407866
O	-4.044127930622222	-5.847889117515556	11.7678611666
O	-3.9745018206222222	-13.199430667515555	7.6994281266
O	-0.29113554062222224	-10.873914967515555	6.8905683866
O	-0.27604117062222233	-13.483101367515555	4.1301485066
O	14.164544429377777	2.796641112484444	5.3452065366
O	12.251559329377777	4.947396472484445	2.9065392666000003
O	10.291018629377778	3.2573424924844447	0.09832035460000005
O	9.418552329377778	-0.3796796075155555	0.8308705846000001
O	11.49030012937778	0.27152779248444436	3.9037491966
O	14.300395029377778	1.3463458114844444	1.5802876366
O	13.900766729377779	-1.9310708075155556	-0.2639335824
O	3.812210309377778	-0.5429757075155555	-10.5760611334
O	-1.2921192726222224	-2.8138323575155555	-9.0355869134
O	0.7241622693777776	-2.956981477515556	-5.8889860134
O	3.3923296493777775	-5.486618637515556	-7.1236542134
O	8.330131329377778	12.690460932484445	-0.8836915333999998
