37

O	-17.26456699702996	-1.6874461563501568	56.68658518331292
O	-18.603492179391147	-1.9971893084472794	56.537499819681706
O	-19.18983993782487	-2.084896920741494	57.72692429598612
O	-17.088893815426694	-0.9858522247010719	57.899028372046295
O	-17.371309895295425	-1.7485442453752555	59.06949261725044
O	-18.475261875163884	-2.5567809720179873	58.72329002287945
O	-18.300756912303186	-3.7350575168983817	59.47738529838801
O	-17.264343113003516	-3.481185869358358	60.50888496188151
O	-16.63734587701174	-2.358962201345057	59.913707356073076
O	-18.441398349090495	-5.05213870210849	58.70545665036295
O	-17.70807386688183	-5.5212714515494445	57.83013851532422
O	-16.130599125130193	-4.356381001311945	60.6424525755278
O	-16.253368983302575	-5.627856298102352	60.06955651377033
O	-16.2509926169461	-6.45080175981668	61.45814203153623
O	-17.33991500160857	-5.676030004541641	62.198940677696065
O	-16.619448596174355	-4.507092014858745	62.78488029705486
O	-15.465442951598584	-3.9883744418901363	61.89504359335012
O	-14.903505593351921	-6.149752397758444	61.76685848650067
O	-15.273631685380947	-2.3102121825654964	59.80769950927784
O	-14.055790780644909	-2.085749707340589	59.202048055188776
O	-13.768287588763437	-2.539283041824552	57.91386826931788
O	-13.921335991105812	-1.6725234138262	56.790601772867944
O	-14.0335194330503	-0.2712938130972167	56.874084909730534
O	-13.586213822525826	0.10114570153722635	58.09007108639724
O	-13.553262886322251	-0.8321894917731316	59.17315461499842
O	-16.655299521885873	0.11717491954463544	58.25264035497913
O	-16.89134499870027	-1.0175043128913095	55.60739598291707
O	-17.636074058593074	0.6595456055887627	53.56992859340627
O	-17.036794277960247	2.0016921083453676	53.3172354963646
O	-17.41620723425219	3.10713680259346	54.117655831758874
O	-18.80729463021536	2.969549220350075	54.28896050829881
O	-17.70621907304393	0.26198278749603343	56.01232170915046
O	-18.144563667321215	0.6873223643018953	54.79695457584136
O	-19.167611629751782	1.654947003923814	54.652587863634736
O	-20.24634612165777	1.1097723645509223	55.14309205118409
O	-19.97171309171334	0.4833423316819072	56.31713129573801
O	-18.793313633276718	0.30614958554265037	56.89511175693809
