77

O	0.8906075743529411	1.9411989494078425	2.5712125469411764
O	2.123007584352941	2.2614796174078426	3.3625411869411765
O	3.0030930243529412	2.5611745674078428	2.2539244269411762
O	2.468228494352941	2.0896912694078424	1.0245439349411765
O	1.5264928143529413	0.9863963684078425	1.5271657369411766
O	1.450939454352941	2.9271031674078425	0.31347267884117647
O	0.27947297435294116	3.1267417374078423	0.7352822459411765
O	1.3181622243529412	2.322536417407843	-0.9961533930588234
O	1.634143724352941	0.9988161674078426	-1.4125603830588234
O	1.044300934352941	0.9415369534078426	-2.8194141030588233
O	0.7580939843529411	2.3738810874078426	-3.1335773030588236
O	1.7074307343529411	3.058666447407843	-2.1419728930588233
O	-0.13277118764705886	1.2033144024078426	3.1287698569411764
O	-1.329817529647059	1.9432059774078425	3.2361635969411764
O	-1.833210275647059	2.2124340444078427	4.575014436941176
O	-0.8784962939470589	2.2443597274078426	5.645374916941176
O	0.245906454352941	1.3352341244078425	5.436633076941176
O	0.05911631035294107	0.41583971240784257	4.284033026941176
O	-1.5327209846470589	2.0473061834078425	6.919890916941176
O	-1.445472688647059	0.8803190844078426	7.543134156941176
O	-2.622126205647059	0.40755370040784256	8.080526156941177
O	-3.142115695647059	1.3887812244078426	8.944303616941177
O	-2.258374715647059	2.9756253274078426	7.519811226941176
O	-3.3630769656470587	2.5512044974078423	8.195745136941177
O	-0.43215472564705887	2.8426648674078425	-2.6823307730588235
O	1.0152242443529411	2.551611567407843	-4.446701333058824
O	9.513566404352941	11.634727057407844	0.9746583649411764
O	6.06906020435294	11.221924007407843	2.5142122369411766
O	11.405077904352941	1.5203087354078426	1.7983966269411766
O	11.304319504352941	1.4011255244078424	5.5921360169411765
O	9.93466880435294	4.973384717407843	5.6738312769411765
O	7.16460102435294	4.192895807407843	3.3387506269411764
O	6.311694764352941	0.6029888214078426	4.147821456941176
O	7.279380954352941	-0.33166431259215745	7.667980186941176
O	7.457329154352941	2.5305549174078426	10.194741736941177
O	5.457948634352942	5.093755737407842	8.262529396941176
O	13.878357204352941	-2.4369968625921574	-4.065879233058824
O	8.99462128435294	-4.122814032592157	12.154352396941176
O	-1.1417091016470589	-7.766048022592158	11.002715796941176
O	-3.226970785647059	-5.075473192592158	9.197759506941177
O	-0.24623168764705894	-3.515417432592158	7.540289766941176
O	2.345383024352941	-4.766746032592158	9.964897746941176
O	2.5630089943529413	-6.899026212592157	13.151056196941177
O	-9.08981610564706	2.8093192374078426	-3.3465413730588236
O	-9.85419969564706	-0.8793113425921575	-2.6361297630588236
O	-6.402548795647059	-1.8182104825921572	-1.3676133130588237
O	-5.862478665647059	-4.617578252592158	1.1974145069411763
O	-7.302891245647059	-3.437080092592158	4.507523806941176
O	-8.88917271564706	-0.39170652259215744	2.8325501869411767
O	-12.03021659564706	1.2961393486078425	4.003774626941176
O	-13.883012995647059	3.868190107407843	1.8650547269411764
O	-11.448178395647059	-4.619089462592157	2.6436439969411767
O	-10.307018195647059	-4.170434912592158	6.238363496941176
O	-9.32156460564706	-9.144366742592156	4.223044256941177
O	-7.308909505647058	-12.167293942592156	3.1354613569411764
O	-4.1020949356470595	-8.746291502592157	-6.238649203058824
O	-8.777501535647058	6.222934497407842	-8.356492563058824
O	-5.442162705647059	7.497795497407842	-7.193292543058824
O	-2.655210715647059	4.960208737407843	-6.354415393058824
O	-4.029431985647059	1.4175233394078426	-5.749025713058824
O	-7.266537305647059	3.074306217407843	-6.527980683058824
O	-5.69341676564706	4.091343127407843	-9.867159003058823
O	-4.681299445647059	0.5065088744078425	-10.506544703058823
O	-4.061195535647059	9.018595387407842	-11.136138803058824
O	-1.6725687596470589	4.0434569874078425	-10.872905403058823
O	0.33895470435294106	0.9296988904078425	-10.276629103058823
O	3.345555124352941	-5.372125202592158	-9.398831053058823
O	6.34915259435294	-1.6252926625921573	-7.036466903058824
O	8.460463404352941	-2.000631402592157	-3.8762533630588236
O	9.38573350435294	-5.274474712592157	-2.1930660830588233
O	7.8529790243529405	-4.751750122592157	1.2656083159411764
O	4.311365144352941	-3.8180249625921574	0.19783765494117644
O	3.991901464352941	-5.9722337625921575	-2.9267967530588233
O	0.30095245435294116	-9.684773042592157	-0.5762071020588235
O	6.92179021435294	6.108291637407842	-5.094408333058824
O	2.843124754352941	10.850751357407843	-5.822884733058824
O	0.9153485343529411	13.538126657407844	-3.8660951530588235
