31

O	-13.576969672096052	-6.659859247455627	58.3437763181833
O	-14.99360790351107	-6.886926437358063	61.940178384806934
O	-19.010993723911557	-3.6019334917641883	61.03489702957069
O	-12.205343258802092	-4.571230534829031	59.069428466823496
O	-23.699204659154834	-4.568214156214169	61.778797837655645
O	-21.997845639491764	-7.504296144177171	61.512317689673125
O	-24.727067760196775	-5.429903025025218	61.68596710878409
O	-20.869133640086208	-6.785788788764576	60.830358082693344
O	-22.996058201135753	-6.598378663729468	61.87219976508308
O	-16.62791400795636	-6.363079334380993	58.97440933469475
O	-20.364024361832058	-5.575525410404724	61.373621996004815
O	-21.262764711195718	-4.800163676993897	62.12859542636739
O	-17.352754220337502	-6.601947168011733	61.24257543689345
O	-17.45524729175594	-5.152136471621061	59.41552162158694
O	-14.177828910111197	-5.680521010966748	59.07851607390423
O	-12.252392545648423	-6.633127251870111	58.04634302864814
O	-13.493433513823527	-4.534543066363988	59.46754931316081
O	-11.610777444261315	-5.503954466282476	58.35715981951126
O	-22.667715540838074	-5.3449309238366425	62.11797827001603
O	-24.306029374338294	-6.703358744009036	62.05780685115692
O	-15.348054665607046	-5.995945285875006	59.641108764856085
O	-15.800890184086391	-6.1866522238423745	61.00096970808853
O	-18.20345069006698	-5.648410228789359	60.43537557932518
O	-19.24106198604602	-4.803365380543873	60.91584219559195
O	-25.414295716018962	-7.56020884548017	62.397135269330285
O	-11.60868273224067	-7.233085650275028	57.040427572800375
O	-13.779137850135708	-4.098703148759677	60.73509679342585
O	-10.595719127046163	-5.107758795305424	57.53539624106723
O	-26.37428310630297	-6.8559459877252396	63.23064278486625
O	-25.36599555007098	-8.662716764172156	63.16741556311239
O	-26.306511034085545	-7.840262868825131	61.35671667388824
