26

O	-11.80810557708671	-4.459547280797384	58.52986426482707
O	-12.840437632167545	-4.905613299786476	59.34824957296009
O	-13.76814610040485	-5.79173561332353	58.83984541659767
O	-13.244919589903956	-6.534811815728062	57.84032601059005
O	-12.163509685827833	-6.2454222164141875	57.06141992494279
O	-11.281874861053623	-5.380163786488252	57.638511494626265
O	-15.006209213567786	-6.175900900627534	59.470610210015
O	-14.989019423891184	-5.802708441144817	60.89225318257244
O	-16.434471593442723	-5.849438279775255	61.253787224462876
O	-14.35578851461928	-6.602323436011629	61.8903425021991
O	-17.239038849869303	-4.922126686357101	61.770179320571025
O	-18.10723989449191	-5.42700222003266	62.68795908896291
O	-18.685168293443	-6.647507832474108	62.458568826712494
O	-18.162815680396687	-7.4741304627866825	61.564344778971225
O	-17.088633130398904	-7.017743183821096	60.85904050901758
O	-20.048698954451112	-6.981029060521218	62.80974646158023
O	-20.711891966893994	-5.817955031805917	62.42019686200675
O	-21.586899519276553	-5.539993228913491	63.37873649624473
O	-22.43934537671938	-6.523226733034881	64.02970953244804
O	-21.99590140868602	-7.814584412895712	64.04195921957746
O	-20.706754555697284	-7.938727543704118	63.608630030623786
O	-22.9971039308089	-8.75120763160217	64.47822444688282
O	-22.92915880191656	-9.378663993502204	65.77312303475837
O	-24.23235287552112	-8.587370914726911	64.16863861023099
O	-12.240563075757397	-6.557161439285624	55.75190019016416
O	-13.496671765008777	-3.977650716769187	60.05371362128343
