78

O	0.929431706348077	-4.699627001513461	-0.6173444271884614
O	2.217430146348077	-4.563278161513461	-1.3745322884884614
O	1.9748064963480771	-3.398350981513461	-2.3001935874884616
O	0.802936626348077	-2.747920161513461	-2.3908647874884617
O	0.6430226363480769	-1.4555602115134607	-2.6962311574884614
O	-0.624503070651923	-0.6500286625134609	-2.3310245774884617
O	-0.7613900856519231	-0.22837197694346092	-0.9068212914884615
O	-2.2169702036519228	-0.07271932451346094	-0.6756026650884615
O	-0.5165650794519231	-1.652579091513461	-0.5481933761884614
O	-0.12148525965192303	0.858542198486539	-0.2744697724884614
O	1.567586416348077	-0.646899878513461	-2.0995626074884615
O	1.719384096348077	0.833886888486539	-2.2760152974884615
O	1.387056046348077	0.875431408486539	-3.6630741974884615
O	2.578222156348077	-1.3043919415134608	-1.5999970374884613
O	3.0342177863480773	-2.473178471513461	-2.3303850774884616
O	4.344752776348077	-3.096279731513461	-1.8562116274884615
O	4.506718966348077	-4.53878589151346	-2.0893391474884613
O	4.233725196348077	-5.22269426151346	-3.0931294374884613
O	5.344741646348077	-5.1993093515134605	-1.1672921214884613
O	2.714860936348077	-0.9502047375134609	-0.1726553474884614
O	1.907721366348077	-1.012794796513461	0.8891168125115385
O	1.8003628863480772	-2.238380541513461	1.5445211925115387
O	2.8306666263480773	-3.092836281513461	1.5741428525115384
O	3.077797166348077	-4.5452854015134605	1.8287903025115386
O	3.960297776348077	-2.6417313915134613	0.9576078125115386
O	3.793103476348077	-1.606896761513461	0.043831203511538575
O	11.382076396348076	5.4424359784865395	-0.00953981548846139
O	10.685373896348077	1.8735735484865388	-0.9128148124884614
O	12.421395696348076	1.999510428486539	-4.298729807488462
O	6.463041366348077	9.901441618486539	-3.7563185774884613
O	3.0996583163480773	8.835439248486539	-5.150457277488462
O	4.226622236348077	7.683048558486539	-8.59458900748846
O	7.075469826348077	5.70357375848654	-6.9842791374884605
O	4.792406666348077	3.9089955184865386	-4.707936537488461
O	1.6139487163480768	3.649884108486539	-6.767876187488461
O	2.2051248463480766	3.606996538486539	-10.425377687488462
O	5.682830586348077	2.596874828486539	-11.57552661748846
O	6.8129127363480775	0.7764557684865391	-8.46080595748846
O	1.800839936348077	13.31945711848654	-0.5721094420884614
O	-4.218341523651923	11.85941831848654	0.37820285151153854
O	3.1321469963480766	2.693642058486539	-18.653417717488463
O	-4.774747003651923	-5.84785459151346	-11.59350621748846
O	-2.982741633651923	-2.842003661513461	-10.062005227488461
O	-2.552519043651923	-0.8279181255134609	-13.250760717488461
O	-3.670049713651923	-9.285731811513461	4.256229622511539
O	-6.095422363651923	-6.413892921513461	-0.01745027448846137
O	-7.617855593651923	-6.060339251513461	-3.5565210874884614
O	-5.985829853651923	-8.62796621151346	-5.844461197488462
O	-4.496809913651923	-10.31919678151346	-2.7527059774884615
O	-3.7697441736519233	-13.993120481513461	-2.430923777488461
O	-2.6527564536519233	-15.548653281513461	0.8894937325115386
O	-7.2106852336519225	-11.802542481513461	-7.084694457488462
O	-11.892614803651924	-9.11210884151346	-7.398346647488461
O	-2.0464858036519233	-8.073221971513462	9.997816982511539
O	0.5261179263480769	-5.612915431513461	8.77266616251154
O	-0.5699525037519231	-2.785410421513461	6.331456202511539
O	-3.932736193651923	-3.526348161513461	4.683737892511539
O	-3.785957153651923	-6.61990376151346	6.7766318825115395
O	-3.4356215736519227	-4.2863305015134605	9.74937448251154
O	-6.576138233651923	-2.466944561513461	8.71450323251154
O	-2.339077043651923	-4.512737331513461	13.887865082511539
O	1.013328146348077	-3.322281031513461	12.54647928251154
O	1.113027666348077	-0.05933161951346094	10.509594082511539
O	-2.5796726336519233	-0.24675910081346092	9.69045268251154
O	-4.620019233651923	2.003847728486539	7.519890532511539
O	-9.189090323651923	5.850159468486539	3.769236022511538
O	-4.123230873651923	7.19824294848654	2.5135943725115384
O	-2.811156073651923	8.35170231848654	-0.8858194824884614
O	-3.711020553651923	6.854651568486539	-6.457060617488461
O	-4.172700973651923	3.654797148486539	-4.432179847488461
O	-7.249906463651923	4.6310953284865395	-2.3873016574884613
O	6.023596246348077	7.9976764784865395	5.083609512511538
O	3.554596106348077	5.4441660084865395	3.6251155525115384
O	0.7832062463480769	4.67645567848654	6.189368662511539
O	9.087850616348076	3.5209449384865388	8.471431602511538
O	6.429425406348077	1.1744915084865393	7.033700942511539
O	9.094884166348077	-1.5695238515134609	6.984928912511538
O	10.043002196348077	-1.4459423315134607	10.648135482511538
