28

O	-15.133258296833882	-7.447331944072881	61.913309229043335
O	-12.259315730141472	-5.629854673021796	58.10709740219564
O	-17.314005907306555	-6.007395734158677	59.353356675103996
O	-12.789471836894402	-4.621254554256719	58.806401858444005
O	-18.565748407627023	-6.663053181751573	61.79072142418934
O	-23.356938396747115	-2.8096047101889257	62.450481787229926
O	-13.978443875120707	-4.81052248163722	59.532190660577065
O	-20.90634925240179	-4.650980816763255	61.19654702634496
O	-22.8017806718152	-2.5587356273338253	60.369689823776056
O	-14.898133381148929	-5.8253375487384496	59.25220023609257
O	-22.290378652959248	-4.999481713896726	61.22539735379001
O	-14.377243205129808	-6.749859710388345	58.33182951067669
O	-13.195661478447606	-6.548935001229662	57.628919470100705
O	-16.096441747275126	-6.16283416979366	59.94875609973156
O	-18.519253651661522	-6.352553504799143	59.994639164026005
O	-18.110432128369734	-5.469088972539	61.2078286255185
O	-16.778403844165055	-5.730574590448594	61.991544763435584
O	-16.22113744954964	-6.92169182585097	61.1849950971919
O	-19.538185265519566	-7.600565157919814	61.366395087001244
O	-20.80996833920683	-6.765972185673113	61.12330489981436
O	-20.544000469048008	-5.735538206055132	62.01303575890095
O	-19.389598842640357	-6.199559879594387	62.88636175120191
O	-22.024142785605996	-6.186196849333264	60.70970807938132
O	-25.04622870581951	-3.920110833991428	61.03734229933394
O	-12.715530174320358	-7.166551464970632	56.537172984399305
O	-14.254654548245247	-4.111314113632455	60.672196001075115
O	-10.973480604461002	-6.018406365740146	58.06809219461335
O	-23.398381847780573	-3.69185848873877	61.20277719598854
