78

O	-0.8805718348979596	0.3784754554510199	4.2449414480959184
O	-2.1363564888979596	1.0642409254510201	4.265228078095919
O	-0.9257461808979597	0.043701539451019955	1.9601264380959185
O	-0.5222119008979595	-0.25280689924898003	3.1251330780959186
O	0.3775071611020404	-1.26786513454898	3.2809786980959186
O	1.0652966311020404	-1.4575951645489802	4.466244948095919
O	2.2952662511020403	-1.9282273245489803	4.119859828095918
O	2.1496877811020405	-2.31736493454898	2.8586830580959184
O	2.7972403111020405	-3.35604671454898	2.1672100080959185
O	3.37187284110204	-4.36615045454898	2.9944594080959184
O	4.287921491102041	-3.43684898454898	3.8136074380959184
O	5.28846099110204	-3.07211651454898	2.7783053680959187
O	4.837470181102041	-2.72159786454898	1.4373748630959184
O	5.52220687110204	-2.93257548454898	0.21955320009591842
O	3.4268734511020407	-2.93755979454898	0.9912346420959184
O	1.0385873811020403	-1.8626286845489801	2.2968996780959183
O	0.7379359211020404	-1.9215451745489802	0.8977926440959184
O	1.2823679111020403	-0.7850571345489801	0.2286536750959184
O	2.0166965211020402	0.14931762245101993	0.8872364740959184
O	1.5613016911020403	1.42072661545102	0.4735533335959184
O	1.7115011611020403	1.5592993254510201	-0.8790232819040815
O	1.5058921111020402	0.5445842144510199	-1.7005293119040816
O	1.1073683511020405	-0.61521374654898	-1.1125145219040815
O	0.0727543011020404	-1.11901119954898	-1.9248505219040815
O	-1.0302671318979595	-1.54287702454898	-1.9965978219040816
O	0.8339735711020404	-0.62250292854898	5.508237868095918
O	1.3257745711020403	-1.1108867455489801	6.779291018095918
O	-0.3950007888979596	-0.018439889548980043	5.454364188095918
O	-0.5348138318979596	0.88685337545102	6.3321305080959185
O	11.866240161102041	0.09681345145101994	5.388272458095918
O	12.034012261102042	-4.850967344548979	-4.530658111904081
O	9.89880186110204	-4.4013951945489795	0.2529255390959184
O	7.6699213211020405	-6.87722825454898	-1.4680387319040815
O	8.733550981102042	-10.43628480454898	-0.8687465119040816
O	9.93317716110204	-7.99050524454898	4.1261085180959185
O	13.42136776110204	-0.36394738454898007	-9.033498811904082
O	-2.2740409488979596	-13.23911030454898	1.6427108980959184
O	0.7285661711020404	-11.27356040454898	0.39859355039591843
O	2.8378111611020405	-14.28034380454898	-0.6196573319040815
O	-8.91386912889796	4.82889804545102	4.748463158095919
O	-6.508436758897959	2.27249468545102	3.4686457780959183
O	-8.540821138897961	-0.33171435464898	1.6816991780959185
O	-5.6559643388979595	-2.22699081454898	0.1892734090959184
O	-5.770982248897959	-5.9527551745489795	-0.6581701319040816
O	-5.81506015889796	-7.9537727745489795	2.5594753980959184
O	-6.2132451388979595	-4.74857335454898	4.533618818095919
O	-8.02908025889796	-4.48798884454898	7.8165855980959185
O	-8.87733669889796	-1.12892723754898	9.401896598095918
O	-11.656924838897961	-2.3904436345489803	11.628915408095919
O	-10.66445293889796	-6.49946598454898	-1.0952704419040815
O	-10.413116768897961	-6.661059924548979	2.6852317880959187
O	-8.55499182889796	-9.51598586454898	4.303878878095918
O	-10.340895288897961	-10.621192204548981	-0.7037411519040815
O	-7.758165648897959	-2.20072059454898	-8.463847301904082
O	-5.336682758897959	8.19024526545102	3.3484265980959185
O	-1.6288402988979596	7.45590317545102	3.3244582080959186
O	-0.2363608958979596	5.21452982545102	0.6741889100959184
O	-2.7371243388979596	2.89013187545102	-0.8773984019040815
O	-5.212176118897959	4.867859225451021	1.2273097770959185
O	-3.8560626988979596	7.9983175554510195	-0.4208487609040816
O	-4.69935044889796	6.46669212545102	-3.7684073919040815
O	-3.78580796889796	12.18681089545102	0.2719473710959184
O	-0.3519146938979596	11.376532095451019	1.7379188380959185
O	2.1995075911020403	9.65645415545102	-0.5381386679040816
O	-0.4903640768979596	8.266521935451019	-2.8238048519040815
O	-0.12780472089795958	5.957704575451021	-5.729932951904082
O	-0.2518817708979596	1.6033555154510197	-11.286994991904082
O	4.50408643110204	1.33087921545102	-8.828057771904081
O	6.764987761102041	-1.7138529845489798	-8.418823831904081
O	3.2462831811020405	-5.700792504548979	-5.636276141904082
O	1.3306044811020403	-4.24373710454898	-8.613983021904081
O	11.99678706110204	5.61856544545102	-2.6612077419040814
O	8.710757941102042	3.67086438545102	-2.4887046519040816
O	5.8032862411020405	5.66514746545102	-3.925997431904081
O	10.637809161102041	9.204163095451019	2.4902994280959185
O	7.399116121102041	7.15786491545102	2.4914190280959185
O	7.37547972110204	7.16065517545102	6.314654718095919
O	7.609600391102041	10.95391199545102	6.753287288095918
