75

O	-0.798759531288	1.9579293350400004	3.593097553386
O	1.0875493627119999	2.0754258550400007	2.0791342333859997
O	1.540168312712	2.0565034950400003	3.462487573386
O	0.297366762712	2.3127519450400005	4.2696134633859995
O	-0.22785927728799993	2.7621960750400003	2.432516623386
O	-3.511822427288	1.3868060530400004	1.1496354923859997
O	-2.489447287288	1.8503526700400004	0.3299977021859998
O	-1.135150075288	1.2842578920400005	0.039709015385999746
O	-0.964209311288	0.1361805940400005	0.44502878438599974
O	-1.359911970388	-0.1497138649599996	1.6666645433859997
O	-2.789243067288	0.23248634204000052	1.5959607933859998
O	-4.074258327288	2.0554490050400007	2.371486313386
O	-2.956820967288	2.6120143650400003	3.0145135633859996
O	-2.186757060288	2.116183585040001	4.0645472333859995
O	-3.0066566772880003	1.3443499390400004	4.793620543386
O	-4.420507167288	1.4976728340400005	4.689275633386
O	-4.765324207288	1.4098764880400005	3.351361423386
O	2.153872902712	2.5381328950400004	1.3432331433859996
O	2.022562582712	0.8165415950400005	3.7011964833859996
O	2.985812802712	0.3289315510400005	2.763049533386
O	2.8994089127119995	-1.1246289249599997	3.235067443386
O	1.445920402712	-1.4051002849599996	2.9986651633859998
O	0.5367253927119999	-1.0910915249599995	4.231709523386
O	1.299663062712	0.11066801804000048	4.724111363385999
O	0.489031762712	0.7084707990400005	5.536072473386
O	8.978268682712	10.023820395040001	5.727370043385999
O	6.345956142712	8.057892115040001	7.441255743386
O	4.153549892711999	11.16954166504	8.073192763386
O	6.8240161927119996	11.66661546504	-1.3602356866140002
O	4.285253332712	9.666375845040001	-3.3405688566140004
O	1.1332664227120002	11.62184006504	-2.408037906614
O	2.254299582712	11.447445465040001	1.2582929953859998
O	2.7495826227119995	7.7659042750400005	1.1614290093859998
O	0.17359711271199996	6.66955033504	-1.3444790066140002
O	-2.827095727288	8.81657675504	-1.4841273366140002
O	-3.479157797288	11.04328622504	1.4863734733859997
O	-1.431754018888	9.428321275040002	4.071492423385999
O	-7.709571107288	11.46218636504	-3.963870816614
O	-9.952101827288	12.76111796504	-1.0892200666140002
O	-11.980988317288	1.6510013490400004	-3.2184108066140005
O	-10.072547327288	-0.4038991549599995	-0.6281890076140002
O	-6.8886326372880005	1.6363833700400003	-0.9480964266140002
O	-8.453347027288	4.689303505040001	-2.425341286614
O	-11.971079617288	5.956548925040001	-3.128163036614
O	1.614120792712	-9.863923634959999	4.6734009433859995
O	-1.174149861288	-7.63275005496	0.19643090308599975
O	-4.379428337288	-6.67726004496	-1.7507562766140001
O	-7.054241417288	-5.921331964959999	0.8953155043859997
O	-4.916214517288	-7.589718194959999	3.6275387833859996
O	-6.167605527288	-9.248912534959999	6.735532733386
O	-3.8878266472879996	-11.21144323496	9.083067633386
O	-8.428890897288	-11.037146234959998	13.201477423385999
O	-9.894017227288	-7.71077389496	2.0341865133859995
O	-14.297869317288	-7.83749852496	-4.446027776614001
O	-10.145592277288	-8.881403024960001	-3.306549116614
O	-9.877672277288001	-8.306439864959998	-7.042933376614
O	7.340019572712	-11.07947433496	6.0695985033860005
O	8.046743382712	-7.4018782849599996	6.123205793385999
O	7.296760402712	-5.288459534959999	3.035977963386
O	4.675221902712	-6.840049124959999	0.7627169873859998
O	4.966038942712	-9.670325334960001	3.2427203733859997
O	8.696214882711999	-9.749426834960001	2.504369163386
O	7.930138572712	-10.010074534960001	-1.1752276266140003
O	9.688575382712	-5.59139955496	-2.7446065666140003
O	7.267597582712	-4.1971034949599995	-9.152004566614
O	8.136253582712	0.32810369304000053	-6.468811786614001
O	6.247795502712	3.6012456250400007	-6.784627246614001
O	3.661501422712	4.4152067950400005	-9.367968006614001
O	0.571268992712	5.06409047504	-7.356290956614
O	0.6552698727119999	1.8064204410400004	-5.412204926614001
O	2.0119879327119996	-0.5690971149599995	-7.957687106614001
O	-2.927578747288	-3.273142804959999	-9.040567736614001
O	10.072934282712	3.4248974550400004	0.45078106238599974
O	11.455199582712	0.9173979770400005	5.885855303386
O	10.685929882712	0.9018574980400005	9.603421273386
