78

O	-2.1440707712723404	3.220017917319149	-3.773526748565957
O	-0.7588705792723405	3.243450127319149	-4.179236198565957
O	0.25280256272765955	3.2745707773191493	-3.1267094985659574
O	1.5826276527276597	3.2550944273191496	-3.522130698565957
O	-0.054612357272340484	2.370749682319149	-2.282964307565957
O	-0.16539080727234046	4.195512087319149	-5.138838008565957
O	-1.9335117252723406	4.846546367319149	-3.715046988565957
O	2.544939912727659	2.652617017319149	-2.621024038565957
O	2.4872397427276596	3.8174170973191495	-1.643655694565957
O	2.9364696327276594	4.800863157319149	-2.507258448565957
O	2.32293269272766	4.398306837319149	-3.886541888565957
O	-0.7246166142723405	5.368871957319149	-3.274448668565957
O	0.20546789272765942	6.06595577731915	-2.535943228565957
O	-0.5627729032723405	5.30182497731915	-1.684575566565957
O	-3.0197147072723407	3.5603001273191492	-2.757179068565957
O	-2.4057635172723404	3.360280227319149	-1.546242792565957
O	-3.2914107672723407	2.566632147319149	-0.9510876685659571
O	-4.3982417472723405	3.159699867319149	-1.377715181565957
O	-4.19892658727234	3.9336058073191493	-2.436625578565957
O	-2.6382677072723406	1.2366768273191493	-1.193987268565957
O	-2.9813792172723406	0.26409069731914925	-2.2329914835659572
O	-3.787274177272341	-0.7815779626808506	-1.8944901165659571
O	-4.14714689727234	-0.7721042626808505	-0.555306924565957
O	-3.0220589372723405	-0.39055657268085064	0.21416719143404306
O	-2.0408913502723403	0.49026757831914924	-0.21550514856595693
O	-5.825143157272341	-0.8874338026808508	-0.18119824856595712
O	-6.108849467272341	-2.3001229426808507	0.02724909143404286
O	-5.91770039727234	-0.25219757268085075	1.1257727214340432
O	-6.975704077272341	-0.17755984268085068	-1.231314252565957
O	1.6666388427276593	3.433666337319149	-0.6856538735659571
O	-1.0031275572723404	1.2402658913191493	0.25706552143404293
O	-0.7678353712723405	12.89309559731915	-5.685623178565956
O	8.671717342727659	7.979954217319149	-8.377942168565957
O	3.413302432727659	7.592217797319149	-7.826388538565958
O	4.48768577272766	4.117457957319149	-8.783635458565957
O	4.383450532727659	3.503325937319149	-12.492345908565957
O	-0.09848741727234045	6.981730847319149	-11.606380408565958
O	0.6299582027276596	-7.52272955268085	-13.361501108565957
O	-1.6295975022723406	-6.33803579268085	-10.535476628565958
O	0.46560066272765943	-3.2374533526808507	-9.894778648565957
O	2.2276522227276594	-3.162268692680851	-13.301704608565958
O	-7.083895217272341	-2.6909276326808507	7.866947981434043
O	-5.002162957272341	-2.2223785826808506	4.775691761434043
O	-3.80460491727234	-5.71519478268085	3.7543230414340427
O	-1.3441134594723405	-4.54225511268085	0.9945166914340429
O	-0.7592345582723405	-6.389122212680851	-2.177308086565957
O	-3.724400777272341	-6.6568327826808495	-4.448439088565957
O	-5.750618187272341	-5.016435432680851	-1.760123594565957
O	-9.43278214727234	-5.504816002680851	-1.278109226265957
O	-11.307935007272341	-4.314671102680851	1.816929591434043
O	-14.313072157272341	-6.498120752680851	1.3698574214340429
O	-1.7217567522723405	-10.94838980268085	-0.45219606856595707
O	-5.2469743472723405	-9.92804550268085	-1.310655228265957
O	-6.16069429727234	-9.28738300268085	-4.917744388565957
O	-1.8618740462723404	-12.48972670268085	-4.287193458565957
O	3.6402822427276593	-12.37639170268085	0.2799301814340429
O	5.978782982727659	-8.22522380268085	3.275540551434043
O	-4.80487878727234	1.6246739653191493	9.382506191434043
O	-3.5920350972723405	4.3722477373191495	7.047182361434043
O	-0.5541265292723405	3.807536797319149	4.774522681434043
O	0.22922321272765944	0.2578563973191492	4.1913872114340425
O	-2.6369480372723406	-0.36375766268085075	6.743393371434042
O	-0.7627994762723405	1.8359146153191492	9.167322491434042
O	2.1990044527276593	-0.49150797268085067	8.863135391434042
O	-1.5419719072723406	4.0324245973191495	12.754537791434043
O	-1.8638437682723406	6.919149207319149	10.291554791434043
O	2.5417516927276598	4.161202797319149	8.372998441434042
O	5.535215722727659	2.5872774973191492	6.795590381434042
O	10.84848974272766	-1.0011038426808505	3.9149905014340427
O	10.17397594272766	3.4925810673191493	1.1984810614340429
O	10.55959904272766	4.0420394773191495	-2.587721578565957
O	6.8510102927276595	-0.1405451126808508	-4.988234738565957
O	8.935004042727659	-1.7153909526808508	-2.309650504565957
O	5.4084356327276595	9.83367852731915	0.30067839143404296
O	5.735469852727659	7.892302117319149	3.561309891434043
O	0.17202970272765938	11.579473897319149	3.0685751514340427
O	-3.425578877272341	12.54696379731915	2.340454281434043
O	-3.8954201272723408	14.72560299731915	5.480795011434044
