29

O	-16.799973303061243	-1.8203802302413719	56.0594085641002
O	-16.653852348819438	-1.4849006450958395	54.6760130895142
O	-15.809292266312683	-3.8929807384986965	55.81988373680649
O	-16.563761772931606	-3.0793529346504256	56.433710423247184
O	-17.16985204761747	-3.4753766253624687	57.59127047964846
O	-17.767486535158767	-2.569183975609807	58.448915991238906
O	-17.57363879890081	-3.052976810755191	59.70695815878191
O	-17.221740357119426	-4.31908061552047	59.51633639228499
O	-17.45272965457926	-5.439802031499012	60.33300434825959
O	-18.523787351982268	-5.298080794915716	61.26445707375436
O	-17.98066903441462	-4.048508110739855	61.98372089631732
O	-16.82486611268189	-4.639988273270559	62.70499079401551
O	-15.945254698296996	-5.570523468685907	62.00875903395356
O	-15.230441889460874	-6.654839760893514	62.5653255802192
O	-16.28826330582099	-6.13701067236354	60.66827362563167
O	-16.889796779603472	-4.585413529932793	58.26102369736193
O	-16.25127435984546	-5.786964281588018	57.813890768083105
O	-14.834664774963091	-5.665883310729603	57.93353565576399
O	-14.253113754475892	-4.555571172585382	58.457969982998506
O	-13.172131924543018	-4.202653398492938	57.62015953457323
O	-12.270957965941815	-5.229641957228011	57.55378352905352
O	-12.666611319011189	-6.4905485639694955	57.534627628118244
O	-14.012792061827032	-6.683602952241021	57.55016151764824
O	-14.264399037546095	-7.693627810430426	56.60112432205912
O	-14.88418411593448	-8.052542980154458	55.65851488445165
O	-17.76420075125396	-1.2521615123093461	58.129416881957695
O	-18.70009779113228	-0.4548192038326091	58.8938153777002
O	-17.632527180960434	-1.0224325166042707	56.78477597619938
O	-17.456410346380274	0.2040638650478206	56.51225665294795
