29

O	-12.53570252604433	-4.279141929828311	59.15372600434217
O	-13.662272528066472	-4.615576004784954	59.88769955477878
O	-14.418015864503168	-5.65230628912053	59.37826802975323
O	-13.837416063727975	-6.473607816702937	58.46323924047281
O	-12.553799940138514	-6.264676843088223	58.07240125942359
O	-11.81245283969233	-5.358925635065813	58.74973319559722
O	-15.832715740840937	-5.746035363582596	59.724051482745786
O	-16.120680199166834	-6.355143415978587	61.03646676740301
O	-17.519548303241557	-6.390660281436873	61.513213477097864
O	-18.423224916171968	-5.252626001697214	61.27620167910449
O	-19.806885770259598	-5.257590315653102	61.14585500713565
O	-15.057639798116053	-6.556377276042291	61.9530219848641
O	-17.843467627756503	-4.216282514263311	60.80215051352395
O	-20.437486596097514	-5.59687403409043	59.808715915544184
O	-20.812153622021256	-7.05154923714235	60.221015177195866
O	-22.099592066849812	-6.778677516115026	60.7998040353856
O	-22.253974553948957	-5.614609344777622	61.42356926292215
O	-20.957358994059042	-5.02276744292779	61.96204703713465
O	-21.14673955325037	-3.5891901891351035	62.367259608756406
O	-23.2893413946637	-7.1392662661984545	60.29528613082546
O	-24.19228148595664	-6.400566571997642	60.994614627885475
O	-25.65497804372473	-6.344564230709142	60.94040098140536
O	-23.489601773960764	-5.240250489724271	61.00920198107262
O	-14.316298087097461	-3.644085423320276	60.50950180994085
O	-26.066268260241067	-6.440007168071598	59.654272749866536
O	-26.16577763924319	-5.096019762094943	61.342263662156086
O	-26.22332864226425	-7.218108018976853	61.82973998486309
O	-11.914453181736294	-6.836929184477158	57.05026141789657
O	-10.49566163706336	-5.28001452713044	58.51455511975806
