83

O	2.251277123745454	-3.694592187077654	0.7769036377054548
O	2.023161243745454	-3.0736254170776545	-0.4514476042945451
O	1.6003197037454542	-1.7657046870776543	-0.3696891802945451
O	0.5286539337454542	-1.5439487270776544	0.4539836777054549
O	0.4431790127454541	-2.3610223270776545	1.5681080877054547
O	1.530082793745454	-3.178049067077654	1.818500657705455
O	2.037176683745454	-0.8628648570776541	-1.384847181294545
O	1.9844435337454542	0.5304990411223458	-0.8626574822945452
O	1.403679303745454	1.332280814922346	-2.037989860294545
O	0.18613117074545416	0.45791321182234584	-2.314174702294545
O	0.035604477745454166	0.29326140792234584	-3.6794018422945447
O	3.289982033745454	0.9294158319223458	-0.4464581802945451
O	-0.8394443612545459	0.49211673382234583	-1.6089061712945452
O	-0.9954931262545459	1.2776268809223459	-4.090226892294545
O	-0.03105732425454588	2.418417282922346	-4.146198792294545
O	0.4369402817454542	2.5660535229223456	-5.559488082294545
O	0.1485034287454542	1.380202371922346	-6.3064198022945455
O	0.47949379874545417	0.018067677922345815	-5.956324592294545
O	1.0351301737454541	-0.2014789990776542	-4.561088442294545
O	0.9245111337454542	-1.6527523370776542	-4.353314652294545
O	-0.5164824884545458	-0.7460797970776541	-6.135404632294545
O	-0.4162966227545459	-2.046742367077654	-3.8306984922945455
O	2.788526673745454	-3.4486391570776544	-1.482047264294545
O	1.910356433745454	-3.314950797077654	3.0883729177054544
O	-0.47969720675454586	-2.398016167077654	-2.4559205222945453
O	-1.5292254062545458	-1.3164395970776543	-3.886465492294545
O	-0.5526585999545459	-3.3546492970776542	-4.310805112294545
O	-0.5426222736545459	-2.482630187077654	2.475491397705455
O	13.659150623745454	-1.1490336070776541	-3.486355852294545
O	10.665041623745454	-2.1345707470776545	-5.6130631222945455
O	12.004334523745454	5.4656668929223455	-0.05621854229454515
O	8.491712663745453	6.804022452922346	0.4983890077054549
O	8.160361753745454	8.774688842922346	-2.716141032294545
O	9.364070043745453	5.690628492922346	-4.652553192294545
O	6.798961593745455	3.4137621329223458	-3.165539912294545
O	3.8750889737454544	5.703907572922346	-2.592785012294545
O	3.8553951737454537	8.710490832922346	-4.922209822294545
O	5.773522403745455	8.289231902922346	-8.206784382294545
O	5.938161253745455	4.452697702922346	-8.218514892294545
O	11.024230123745454	5.858901172922346	6.4431169377054545
O	8.201328843745454	7.971959882922346	7.839789427705454
O	5.607843843745455	5.871952602922346	9.643562117705455
O	2.400731043745454	14.345775542922345	-6.726446432294545
O	-7.601615336254546	10.069212662922345	-7.256692102294545
O	-7.3039728362545455	6.228703662922346	-7.331662762294545
O	-4.182415026254546	6.504384462922346	-5.299902832294546
O	-2.989625846254546	9.886249492922346	-6.354623492294546
O	-4.364076176254546	12.805386342922345	-8.362714062294545
O	-6.153835326254545	-8.509751827077654	-1.038541459294545
O	-9.063661696254547	-6.1158994770776545	-0.3588042622945451
O	-6.983706346254546	-2.905228667077654	-0.3139614712945451
O	-8.497814936254546	0.4804987862223458	-1.271032248094545
O	-9.088938666254547	0.5016105788933458	-5.035042382294545
O	-8.359023616254547	-3.247254027077654	-5.191408482294546
O	-9.881092726254547	-5.646681987077654	-7.667135392294545
O	-9.629023046254547	-9.453267547077655	-7.270377462294546
O	-12.957456276254547	-2.0149347070776544	-3.947309822294545
O	-12.057995176254547	0.07324798492234585	-6.981947022294546
O	-14.294649276254546	2.9226041629223456	-2.951464432294545
O	-14.616084976254546	5.4979505629223455	-0.20041161329454515
O	-3.265860216254546	-12.947553957077654	1.8904907477054549
O	0.036551304745454094	-11.244901257077654	1.2057801277054547
O	0.5158283537454541	-7.5708550670776535	2.2230785177054546
O	-2.770654166254546	-5.725571477077654	2.780040987705455
O	-4.254793236254546	-9.124887997077654	2.019051767705455
O	-2.126290496254546	-10.433786457077654	4.852254177705455
O	-3.644825416254546	-7.8438326470776545	7.147438477705454
O	-0.7882583952545459	-14.213295457077654	6.370150227705454
O	2.342057463745454	-13.296732757077654	4.401811827705455
O	4.095901333745455	-9.989019457077655	5.2775057577054545
O	0.9657598937454542	-8.514263307077654	6.800910597705455
O	0.4105317787454541	-5.068831637077654	8.155313077705456
O	-1.415705347254546	1.1552966409223457	10.872527417705456
O	3.175804233745454	1.651258712922346	8.124535597705455
O	4.367818603745454	4.680174592922346	6.108595027705455
O	2.835559243745454	8.119166112922347	6.160913767705455
O	1.8151343037454541	8.518860372922346	2.524695817705455
O	-0.23836188825454585	5.401825932922346	2.1858667677054546
O	-1.673425706254546	5.068634802922346	5.6199096377054545
O	8.316357353745454	-2.0837895870776544	3.289003297705455
O	6.141527633745454	-3.908599127077654	5.885433427705455
O	8.518570533745454	-7.863500057077655	1.0286714477054548
O	8.845825633745454	-9.912709057077654	-2.159192493294545
