77

O	-1.5494620817230766	-0.7061449006173078	4.744115435576923
O	-2.3595253727230765	-0.26554288661730785	3.596064015576923
O	-3.6708035457230768	0.06553928638269213	3.703280345576923
O	-3.8205234557230767	0.3361283013826921	4.936890405576922
O	-4.444070235723077	0.40484069238269216	2.592120115576923
O	-4.011464525723077	0.18733787338269214	1.286589935576923
O	-4.690611405723077	0.32059063638269214	0.05624200657692302
O	-5.010449975723077	-0.8226405006173078	-0.8176502284230769
O	-6.264644985723077	-0.6584461006173078	-1.626043724423077
O	-6.385416155723076	0.5118090553826922	-2.598895174423077
O	-5.137894545723077	1.2518116833826922	-2.241114154423077
O	-4.886279335723076	2.227816179382692	-3.2225189944230768
O	-4.909083625723077	1.498556533382692	-0.789432238423077
O	-2.9017741327230766	-0.5990551206173079	1.325250985576923
O	-2.217438651723077	-0.6369737706173079	0.06954718757692302
O	-1.4995840437230767	0.5619026143826922	-0.18719197852307695
O	-1.9423384208230767	1.6755443293826922	0.518372859576923
O	-0.8806110457230767	2.404522569382692	0.9076499355769232
O	0.0968531942769233	2.6397956693826923	-0.006946398423076983
O	0.4078566542769235	1.6860545193826924	-0.919339027423077
O	-0.2531983757230767	0.4699976753826921	-0.798086193423077
O	0.6640905042769232	-0.6328161306173078	-0.548470839423077
O	1.1369950342769233	-1.2730020906173078	0.359965231576923
O	-2.0252269347230767	-0.5973246506173079	2.352527735576923
O	-1.2257431047230767	-1.5321896006173081	2.338230325576923
O	-9.495049085723076	9.043507539382691	-1.091801065423077
O	-4.894188145723076	6.152926039382692	-10.705954004423077
O	-7.229739205723076	4.704510869382692	-6.238834814423077
O	-6.3181321357230775	1.4523349143826922	-7.871969984423077
O	-9.080370355723076	0.05254339738269209	-9.985543534423078
O	-11.960968845723077	2.466162019382692	-5.691069544423077
O	0.2098000342769235	10.090413729382693	-11.902611004423077
O	4.6807701642769235	5.700907699382692	-11.499647004423077
O	-7.606895415723077	-10.368912660617308	-4.947135524423078
O	-6.990645465723077	-6.745652680617308	-5.994977814423077
O	-8.724328245723077	-6.963363930617308	-9.391698084423078
O	2.1512872542769235	-4.049344400617308	10.690825495576922
O	0.5991139742769231	-3.643284050617308	7.199481775576922
O	1.6095405242769232	-6.952143150617308	5.557595405576922
O	0.6011832842769236	-5.963307210617308	2.019160195576923
O	-0.6073779357230766	-8.494471440617309	-0.6525643984230769
O	-4.018053185723076	-9.790980160617307	0.40349414857692306
O	-3.645705415723077	-7.976653390617308	3.750154695576923
O	-5.207084455723077	-9.257426710617308	6.943703475576923
O	-4.3211539457230765	-7.769390690617309	10.338197195576923
O	-5.419427695723076	-10.701663060617308	12.407780795576922
O	1.5220027342769233	-12.563105760617308	1.093209365576923
O	-1.4831203327230766	-12.463027760617308	3.397520285576923
O	-1.0290601557230767	-14.930240460617307	-1.200675485423077
O	5.545243694276923	-12.608148060617308	-2.871747824423077
O	7.938400424276924	-7.515824040617307	-2.749990504423077
O	3.5018890142769235	0.8240769923826922	10.104167695576923
O	1.5966037342769233	3.236970729382692	7.923888435576922
O	1.9033784142769234	2.944155039382692	4.217521025576922
O	3.0290559142769236	-0.4692570906173078	3.146751385576923
O	3.2366904142769237	-1.1363692806173078	6.732279795576923
O	5.609011554276924	1.859517839382692	6.795259895576923
O	7.715404714276923	0.28388487338269214	4.075120625576923
O	7.227016984276924	4.524032309382692	9.664982765576923
O	4.313596744276923	6.720353289382692	8.588008705576923
O	4.044630954276924	7.656846989382692	4.872078805576923
O	6.137901254276924	4.682622339382692	3.765101755576923
O	6.925438514276923	3.571293469382692	0.28438874857692303
O	11.296992914276924	2.213427269382692	-3.554317764423077
O	8.784635414276924	0.7235460044826921	-5.959787204423077
O	4.719311014276924	4.214840819382692	-6.6036005244230775
O	1.8585844242769234	4.055038229382692	-9.133702824423077
O	-1.4447558347230767	-0.1364343736173078	-11.432234704423077
O	-0.7224369957230767	-1.215968670617308	-7.8444289044230775
O	3.040865074276923	-1.7438977006173078	-8.123486684423076
O	-0.7402207257230766	12.733772239382692	-3.482956184423077
O	-0.5185736157230767	8.934903869382692	-2.947206454423077
O	2.8862338342769234	7.978931009382692	-1.431642214423077
O	-2.0897727231230765	13.903762039382691	2.6995466355769233
O	-1.7011941687230767	10.120198269382692	3.0310904355769233
O	-4.4844125257230765	9.981632369382693	5.630245915576922
O	-2.9519163617230766	12.631754539382692	7.978028595576923
