23

O	-13.032953147355553	-8.08230000857245	57.63486058096479
O	-14.007730315045004	-3.958921168336544	60.86356025623791
O	-16.571672152225858	-2.2417376481411195	55.720495501328365
O	-17.068387186719022	-3.3416505140084847	56.505712038082386
O	-17.18707768713611	-3.13431766826461	57.89836522790404
O	-17.228470293497033	-1.8190079309772615	58.1881717050542
O	-17.83111012968458	-1.0124847333682663	57.19763961827647
O	-17.274044743408446	-1.0822281007583054	55.88645052810725
O	-16.494640708511383	-3.637824736977124	59.01639564549762
O	-15.31561997574644	-2.837428607509478	58.78599905696838
O	-15.916925592580753	-1.6201588625294416	58.63629357683833
O	-14.145228150756084	-3.6421564761877994	58.337023945762674
O	-13.832128473317377	-4.653040294314165	59.30274974966932
O	-13.030417707102286	-5.728357129828179	59.09026154803556
O	-13.64843696711772	-6.536776711591047	58.13478299834648
O	-14.157927280558361	-5.847928783919647	57.09108365077024
O	-14.000378842192067	-4.495918453239198	57.22446036184436
O	-16.484463335477066	-5.110829867030356	59.32220639658994
O	-16.811237732578316	-5.484663899857043	60.67164197503475
O	-15.440884070417905	-0.10115281500437945	58.33811688419452
O	-15.786252425610245	0.9208357228389872	56.85997610986106
O	-14.769258588257236	0.8628666212139438	59.07847539934701
O	-16.68012646168125	0.638607989608829	59.12441877576114
