76

O	-2.595434259822222	1.845980059288889	7.183827979266667
O	-1.6947562558222218	2.1863437892888893	8.195336969266668
O	-0.7645526158222218	1.1250246692888892	8.411002929266667
O	-0.34134658282222174	0.4306596992888891	7.243944609266667
O	-1.0341334836222218	0.4903747962888891	5.991605419266667
O	-2.2884621498222217	0.9973193992888891	6.179470899266667
O	-3.398176449822222	0.31347279728888905	6.0134806692666665
O	-4.195437529822222	0.4798361192888891	7.142005229266667
O	-3.908475739822222	1.7414773792888891	7.551425539266667
O	1.2077795801777782	-2.498725600711111	1.473276141266667
O	1.9156705201777782	-2.047774270711111	0.3937050882666671
O	2.581475590177778	-3.263034710711111	-0.20711185073333294
O	2.832148920177778	-3.289463260711111	-1.547378870733333
O	1.2254123601777782	-3.921918210711111	1.5440845022666672
O	2.512453290177778	-1.002370846711111	-0.2580442207333329
O	3.408328970177778	-3.6257858907111107	0.5747124042666671
O	1.012028240177778	-4.583956990711111	0.5649557732666671
O	1.8299276601777783	-4.7685605407111105	2.556429519266667
O	2.346059610177778	-6.123339520711111	2.221723629266667
O	0.9171111201777783	-4.969265180711111	3.692010909266667
O	2.406634260177778	-4.480811380711111	-2.1781464307333325
O	1.0742152601777781	-3.867662880711111	-2.601674970733333
O	1.986296970177778	-2.906317800711111	-3.398056160733333
O	2.280223140177778	-2.1359084707111107	-2.234932710733333
O	-0.5707493008222218	-0.03197667161111094	4.750159499266667
O	0.2492214701777783	-1.251873990711111	4.595972089266668
O	-0.4331117888222218	-1.972412040711111	3.4261218992666675
O	0.27452624017777827	-1.6219166907111109	2.180843849266667
O	0.3550193501777782	-0.18778077681111094	2.339769209266667
O	-0.23847849382222175	0.580806120288889	3.4562146292666673
O	0.5399927101777783	-3.014251220711111	-1.5377218507333328
O	13.11630587017778	1.4167515892888891	3.520777209266667
O	10.54233007017778	-0.7958531317111108	5.186962119266667
O	10.356111670177778	1.6524335392888891	8.185881909266667
O	9.507486070177778	7.271126169288889	0.3323204502666671
O	5.870906710177778	7.352168309288889	-0.6865295207333328
O	4.348503020177778	8.671397779288888	2.5496935192666674
O	6.473080180177778	6.143409819288889	4.468203399266667
O	5.335346880177778	3.3753337192888893	2.427305349266667
O	1.7523962301777782	4.465397749288889	1.505936754266667
O	0.1634081701777782	6.686178549288889	4.052983629266667
O	1.629068940177778	6.531496229288889	7.540525559266667
O	3.504224060177778	3.375456779288889	7.391758009266667
O	6.217838870177778	4.9384232192888895	9.379432179266667
O	-3.574931669822222	10.910808099288888	6.138041229266667
O	-3.9828393398222217	10.711101399288887	9.948278059266666
O	-11.21829652982222	3.749776809288889	3.9357712692666675
O	-9.77555269982222	0.27113170828888905	3.5295421592666667
O	-6.130858629822222	1.470193369288889	2.9086924792666675
O	-6.597884569822222	4.947359869288889	4.355421509266667
O	-9.341991179822221	6.9550110092888895	6.219628969266667
O	-2.0876906298222218	-12.604010300711112	-2.5209290907333326
O	-4.771443779822222	-7.514589600711111	-3.219197560733333
O	-7.605764999822222	-4.986009980711111	-2.434230990733333
O	-8.630768229822221	-5.570025990711111	1.1671832742666672
O	-6.699886199822222	-8.818238490711112	1.3124098142666671
O	-7.663214529822222	-11.841628400711112	3.3469660092666675
O	-11.59379372982222	-7.245463460711111	2.4097673692666675
O	-17.514667629822224	-2.838586910711111	0.0339458652666671
O	5.050966820177778	-12.711617900711111	-3.5694774007333328
O	4.310191210177778	-9.035187840711112	-4.252586360733333
O	0.7450887801777782	-8.370712370711113	-5.202325690733333
O	0.4395677801777783	-12.187606100711111	-5.188042410733333
O	3.379489040177778	-12.308986800711113	-7.5788107107333325
O	0.5582537201777783	-0.5301408477111109	-12.790730680733333
O	4.103654380177778	1.392013649288889	-9.253498380733333
O	3.751243660177778	4.511967649288889	-7.017214830733333
O	1.0372426001777781	7.076090909288889	-7.090140820733333
O	-0.5823138318222219	6.682142399288889	-3.653931230733333
O	-1.317398035822222	3.0329159492888893	-3.803060700733333
O	-1.9894877298222218	2.627489159288889	-7.589605620733334
O	-6.2452740098222215	4.785013279288889	-4.975023410733333
O	-7.571653989822222	1.7963908792888892	-6.986727720733333
O	9.468908170177778	-0.7722091297111109	-3.8018697007333335
O	11.382785370177778	-6.317158200711111	-1.706382470733333
O	11.85131367017778	-8.350954130711111	1.4728872102666672
