25

O	-15.838394398050557	-1.8315412678085483	54.71551590408604
O	-16.003608418140818	-2.3663849258606082	56.077500236645605
O	-16.66952000931315	-1.7012078900285958	57.05456853386303
O	-16.65218362937661	-0.48930317999862805	56.6693222874697
O	-16.885228221397284	-2.2567289441719596	58.31655514248997
O	-16.665608777370707	-3.604961638325497	58.58655538269233
O	-16.958809833464418	-4.375164542184529	59.73266769719214
O	-17.953170424815333	-5.463340241678865	59.74174752414682
O	-18.644398490631787	-5.666054019611753	61.05878049781877
O	-17.818596302292	-5.997622578971017	62.29919808298616
O	-16.4484809339777	-5.82292368273456	61.72982519260686
O	-15.507595773840272	-6.36403111225623	62.62480469809322
O	-16.202280051806003	-4.561899371765318	60.97496053181221
O	-16.477115471835553	-4.256018474047501	57.406760207018195
O	-15.957703251248946	-5.576244076194325	57.59049971672228
O	-14.580187103727242	-5.567755057701093	57.938223779779776
O	-14.119922553828262	-4.3772556814301735	58.49041833588955
O	-12.887175763101293	-4.117116781451574	58.01832296628758
O	-11.989689393675363	-5.137465511091677	57.992190365094416
O	-12.41160012516575	-6.397494054066722	57.721773930071954
O	-13.754250148039366	-6.547809462121016	57.39744933270148
O	-13.940183688729945	-7.077652485398774	56.05408784220141
O	-14.136136741645279	-6.712089912240087	54.91976017387611
O	-15.938107007523396	-3.673232999547049	56.31430129609762
O	-16.066760638122133	-4.322980814551306	55.27765897333936
