35

O	-17.205308240690638	-3.640573097181203	57.46993445157893
O	-16.48065273672139	-4.478341036097317	58.270548399572164
O	-18.403930754830704	-3.566903927072296	58.12494254158767
O	-16.93551377311956	-2.656426934778166	56.53345154594378
O	-17.236028099725633	-5.008596419898842	59.25018677544102
O	-15.458657261604978	-5.2861520544686	57.705598427873014
O	-18.2236147168432	-4.050589624931247	59.38940756565951
O	-19.505862457762163	-3.0588075308816887	57.61689836064385
O	-17.999770657818438	-2.3319198945393844	55.902549806567436
O	-15.879154032273032	-2.8451557073342544	55.85576496513497
O	-17.142921076394188	-6.2696235683597905	59.95311437036798
O	-14.353961074794068	-5.435298900799762	58.68503395376816
O	-19.191814984390263	-2.3683599619527578	56.55688168463158
O	-20.812455975911487	-2.820748651675034	58.14824391249198
O	-18.184954516035923	-1.4571600990341431	54.80053626078477
O	-16.04487411697307	-6.862185475442878	60.63251089988481
O	-18.37805830837761	-6.522731288837056	60.783908596507516
O	-13.260594748274515	-5.554207915750508	59.21826324809794
O	-20.160026684520364	-2.279850096389943	55.65829183866914
O	-19.05680770508828	-0.3298033646445586	55.51357180145748
O	-16.18263062611413	-6.61027168080194	62.08640925014369
O	-18.197951328660842	-5.162325387198171	61.55336874017937
O	-11.810814447024313	-5.274776070613313	59.229616880878545
O	-17.83257152801893	0.2217855604857233	55.72461818672578
O	-19.588655808536327	-0.33417116020648985	56.846706761078764
O	-17.24549994923834	-5.703134465507859	62.575677458262454
O	-14.852904325676013	-6.3225579366461115	62.526140717038956
O	-18.06289564669295	1.3358284634591273	56.5275638824952
O	-18.822683871879796	-0.12983555814761072	57.97437119467353
O	-17.963419082520044	0.9233623829390343	57.8199593856903
O	-17.37803906852971	2.5463242918938107	56.29638957530938
O	-18.55586697198894	-0.7731476059798572	59.278036634917754
O	-16.630765756737254	0.6618261783017934	58.251179136392864
O	-16.214961070278953	2.6579935224972058	57.00816378266777
O	-15.7286630746771	1.4744289833308013	57.55789755295232
