25

O	-18.743629199618933	-5.397109158065005	62.28608163591623
O	-18.906852621928238	-6.629910809720802	61.470032474198774
O	-17.720780530595214	-4.14108136470525	60.21398241087419
O	-17.286203816656226	-5.292331355048537	62.12706192232017
O	-15.631998389341879	-5.016090092527464	60.361736633495305
O	-21.0545552689678	-6.451215950099513	60.89033388465937
O	-16.720160293023	-6.7139858254656435	61.915255536822606
O	-15.348452903387889	-6.830361495763112	61.735243363448745
O	-16.80155503975947	-4.554959400658253	60.96687838790474
O	-21.43458452677826	-6.676057517951739	63.83323888004523
O	-15.574759543491078	-5.703230126883495	59.008611197860716
O	-22.670904403757667	-8.961977157111187	63.88154657618448
O	-16.565607467368842	-4.735360588135335	58.35760718664126
O	-14.890899904129556	-3.8644611574856764	59.668189418768286
O	-16.09512149907294	-3.411641473107495	58.82020420421302
O	-17.59652754912418	-6.678801671785957	60.700264365579116
O	-20.254890949183235	-7.118631492577311	61.64111747758316
O	-25.228157665238303	-6.468605979254328	63.3651143841341
O	-24.783150828354422	-7.784905347641909	63.511218359310384
O	-23.478284125136664	-7.935366010209203	63.97405371399862
O	-22.707588377085322	-6.845159299974511	64.35908271988819
O	-23.529903636251532	-5.799307008301371	64.75942546845303
O	-24.619918313917566	-5.411819059856981	63.98686335032659
O	-20.896807316210246	-7.5346330560104136	62.903324265392115
O	-21.543432156988963	-8.763220056492438	63.124552511990444
