73

O	1.9976757250980768	-3.0734532705769233	1.0463068071346155
O	2.217653065098077	-3.2917634305769234	6.118196494134616
O	1.4575168050980767	-3.754702660576923	4.996736044134615
O	0.8343179150980768	-4.923840970576923	4.988414694134615
O	-0.30717802890192314	-4.610935080576923	4.382762834134615
O	-0.3017714089019231	-3.4634157805769235	3.715782854134616
O	-1.0791914299019232	-2.3537091405769233	3.3382936341346157
O	-0.5755521962019231	-1.4321051805769232	2.538949744134616
O	-1.201487787901923	-0.2587362165769232	1.8938651241346154
O	-1.442659769901923	0.8092031144230769	2.3976068741346155
O	0.7877312050980769	-1.0945866405769231	2.624179544134616
O	1.3059642050980769	-0.6145363265769233	1.3752007031346154
O	0.7018411550980768	0.5082146884230768	0.8234985131346155
O	0.16453695609807684	0.6224194894230768	-0.45337317786538445
O	0.11621446309807693	-0.5704280655769232	-1.1777629258653843
O	1.298626655098077	-1.2320205405769231	-0.8873197558653844
O	1.3386575550980768	-1.625672750576923	0.41176631793461554
O	1.500251085098077	-1.917686130576923	3.4162310141346155
O	2.779730585098077	-1.2402983905769231	3.8770189041346157
O	2.651806575098077	0.24194494182307685	3.8631227041346157
O	0.9344196450980768	-3.0218217405769234	4.051746274134615
O	12.096410325098077	-2.2855528905769233	3.1360192641346156
O	9.435897125098077	6.642611659423077	-2.8150844158653845
O	8.602099555098077	3.7266449394230765	1.4774081441346154
O	5.988150715098078	6.431992369423076	1.6695829941346156
O	7.086468535098076	9.367513199423076	3.704810524134616
O	9.891983425098077	8.769859329423078	6.2189063541346155
O	9.544079025098076	4.991809969423077	6.487482074134616
O	9.694645825098076	5.041215759423077	-9.160078395865384
O	6.881997355098077	7.5148320394230765	-9.833410945865385
O	3.5839864550980765	5.718618229423076	-10.397617745865384
O	7.144600195098077	15.212921319423076	5.371662934134616
O	-2.964037764901923	9.027634759423076	9.637463584134615
O	-0.3411653459019231	8.335386909423077	6.976027104134616
O	1.378163785098077	11.702406619423076	7.108141004134616
O	-6.088976454901923	-6.142464420576923	4.698599334134616
O	-8.600085144901923	-3.3316660405769234	4.871253994134616
O	-6.297832144901923	-0.4797675795769231	3.8158152541346158
O	-6.826304564901923	3.174666729423077	4.918805664134616
O	-6.045825714901923	3.4540343194230765	8.653930874134616
O	-5.797899884901923	-0.33638125157692317	8.887433164134615
O	-6.589552924901923	-2.352145430576923	11.924198154134615
O	-6.950047324901924	-6.1443292605769235	11.858314854134616
O	-11.624342874901922	3.031900659423077	5.914099474134615
O	-10.362356454901922	1.510133559423077	9.139878444134615
O	-11.317046974901922	6.553397169423077	8.117676404134615
O	-10.527775394901923	3.0148279094230768	-3.0305259858653844
O	-4.9082084549019225	-11.089859980576923	1.3790523931346157
O	-1.3275553599019232	-10.013040680576923	0.8705296591346156
O	-0.5848639370019231	-6.416381860576923	-0.5020837018653844
O	-3.376406474901923	-4.063090560576923	0.02063330613461556
O	-5.2750396549019225	-7.1473633305769235	1.2722186591346154
O	-4.330644764901923	-8.870272670576924	-1.9329122958653842
O	-6.038103324901924	-6.078729560576924	-3.7512530558653845
O	-4.105380584901923	-12.864086680576923	-3.456705435865384
O	-0.4122044519019231	-12.437879880576924	-2.6538044958653844
O	1.4240775550980769	-9.508911770576923	-4.319301665865384
O	-1.780816364901923	-7.562182760576923	-4.893591965865384
O	-2.268446824901923	-4.147066630576924	-6.309032165865385
O	-4.967142344901923	-1.0534250905769231	-10.626876045865384
O	-4.0702806249019226	2.213606449423077	-8.997819995865385
O	-2.0502282649019232	3.7347185694230767	-11.817770845865384
O	1.2261596950980769	2.046519759423077	-7.763284725865384
O	3.4295302050980765	4.900817089423077	-6.502675925865384
O	2.788682775098077	9.353778599423077	-2.7939898858653844
O	0.5319957250980769	6.733594089423077	-1.4866600658653844
O	-1.9869183049019232	6.276840249423077	-4.229043265865385
O	10.271062325098077	-3.4024804605769234	-6.417711045865384
O	7.151405435098077	-2.2886634105769232	-4.591168545865385
O	3.936506795098077	-3.8175328605769234	-6.050559805865384
O	10.396359725098078	-9.133160700576923	-3.4663628558653845
O	7.221093435098076	-7.924788120576924	-1.8274707758653843
O	8.110132715098077	-9.591058370576924	1.4968524441346154
