74

O	0.5608124228085107	-0.2372725297127657	-2.727930934719149
O	1.8775759028085108	2.702343064287234	1.7851161352808513
O	-0.3201313431914893	-1.9807669057127657	-0.5444828097191489
O	-2.311787497191489	-3.463559055712766	-2.946821894719149
O	-2.8333335971914893	-1.2267411357127656	-2.3532643347191486
O	0.8791774028085109	-2.683318485712766	-0.45826453671914885
O	-3.5905056671914894	-3.617645285712766	-4.912262704719149
O	-2.3131924071914893	-1.7674920457127656	-4.786931784719149
O	0.8076089528085109	-3.943988585712766	-0.9523260864191488
O	-1.3712978231914892	-2.5636394157127658	-1.1024112397191488
O	-0.13959591719148923	-4.308842585712766	-1.867898568719149
O	-2.591507807191489	-4.464927515712765	-1.9639640647191487
O	-1.3016671811914893	-3.9366032957127657	-1.3295227967191487
O	-2.2740605671914893	-3.0572498457127657	-4.811429324719149
O	-3.5848503371914893	-5.036634065712765	-4.532851394719149
O	-2.371928847191489	-2.295811215712766	-2.162176214719149
O	-1.0759466171914893	-3.3978396557127657	-3.843095884719149
O	1.3535707828085108	-4.829003875712766	0.08846525828085117
O	-0.27100455919148925	-0.5757658717127657	-0.3362859467191488
O	1.7526422828085106	-2.1722810857127657	0.6029932652808512
O	2.587023752808511	-3.176125345712766	1.2109633252808512
O	-0.0377173911914892	-0.43516944371276567	1.0299590252808513
O	0.8090312128085109	0.44104697128723425	1.6151983852808511
O	1.5072960328085108	1.2852911142872343	0.8574012352808511
O	1.185628982808511	1.2574200742872343	-0.4603298887191488
O	0.6259926428085107	0.16898614028723433	-1.0603474107191488
O	-4.743870467191489	-2.9528408457127657	-4.283758934719149
O	7.274488372808511	-6.5508569457127654	-7.818714144719149
O	11.17618112280851	-6.177940685712765	2.472857845280851
O	7.261822452808511	-7.192402235712765	-0.7366472037191488
O	5.758186472808511	-7.5461181157127655	2.7280236352808513
O	5.7895920028085115	-11.099330725712765	3.9737226152808516
O	6.14416904280851	-13.896460725712766	1.395445705280851
O	4.92532464280851	-11.880425225712765	-1.636581334719149
O	15.218851722808509	-1.1122058017127656	2.9848504052808513
O	-5.492224717191489	-10.235038525712765	6.865066605280851
O	-1.9859803271914893	-9.287102145712765	5.825410055280851
O	-0.13256159219148922	-12.032451125712765	7.73348428528085
O	-7.476896277191489	3.1186170542872342	-1.9993213347191487
O	-8.805349037191489	2.741894344287234	1.602343835280851
O	-5.82770154719149	0.6689397782872343	2.8341826252808513
O	-6.11111294719149	-1.9237562757127655	5.548892115280851
O	-8.098252477191489	-4.921781985712766	4.3047506152808515
O	-9.02325164719149	-2.968838775712766	1.220076235280851
O	-12.100466177191489	-3.515984625712766	-0.8409272169191488
O	-12.97737807719149	-1.2100786257127656	-3.729622084719149
O	-10.21357579719149	-0.2420389882127657	7.856925365280851
O	-11.92138527719149	-2.108755285712766	5.048403135280851
O	-11.57428417719149	-5.865540955712765	4.836316495280851
O	-10.78174249719149	-3.865627505712766	9.78606683528085
O	-3.6292580671914894	5.262384364287235	9.90869113528085
O	-5.482744917191489	7.5626955542872345	-5.594765804719149
O	-2.358221137191489	5.533028774287235	-6.260958724719149
O	-0.18209990719148927	4.3408432342872345	-3.338504174719149
O	-2.132728257191489	4.1179443842872345	-0.1422099817191489
O	-4.924696517191489	5.792310934287235	-2.115721314719149
O	-2.4567603571914893	8.484260414287235	-3.068247384719149
O	-1.8641576741914894	9.087643814287235	0.6148248152808511
O	-2.068713577191489	11.562366874287235	-6.001628274719149
O	0.09688584280851087	8.936907694287235	-7.726676964719148
O	3.119884762808511	7.5683574142872345	-5.795258624719149
O	1.6242284328085108	8.434804024287235	-2.439017084719149
O	2.961411942808511	7.806483534287235	0.9485310652808512
O	4.74188615280851	6.726972694287235	7.740305205280851
O	7.644608932808511	3.542100504287234	4.490342975280851
O	8.80003201280851	0.015897708287234302	5.126260675280851
O	3.828129872808511	-2.954434955712766	6.486991175280851
O	12.009339622808511	1.4241445942872344	-4.872782194719148
O	8.73468939280851	1.0062972342872345	-2.911012744719149
O	7.19793060280851	4.387566664287235	-2.070840164719149
O	8.92998252280851	2.5293228542872344	-10.369474894719149
O	5.792303682808511	2.162199934287234	-8.161549974719149
O	3.973027792808511	0.5168889232872342	-11.04515466471915
O	4.61858558280851	3.256296934287234	-13.657149164719149
