24

O	-16.353433778509537	-5.356157743143365	60.20584135370034
O	-14.885196273094321	-5.175806888024152	60.607930797182014
O	-16.616026215597486	-3.913510603352658	59.60000636511743
O	-16.67516490623718	-5.439957599359217	58.75664831205163
O	-15.575062694625291	-6.353125165969302	59.18803722277556
O	-14.09063082637589	-6.16032703837589	61.21653914897779
O	-14.073882664437022	-4.169181597088617	60.28690194589127
O	-18.13864318849865	-3.6460799147632796	59.497647125511726
O	-18.13926281536151	-5.736393470844196	58.72004919914686
O	-15.64495724208697	-7.366401823578536	60.29059213021133
O	-12.981803592011303	-6.606189994487166	60.56669844711986
O	-12.941360911255526	-4.6453062021288725	59.64501539280278
O	-18.769399750343695	-4.909888792814012	59.86143651922298
O	-12.79770623081675	-6.013640581515182	59.35536420355698
O	-18.21024349967245	-5.829580782205556	60.66726774983711
O	-19.51980643623078	-6.499239143455788	60.96589350877996
O	-19.767335353073864	-6.591360368328596	62.475203468614225
O	-19.522689766565584	-5.657124397465885	63.38264175008479
O	-18.318102959119013	-4.750255331240593	63.43611090112376
O	-18.18979955277494	-3.665972564223585	62.63380161800868
O	-17.046096107932872	-5.348137896045502	63.15652975202057
O	-17.08063115188731	-3.100891714102996	62.00968195547304
O	-15.911421455996315	-4.6446406224194	62.854712641574174
O	-16.026994025236732	-3.3262594607510243	62.73464616566859
