78

O	2.224288121146296	-2.4287997520000006	3.177162839287037
O	2.906815951146296	-1.2613950420000006	2.989572659287037
O	2.2959038411462966	-0.005990523000000553	2.7138355592870367
O	1.037161641146296	0.13922365259999944	3.0578579992870365
O	0.2620322211462962	-0.9506837620000006	2.9142195392870365
O	0.8782676011462962	-2.2187635720000007	3.0455752192870365
O	0.6501980011462962	1.2406694079999994	4.0232338592870365
O	-0.7524287418537038	1.1923905579999994	4.504159789287036
O	-1.0382942498177037	2.4394567579999995	5.249970299287036
O	-2.0433887488537037	2.3260472779999994	6.360551609287037
O	-1.6611221318537037	3.3046188579999995	4.235739069287036
O	-0.8884599068537038	3.0755888979999995	3.0649809292870365
O	-1.2919328158537038	1.9081059579999995	2.2475661192870366
O	-2.209888268853704	1.0949500529999994	2.6079308692870367
O	-0.6154055968537038	1.4181266079999995	1.0374603232870365
O	-1.1846738248537036	0.5367945049999995	0.15877720028703657
O	-0.5023327468537038	-0.28600112400000055	-0.7009708607129636
O	0.7704656811462962	-0.47907562800000053	-0.2833105237129635
O	1.3730859411462963	0.7383672809999995	-0.1687259857129635
O	0.6189887911462963	1.7269789479999993	0.49697775618703655
O	2.979148531146296	-3.6438350820000007	2.987856359287037
O	4.389417171146296	-3.6470755020000007	3.2999812992870368
O	2.819411181146296	-4.163051322	1.8388488692870366
O	1.467177011146296	-1.5445994420000007	0.08202197428703656
O	5.830504261146296	8.853931838	8.507189979287036
O	-3.8192281288537036	11.829205907999999	4.075489949287037
O	-1.0125724727537038	8.184116717999999	6.656581009287037
O	-4.379523328853704	6.600070118	6.128939619287037
O	-6.720057538853704	7.079191638	9.008791259287037
O	-1.6202346998537038	6.632258588	11.619264529287037
O	-2.6402361088537036	15.047295907999999	-1.5099604407129634
O	-5.890103958853704	13.642812908	-2.912108100712963
O	-5.218956478853704	10.837375607999999	-5.372789970712963
O	-8.873558598853704	-4.375091242	9.061533769287037
O	-7.609685418853704	-0.9645477720000006	7.911347509287037
O	-10.373143568853704	1.0810778609999994	9.590292909287037
O	6.695121261146296	-10.124858892	-1.2476726707129635
O	4.214307871146296	-7.654345772	0.050739607287036526
O	0.7905021611462963	-9.202438012000002	-0.46071193071296335
O	-1.2639575908537037	-6.047823012	0.40842764428703654
O	-4.761566678853704	-6.198133772	1.8946278692870364
O	-4.557725668853704	-7.536423292	5.466627779287037
O	-0.8598362108537038	-8.256559682	4.930416259287036
O	0.9977441311462962	-11.026106092000001	6.711097409287037
O	4.492260431146296	-12.159420492	5.675739129287036
O	4.368237781146296	-15.623981092000001	7.199478839287036
O	-6.055576128853704	-10.720598992000001	0.35637870628703655
O	-4.0010263688537036	-11.757764692	3.3585064492870367
O	-9.108114218853704	-10.839786892000001	3.155303319287037
O	-11.944602728853704	-9.597164932000002	0.9882269112870365
O	-9.434248328853704	-8.798100922000001	-3.676468680712963
O	-6.387847918853704	-5.158965502	-6.634929870712964
O	9.074536571146297	-5.981517982	-3.070273680712963
O	8.904683251146295	-2.5464959720000007	-1.5452592107129632
O	5.578879031146296	-0.5291666910000006	-1.8005887007129635
O	2.650150631146296	-2.844231002000001	-2.812268410712963
O	5.202784051146296	-5.472056382	-2.7080430607129635
O	6.928485601146296	-3.3481684220000005	-5.313083670712963
O	3.7145142211462963	-3.2063355920000007	-7.319583850712963
O	10.732652371146296	-3.1935157420000007	-7.198545210712964
O	11.361636271146295	-0.5035470130000006	-4.582445370712963
O	8.978853371146297	2.5022313879999993	-4.513877560712963
O	6.218814061146296	0.6159816529999995	-6.283905950712963
O	2.698491761146296	1.7310306579999994	-6.900862530712963
O	-1.3515744418537037	2.4596564179999993	-11.184198070712963
O	-4.015193528853704	3.0207808979999995	-8.576653760712963
O	-5.095870418853704	6.471859928	-9.662461370712963
O	-2.2184220288537038	6.714223778	-5.096118590712964
O	-4.200411318853703	8.452375437999999	-2.3143172707129636
O	-8.451533498853703	6.950506578	1.4011102452870365
O	-6.371978188853704	3.8228487179999995	0.8898016882870365
O	-6.957894008853704	3.1121926079999995	-2.7492733007129635
O	5.680954521146296	12.112558007999999	-0.6935474707129635
O	3.801506601146296	8.750211157999999	-0.36890227871296344
O	4.230289151146296	6.6814064879999995	-3.5683802307129637
O	11.368838371146296	9.440156027999999	0.6434819897870365
O	9.294468071146296	6.216240468	0.7596699382870366
O	11.385463771146297	4.8255485479999995	3.6281668992870366
