82

O	-0.9371012216326533	-3.589977491571429	-1.7987909079591842
O	-0.6654499616326534	-2.3161841315714287	-2.261931404959184
O	0.17090669436734668	-2.1864995415714286	-3.3496084929591845
O	0.6966431613673465	-3.3261026415714285	-3.974577562959184
O	1.8317756413673467	-2.9199453115714284	-4.517582382959184
O	2.0620793713673464	-1.6487512815714287	-4.1895583429591845
O	1.0233403113673465	-1.1005207155714287	-3.560702012959184
O	0.2639894593673467	-4.5738647615714285	-3.636529762959184
O	-0.5703702006326533	-4.676809811571429	-2.5486441519591843
O	-0.42353439303265333	-5.978808261571429	-2.176013988959184
O	-0.33866137463265333	-6.632337051571429	-3.361307022959184
O	0.45765022836734665	-5.802095581571429	-4.145773572959184
O	-0.7362195006326533	-1.3531116715714286	-1.3805956799591843
O	1.0842786413673466	0.11694669942857133	-2.860515212959184
O	2.3556292213673466	0.5696278554285713	-2.248402411959184
O	3.2252588413673466	0.9904929484285714	-1.5212613434591842
O	3.738958081367347	1.4245175084285713	-0.20146312295918434
O	3.0552996613673464	-0.9054374685714287	-4.826554932959184
O	4.2925976513673465	-0.40166089357142865	-4.386364642959184
O	4.724242561367347	0.8642945484285713	-5.015785332959184
O	3.811608241367346	1.4297012484285714	-6.0671596929591844
O	2.4004048613673468	1.1067650484285714	-5.501089612959184
O	2.5389259413673466	-0.33936646383142866	-6.088179152959184
O	5.031621991367347	1.9238748884285715	-4.1072279429591845
O	-0.2694951256326533	-3.423798131571429	-0.47130894295918435
O	1.0450182113673465	-2.471653471571429	-0.8393824819591842
O	2.1989694713673464	-3.0895768715714285	-1.4282000669591843
O	2.4280572913673466	-4.168331251571429	-0.6035258939591842
O	1.8235789913673468	-4.128742821571429	0.6540835770408158
O	1.7842853413673465	-2.7790261215714285	1.024866387040816
O	1.7979011513673466	-1.7385744915714287	-0.03310411295918425
O	1.0300138413673465	-5.271149991571429	1.1594680770408157
O	1.2046521613673467	-6.417132101571429	1.3365668870408156
O	12.343995611367347	-3.993049921571429	-2.087902742959184
O	11.696943511367346	5.998033258428571	-6.618586782959184
O	9.722253111367346	1.1720366784285714	-6.310471692959184
O	7.386701701367347	2.9606671584285715	-8.607890022959184
O	8.166258361367346	2.474766968428571	-12.239004502959183
O	9.556605311367347	-2.5943906315714287	-9.998967902959183
O	13.230483111367347	10.39661262842857	-2.0214546199591843
O	-3.0848213286326533	-0.23140223257142867	-14.346714702959185
O	0.018114969367346634	1.0849583784285712	-12.606847302959183
O	-8.391181868632653	-4.262093491571429	3.9702177870408164
O	-6.044403288632654	-2.9055806315714285	1.288526487040816
O	-8.391018318632653	-1.0065314425714287	-1.043444373959184
O	-5.670393358632653	0.7474673884285714	-3.085527142959184
O	-6.187224898632653	1.7920701484285713	-6.780312672959184
O	-6.327409688632653	-1.3772582615714286	-8.912610712959184
O	-6.384933598632653	-3.545195721571429	-5.758567302959184
O	-8.032130878632653	-6.9051409015714285	-5.499545212959184
O	-8.562683948632653	-8.650306891571429	-2.154681669959184
O	-11.009179788632654	-11.149413671571429	-3.3364185429591844
O	-11.116367088632654	1.9906691484285715	-6.889742182959184
O	-10.775355988632654	-1.7679487115714287	-7.239265332959184
O	-9.117117038632653	-3.1936926615714283	-10.314393472959184
O	-11.043492488632653	1.8268182584285715	-11.049202892959183
O	-7.0397143386326535	-3.8567881115714284	9.929474097040815
O	-4.778096308632653	-2.7752277415714284	7.258137967040817
O	-1.0957053456326533	-2.6608250915714287	6.374040707040816
O	0.23755418336734663	0.10580168742857132	4.0169308570408155
O	-2.3803105386326533	1.4340075584285714	1.8290241370408158
O	-4.812868938632653	-0.6381198045714287	3.9478912770408163
O	-3.2626988886326536	0.9423307084285713	7.011357517040816
O	-4.219511558632653	4.294894548428571	5.631126447040816
O	-7.780989638632653	3.1672503384285715	4.805121127040816
O	-4.992558698632654	-2.068070291571429	13.526358997040816
O	-2.9698828086326534	0.1425083264285713	11.203449197040817
O	0.44518376536734666	-1.2539669965714286	10.216936897040815
O	2.8835879213673468	1.0927780384285712	8.430094997040817
O	0.09968707836734664	3.343435018428571	7.176774957040816
O	0.28323292036734665	6.289873848428571	4.978608227040816
O	4.518205871367346	9.59586477842857	0.23548275704081578
O	6.558480511367347	9.484943358428572	-2.9739207629591844
O	2.7643486513673468	6.640168458428571	-6.696004672959184
O	12.391449611367346	3.6927791384285715	3.764572747040816
O	9.021560711367346	3.4012512584285712	1.9841745570408158
O	6.171420861367347	4.594015878428571	4.201115727040816
O	11.389962411367346	-1.6040847315714286	7.252078387040816
O	8.034733071367347	-1.5862141415714286	5.521101937040816
O	8.184970201367346	-5.364060111571429	5.390415737040816
O	8.624685661367346	-5.994508871571429	9.125050597040817
O	9.739631511367346	-9.28213189157143	7.503413097040816
