31

O	-17.816975708035553	-3.913980500169788	60.17894726622949
O	-17.2454117632984	-5.117018633524895	60.73567224768047
O	-15.945066783876003	-5.544916699710813	60.22746985221309
O	-15.42007165102183	-6.724087391433965	60.73649697710216
O	-16.00761951924614	-5.5071602668388095	58.95547769059584
O	-17.065113866232135	-5.390725748847203	62.17513497124885
O	-16.88381884008899	-3.1959771515423343	61.322205436550355
O	-14.547370810110463	-7.499469219712856	59.87731516243751
O	-13.39539464733323	-6.514962783620386	60.015284048512925
O	-13.223688082087175	-6.627772491483332	61.38370437464762
O	-14.67528071318814	-6.815432000389651	61.93011513353251
O	-15.631181979405024	-3.7183547580705856	61.61614560462714
O	-14.268149846016541	-3.8322610440427813	61.77596452886105
O	-14.53377049459497	-3.357855983872929	60.5097488260755
O	-17.516543604802326	-2.7152853490202107	59.55574795806653
O	-16.459297141148987	-2.903093008177234	58.70119024387419
O	-16.975183291453753	-2.4368399715554454	57.56764380296036
O	-17.63006352919333	-1.397612893336924	58.06759792861378
O	-17.833095848080404	-1.4905873708611486	59.37529888443826
O	-17.373959777513225	-3.7327837974769706	56.92275300606172
O	-18.713434237564798	-4.3224107441561195	56.886321124831106
O	-19.467904849131806	-4.1365707306104635	55.76662902690082
O	-18.80749922808602	-3.4102773193303624	54.78715363479062
O	-17.457699055138193	-3.8338147783619694	54.740812653118354
O	-16.736217886990865	-4.274034531990578	55.84028108424736
O	-19.617273513484953	-2.0376629974266116	54.132077163803885
O	-20.319315352473943	-2.4973014788261234	52.942329336368786
O	-18.52257089676998	-1.198664999470262	53.665200769683985
O	-20.64793104969509	-1.107190947738511	55.13328738117921
O	-13.442838353043069	-5.7627219731929875	58.93347961617002
O	-15.456847327449081	-4.531377617972021	56.239980602866204
