27

O	-12.10774694664156	-5.453980527339299	58.776335721721395
O	-12.854461298190417	-4.428886400742474	59.26860750132125
O	-14.18379425313034	-6.434467410271687	58.16679394753233
O	-20.257515952269305	-7.1320167203708404	60.94479352048609
O	-20.261492371768824	-6.000509076910454	62.889432950667
O	-17.127924560329493	-6.521035911037844	61.672195468459975
O	-18.572097102539423	-5.495093774454638	59.84719637560868
O	-25.786789133945547	-6.720339809048021	61.495419135031106
O	-24.981942723583177	-5.747585196646266	61.990432784285126
O	-25.175456554552106	-7.9241343113898335	61.841778924739295
O	-12.834805578505444	-6.239977456100354	57.892018623161746
O	-14.233447485517397	-4.618823816187136	59.5393263538174
O	-14.939056678600783	-5.680685911399536	59.06945116460067
O	-21.711610978189924	-6.926149544961657	61.25672287440477
O	-21.687335519593265	-6.218424602970819	62.41889417156635
O	-23.10129205949803	-6.934120384688278	61.117288350231796
O	-18.41703770152022	-5.7775170382914025	61.28198373700049
O	-15.919657480736939	-6.714659724358844	60.89228927603383
O	-16.311820773988003	-6.141246615221731	59.63628911916162
O	-14.81080665985164	-6.511335253319051	61.736925676096014
O	-22.507952536676825	-5.141587142540021	62.07853506221829
O	-23.89313906483343	-7.972373788103316	61.3017343238536
O	-23.620760249236348	-5.823928952846181	61.721147005148076
O	-19.64040788729391	-6.037220737533957	61.63281271189868
O	-17.203246666201967	-5.083572860150716	59.65371125873751
O	-12.080464967092079	-6.752310676733172	56.915001384728996
O	-14.661429483039218	-4.109209641393864	60.68245258510295
