78

O	6.2947678674733325	-2.811499612793333	0.7750930608222226
O	5.499795197473333	-3.726175482793333	1.3803106078222227
O	4.578254267473333	-3.1817161827933327	2.2034304058222225
O	4.276659957473333	-1.902850902793333	2.5762218958222225
O	5.362321847473333	-1.0964108027933328	2.2583840958222225
O	6.3836099474733325	-1.5852680327933328	1.4022296018222227
O	3.3669381774733327	-1.587633332793333	3.6319879158222226
O	1.9891507474733325	-0.946833468793333	3.476474715822223
O	1.6945049374733328	-0.550096252793333	4.9477624858222224
O	1.7686407474733328	-1.943715782793333	5.691048715822222
O	-0.6571334485266674	-2.739866942793333	5.327220135822222
O	-1.8173321925266672	-2.1371034027933327	4.650485535822223
O	-1.5898250425266673	-0.789558308793333	4.244367345822223
O	-1.2763901425266673	-0.586470423793333	2.8649984258222227
O	-1.3439396425266674	-1.589139702793333	1.9526636658222227
O	-2.4279502825266674	-2.387542392793333	2.3960469258222226
O	-2.792041362526667	-2.601698792793333	3.7622815758222226
O	-0.1475361505266674	-2.081483962793333	1.3957409738222226
O	0.10030367147333259	-3.298300602793333	2.0256114758222226
O	1.3546010374733326	-3.7811674227933327	2.2373147158222224
O	2.415487217473333	0.34788695120666707	2.8897310058222225
O	0.7250628594733326	-2.558819742793333	4.981190465822222
O	-0.7228959885266675	-3.5990633827933327	6.204575885822223
O	2.1783812674733327	-3.5494141527933327	1.1237597088222226
O	2.2766643474733326	-2.348434502793333	0.41340701752222264
O	1.0686818374733327	-1.7024356927933328	0.8042474528222227
O	3.3018890074733327	-2.185444752793333	-0.5769903941777772
O	4.845320757473333	0.15994938320666707	2.1570932858222225
O	6.713754667473332	-3.1045641127933328	-0.49711519717777736
O	5.038595067473333	-4.958256512793333	0.9059935438222226
O	4.207302137473333	-1.146073812793333	-0.48072657517777734
O	3.8412760774733328	-3.444568722793333	-0.8996940141777774
O	3.426910327473333	-2.111259162793333	-1.931454834177777
O	3.152079127473333	7.818797247206667	11.206639225822222
O	2.4302492074733326	4.112625877206667	11.191841025822221
O	-1.2549922925266672	4.659707617206667	12.152218725822221
O	0.7713087854733326	10.669768217206666	4.536410535822223
O	0.12151780447333259	8.666870597206666	1.3854049918222227
O	-3.5491132625266673	7.834790877206667	2.0023571658222226
O	-2.616153932526667	6.766064677206667	5.562711975822222
O	0.08803525047333258	4.466585317206667	4.446204685822223
O	-1.2055910525266673	3.301807507206667	1.0867033488222226
O	-5.017176912526668	3.379595867206667	0.8210020398222226
O	-6.9375869925266676	3.294612837206667	4.133676475822223
O	-4.240290092526667	2.0304423472066673	6.3821830958222225
O	-5.553853902526667	4.346834517206667	8.973626745822221
O	6.549153017473333	7.686146637206667	-8.172433274177779
O	-11.098719332526668	7.149079367206667	-2.9730575941777775
O	-10.332188132526667	3.559549647206667	-1.9187772341777771
O	-13.268009232526667	2.388848627206667	0.25592215582222266
O	-7.605020612526667	-6.190010742793333	-5.520487834177778
O	-4.9900437725266675	-7.823454612793332	-3.451625524177777
O	-3.6638478725266674	-4.340136862793333	-2.3378526041777774
O	-6.907081622526667	-2.333483342793333	-3.0805316541777774
O	-10.396424732526668	-3.111483162793333	-4.189181014177778
O	-12.065985832526668	-5.316528992793333	-1.5385512041777774
O	-14.806154432526668	-4.059660992793333	0.8111214808222227
O	6.903060457473333	-8.209040232793333	-2.257642694177777
O	3.6941076574733325	-8.356224092793333	-4.3995396741777775
O	1.0142347074733327	-10.556447882793334	-2.7834490741777773
O	3.7229888874733326	-11.685684582793334	-0.2777803511777774
O	3.5894289974733327	-14.787442182793333	1.8185682758222228
O	-0.09555472382666742	-13.967296382793334	-3.1754451541777775
O	-3.1587224925266675	-16.071830382793333	-2.2093958141777774
O	13.809986067473332	-5.251986272793333	6.099308945822223
O	11.821711267473331	-2.934348902793333	3.7022296958222225
O	10.912409867473333	-4.521529362793333	0.33714805282222265
O	11.493399367473332	2.859737537206667	-7.348813574177777
O	9.222187767473331	5.654215197206667	-3.3488295341777774
O	5.5923808874733325	6.758142407206667	-3.0142030841777774
O	3.1482234674733327	6.963578157206667	-5.877452644177778
O	0.37795159547333257	4.710385017206667	-4.540585364177777
O	2.5111538974733327	1.6896694372066672	-3.7184451241777774
O	5.066056907473333	1.9468428972066671	-6.612921434177777
O	0.32920573647333257	0.043601672906667055	-8.361587604177778
O	2.875975547473333	-2.291968742793333	-9.871357874177779
O	8.555496187473333	6.227402407206667	4.683757955822223
O	11.010208767473332	2.822855217206667	9.390910335822221
