30

O	-13.082934638253931	-6.272832398022185	57.40129982903156
O	-12.1182815683637	-5.4156462877538285	57.85042484772185
O	-12.499751805675539	-4.37622679301042	58.643452458920734
O	-13.468094336611204	-4.649385625099808	59.56639847079564
O	-14.070949859644728	-5.870156508086033	59.505283986709536
O	-14.043245588492134	-6.57604303081519	58.29748786820203
O	-15.101003022110891	-6.2872838159572115	60.33982775007583
O	-15.235537437194386	-6.385763257994252	61.72587978346178
O	-16.364386078643957	-7.2759145542526555	62.08822887993265
O	-17.44679460602054	-7.007122900501806	61.037102614543166
O	-17.102490179446313	-4.876145936354046	61.21124182804136
O	-16.603067774199936	-3.962463063620118	62.21718891136159
O	-19.877606815439407	-4.416907008140262	62.06535803798863
O	-19.964961700608477	-5.259743038908333	60.02814358801501
O	-18.67090806947627	-4.797364205185429	59.45708743289643
O	-18.11200294909912	-5.51852602696132	58.42344677440843
O	-18.317844222191724	-3.4722994424807307	59.22263719328403
O	-14.158388476196263	-6.757506637064477	62.57942607075
O	-18.111490774706542	-5.83125314629456	61.387010295920994
O	-19.47337199862354	-5.610911037608591	61.3354303205967
O	-20.73667360464406	-4.0690452978345775	60.027893163274676
O	-16.92081727382958	-7.385311627210219	59.97919407312574
O	-16.883767573482196	-3.2389658365938887	58.972448659935225
O	-16.222896865151657	-4.014415068159608	58.09948554034712
O	-16.849588739733708	-5.1613400014228175	57.82016444997356
O	-18.753530034055913	-4.169209691303968	62.965278549405035
O	-17.882728541933147	-3.1365799422937606	62.309805811249355
O	-12.775804138595529	-6.956614687966456	56.263509832552316
O	-10.83677019301468	-5.768998383694264	57.587392825680055
O	-13.983482719134104	-3.639273147202603	60.285590512340455
