68

O	0.28760485863620655	-3.792109292362069	-2.7205747176034483
O	-0.9733437270637934	-3.292161622362069	-3.7632641776034483
O	-0.9355331309537933	-4.1388936823620694	-1.4815079376034481
O	1.7998844286362068	-3.6428763723620694	-2.495106497603448
O	0.4927952486362066	-2.692938222362069	-0.548918857603448
O	-1.6710307593637932	-1.7804306323620696	-0.5124970208034481
O	-0.9607391736637934	-2.882362562362069	-1.0088812886034482
O	-1.0700050543637933	-2.0418657823620694	-3.110168837603448
O	-1.9202288913637933	-0.9974026323620695	-3.643961867603448
O	0.32496683863620657	-1.4480536723620694	-3.4204887976034484
O	1.2830636886362068	-12.567002182362069	3.7210548823965515
O	-9.071832661363795	-8.918120522362068	2.519895642396552
O	-4.381580631363794	-9.793509782362069	0.26146335039655194
O	-6.498324591363793	-8.27861040236207	-2.4219402276034483
O	-8.202501961363794	-10.810239082362068	-4.577235627603447
O	-3.2573499813637934	-13.41111368236207	-3.336503937603448
O	-10.773305641363795	-5.64966101236207	7.952242812396552
O	-13.030555831363793	-3.4432835823620693	5.822565592396552
O	-11.507577131363794	-0.005694274362069374	5.282370182396552
O	-4.997241231363793	-6.0778786223620695	-10.336297337603447
O	-8.089599641363794	-8.20180364236207	-11.104055997603448
O	10.067861768636206	4.75836701763793	-5.286644337603447
O	6.957314378636207	2.540123177637931	-5.363604347603448
O	4.809427568636207	4.14285486763793	-8.098567177603448
O	1.6292364086362066	2.1438586776379305	-7.330090547603448
O	-0.9665529762637933	1.2982315706379306	-9.985935457603448
O	0.5337881486362066	-1.2792581523620694	-12.355431297603447
O	3.953166708636207	-0.8340483123620694	-10.759513597603448
O	7.2374213186362075	-1.2503696523620695	-12.541298897603447
O	10.543272968636206	-0.19598586936206935	-10.961372597603448
O	0.007093958636206654	4.85709051763793	-13.303678997603448
O	2.7816458786362066	2.467045157637931	-14.214768797603448
O	-4.513307731363794	7.870673957637931	-11.957476997603449
O	-4.354247021363793	8.52284222763793	-6.395740517603448
O	9.599865068636205	4.309835717637931	-0.22252922460344812
O	8.006596908636206	1.3837688276379305	1.526998552396552
O	4.236989878636207	0.9759449256379307	1.3703736123965518
O	2.5886828186362063	2.824525207637931	-1.5274863276034483
O	6.141590438636207	4.02004582763793	-2.0974671276034482
O	6.064229618636207	5.28237648763793	1.4925325623965517
O	2.8993828486362068	7.18762435763793	0.6919676123965519
O	4.3879020686362065	8.70219124763793	-2.506677117603448
O	12.342030768636207	7.89251494763793	4.325704062396552
O	8.804355388636205	6.55076392763793	4.5037945623965525
O	8.436336988636207	2.935035207637931	5.6694405223965525
O	4.902637518636207	1.6511378576379305	6.4872013723965525
O	3.2337756686362065	4.33678431763793	4.385161962396552
O	-0.3964737973637934	4.76013254763793	3.5994961223965523
O	-1.3010929023637934	8.28156574763793	4.835827082396552
O	-4.967658411363793	8.626838467637931	3.874435542396552
O	-7.0211714213637935	6.317723827637931	1.6900934723965517
O	-7.520474241363793	3.9388603276379306	6.421131902396552
O	-6.814991951363793	1.3639514676379305	3.7724404223965515
O	-8.901844261363793	-1.6782956123620696	2.7509848823965517
O	-10.871551871363794	-3.870147502362069	-2.271032427603448
O	-7.597875971363793	-2.173730222362069	-3.137345877603448
O	-8.482423341363793	1.4122375776379306	-2.401244417603448
O	-3.8862842513637936	12.67302191763793	2.5351072423965517
O	1.1766988286362066	-4.137558992362069	10.791700402396552
O	-2.123374511363793	-5.87987164236207	9.859150902396552
O	-1.9305104593637934	-4.3851342923620695	6.327130292396553
O	-1.0647640623637933	-0.6671924493620693	6.479682452396553
O	-2.0193286613637933	-0.22485727036206943	10.086935702396552
O	6.7070565286362065	-6.36463900236207	13.294916402396552
O	4.252775278636207	-6.39289365236207	10.417841702396553
O	4.2161407686362065	-4.8008134323620695	6.933077282396552
O	7.247034698636207	-6.876855502362069	5.913767222396552
O	9.496422268636206	-5.85939956236207	8.897452902396552
