28

O	-13.068887113223864	-3.694868007861947	57.978069187304975
O	-12.66156034631239	-8.478914249991455	55.638575840630395
O	-14.791368951485625	-5.181682264698484	59.48077044953802
O	-15.602268713018592	-6.030222167530089	60.47181575483837
O	-16.580665099223104	-6.8637763796765565	60.00137246702838
O	-16.928332409398863	-6.348892546497706	58.659931304830195
O	-15.712897312757226	-4.304458041382528	58.92644014871937
O	-16.865113613307	-5.109072642759409	59.07559245651988
O	-17.79691589519436	-4.0183399570062095	58.87036218342017
O	-17.226389614471962	-3.151204806107847	58.01928546824612
O	-15.86866102305111	-3.7155639671880767	57.58786699908562
O	-16.8595027382013	-1.887939019086911	58.73582912207249
O	-17.90659407202512	-1.4454779384418481	59.40546870674339
O	-16.643752197827535	-0.8932051426668215	57.81180624521546
O	-16.496773786533716	-8.16374836184431	60.580127949231475
O	-14.497856632279273	-6.0049679259441096	58.29405440903144
O	-16.454020777591886	-5.26702671889865	61.48485464635057
O	-15.782064833904757	-4.037081403849518	61.51284431395099
O	-14.441095568486483	-7.325197716899091	58.58930720848738
O	-13.459005819514477	-8.007140075809053	57.98019425868061
O	-12.671260286091332	-7.473921774824591	57.05274209351574
O	-12.555485444822931	-6.1398093351560625	57.12804488907978
O	-13.542641290488705	-5.3450491605977986	57.60969024134274
O	-15.347075346261448	-0.6375942426221579	57.3560054180399
O	-15.6699559914884	-0.18563601124191198	55.93142164397989
O	-16.193409350340982	-1.3742665008703217	55.4598711721869
O	-17.382342844530772	-1.7936246022575801	55.93032949495265
O	-17.728663876233338	-0.6219115088191352	56.855538801306224
