75

O	1.2210324849375	-3.3949002793091667	4.012639842212499
O	-0.07591936506250008	-3.7737472993091665	3.8541386422124995
O	0.9817431249374997	-2.3381395293091667	1.8986707222124997
O	-3.7028342450625003	1.3152620306908336	-1.2320390777875003
O	-5.5206028350625	1.3880540186908334	0.09173074821249966
O	-2.7347650590625	0.33081180469083343	1.7328307722124996
O	-3.0243041650625004	-1.0413722893091664	-0.38898241618750035
O	-7.3669936550625	2.777648380690833	-5.1666153377875
O	-7.7665029550625	2.0173124706908334	-4.1171633777875005
O	-6.5507510650625	3.7676839106908333	-4.6221968277875005
O	1.7931926749375	-3.0069524993091665	2.8082514522124997
O	-0.9043114660625001	-3.1024887093091666	2.9191807522124997
O	-0.4138300450625001	-2.2839295393091668	1.9519129522124996
O	-4.822674005062501	1.7057106406908336	-2.1526814377875003
O	-5.9119573850625	1.7162370506908333	-1.3369260037875004
O	-5.5126937950625	2.0220991406908335	-3.3250679077875005
O	-3.6432793550625	-0.12075088730916661	0.5762880322124997
O	-1.4771458860625002	-0.2412876913091666	2.1763951622124997
O	-1.2639864780625	-1.2426069293091664	1.1703862722124998
O	-1.4809480990625001	-0.27951246730916657	3.5845237222125
O	-6.7770885450625	0.8900984036908335	-2.0565637877875003
O	-5.4788758750625	3.179378990690833	-3.9563933577875003
O	-6.7979272050625	1.5686098206908334	-3.2273949377875004
O	-4.393258345062501	0.6055970317908335	-0.19644206778750034
O	-2.3738841740625	-1.8509165293091665	0.6120817322124996
O	3.0961926549375	-3.2956108093091667	2.7379293122124997
O	-2.1231591520625	-2.8162545293091665	3.3459044222124996
O	-7.5189402150625	-1.0864679293091664	12.8331176422125
O	-8.506745465062501	-2.157770679309167	9.389367992212499
O	-3.3860819450625	5.277348690690833	12.3567167422125
O	-1.4760052560625	6.479605540690834	9.307831582212499
O	-4.2459504950625	8.524011360690833	7.7039909022124995
O	-6.6764463650625006	5.616324390690834	8.279625572212499
O	-4.4301720350625	3.1588325206908334	6.680442362212499
O	-2.6849782910625	5.200617660690834	3.9950156122124993
O	-4.7291292750625	8.096348320690833	2.8688131722124997
O	-8.4885478950625	7.939723710690834	3.4114575322125
O	-8.8622469650625	4.2485918606908335	3.8711009522124997
O	-5.568694565062501	13.745943510690832	0.6444927522124997
O	-2.4684743360625	9.026671630690833	-8.5514377377875
O	-3.0167015050625	5.181813270690834	-8.2046599977875
O	-2.2880757160625	5.351127190690834	-4.4366525777875
O	-3.8937340650625	8.692882380690833	-4.0212082977875
O	-4.7650773650625	11.790774410690833	-6.0818701977875005
O	1.6558615849375	-9.626968589309167	-4.3448269877875
O	3.1314522349375	-4.163150839309166	-5.1497338077875
O	2.9801420149375	-0.8005273593091665	-6.968752527787501
O	-0.4052090950625	-0.6494190793091666	-8.7964375577875
O	-1.0726387380625	-4.3167283993091665	-8.0595168377875
O	-3.0783545050625003	-6.644154749309166	-10.227909937787501
O	-3.1989709450625003	-10.401855889309168	-9.6040500377875
O	-7.9194163350625	-10.619816489309168	-13.505517457787501
O	-1.2186371140625	-1.1386945893091664	-12.264947157787502
O	2.6515320949375	4.720016510690834	-15.8048993577875
O	3.5339015849374995	1.4275391946908336	-12.9683786577875
O	6.427989934937499	3.8196769706908333	-12.3594093577875
O	2.9761292049375	-13.986491789309166	-0.38551577098750034
O	1.2038742749374998	-12.061099789309168	2.3098666822125
O	2.2500454949375	-8.426670759309166	3.0314549522124996
O	4.1333275549375	-6.820656069309166	0.14450122621249967
O	3.7298782249375	-10.247955489309167	-1.4053737647875004
O	5.4796110649375	-11.588140989309167	1.6904340122124997
O	8.330528684937502	-9.171459569309167	1.1212694422124998
O	7.7759172049375005	-6.197537119309167	5.154900262212499
O	11.3718339849375	-0.2511026253091666	4.3072338722125
O	7.0886520549375005	0.6086603395308334	7.399023342212499
O	5.1006260449375	3.8786362306908333	7.645131102212499
O	5.9245250349375	7.224697130690834	6.1050402522125
O	2.9585280149374995	7.723430910690833	3.7673897922125
O	3.1534992049375	4.452044300690834	1.8577451222124997
O	6.9371600449375	3.9075637106908334	1.8943830022125
O	7.5789597449375	5.017229100690834	-3.6586166577875003
O	0.6561335849374998	-2.5868087693091666	10.415616842212499
O	-1.9445303610625002	-8.175875699309167	9.786193742212498
O	-5.1863500250625005	-9.990757589309167	8.827558222212499
