78

O	0.47991055413518574	-3.15854910225926	-3.1348074663148147
O	1.9768667881351856	-1.71826025225926	-0.4551417899148147
O	2.446772608135186	-1.6778236122592602	0.8763745136851854
O	2.291945228135186	-2.61761050225926	-1.5379777363148146
O	1.8900414281351858	-2.98408574225926	1.575562453685185
O	1.4674280381351856	-3.5496869422592603	-0.7511587393148147
O	2.105772708135186	-3.8806954322592597	0.45939106368518534
O	3.730431298135186	-2.37803093225926	-1.4883647863148148
O	4.155835888135186	-2.3961723022592603	-0.11475735531481468
O	4.003775938135186	-1.55017173225926	1.0399128136851852
O	3.528945038135186	-3.73738120225926	0.2848810076851853
O	1.4564826981351857	-2.20234116225926	-2.6839548363148147
O	1.5195327981351856	-1.14846100225926	1.7967376736851852
O	0.5143798741351857	-1.50221121225926	-1.7992242363148145
O	1.7559781781351858	0.7441608087407401	-1.4066052183148146
O	0.8915888181351856	-0.25767970025926	-1.4332957863148148
O	1.4876806581351856	1.22884190574074	-0.18313852631481467
O	-0.4016306412648143	0.44080711194074	-1.1061195273148146
O	0.0662587471351857	0.91682462074074	0.15224058268518537
O	-0.8425006948648144	-0.17293076625925996	0.22259415268518534
O	-0.04145606186481432	-2.00351047225926	-0.7187355923148147
O	2.9226527281351857	-1.61686641225926	0.3221887996851853
O	2.6030021881351857	0.81393867074074	-2.588045456314815
O	2.0755987481351856	0.19215970974074004	-3.810722166314815
O	4.715294468135186	-11.67988984225926	-1.4645073863148146
O	-2.7241318818648144	-7.47580566225926	-8.563381406314814
O	0.02446857813518566	-7.1204026122592605	-11.143142916314813
O	1.7757301281351856	-6.7488819822592605	-5.9927307163148145
O	1.2392782481351856	-3.37134909225926	-7.622936376314815
O	2.908453328135186	-3.19810814225926	-11.027059516314814
O	5.8318615081351854	-5.55805559225926	-11.611316816314813
O	6.638765078135186	-6.41043808225926	-7.9987709363148145
O	-8.545481291864816	-9.33007915225926	-6.281651206314815
O	-9.923922781864816	-6.0697235222592605	-7.653957956314815
O	-10.694456291864816	-3.63313203225926	-4.883417726314815
O	3.6161360781351854	-1.1783578322592598	-16.702909216314815
O	7.502032198135186	7.15985151774074	-8.020588176314813
O	5.264822228135186	4.07588437774074	-7.9680715963148145
O	5.1044857181351855	3.51046067774074	-11.737045516314813
O	4.519599028135186	4.55098496774074	7.793513033685184
O	3.946611818135186	7.77799626774074	5.890831673685185
O	2.8270859481351858	6.25407933774074	2.595528903685185
O	3.2814704281351856	8.11091855774074	-0.7526255553148147
O	6.9822760181351855	8.04255348774074	-1.6223418763148145
O	7.812624918135186	6.68999493774074	1.8534330936851853
O	10.984708208135185	7.39244094774074	3.711750023685185
O	11.439619208135184	6.52558212774074	7.404283093685185
O	7.222904358135186	11.58633705774074	1.5295889136851852
O	9.484486558135185	10.62631045774074	-1.3242688183148146
O	5.367616378135186	13.83761525774074	-2.8037652963148147
O	2.228446518135186	14.987738857740739	-4.594267456314815
O	-4.9675968718648145	10.16042488774074	1.2112154336851852
O	2.0181355481351857	1.5940439577407401	12.478607283685186
O	1.8047244381351855	-1.51850232225926	10.398552183685187
O	0.027925444135185662	-1.3229469022592601	6.891790263685185
O	-0.4532288311648143	2.33298467774074	5.686872103685185
O	1.3208049681351857	3.09159297774074	8.894070153685186
O	-1.5275162818648145	1.19499186574074	10.567100383685187
O	-4.004055221864815	3.30320295774074	8.656250563685186
O	-2.480364841864814	-0.43773241525926	14.420885883685186
O	-1.2535426058648143	-3.66315283225926	12.811618983685186
O	-2.917161241864814	-4.85192776225926	9.543605703685186
O	-4.217780381864815	-1.37862608225926	8.742945243685186
O	-6.029772181864814	-0.21833502225925994	5.700953863685185
O	-9.747238271864815	2.79287443774074	0.6117059636851853
O	-12.429362791864815	0.79203726474074	-1.1148765723148146
O	-7.786811631864814	-2.06171879225926	-0.9519629583148147
O	-6.7261143518648145	-3.03987203225926	-4.454931356314815
O	-7.441559701864814	-1.03311791225926	-7.587076546314814
O	-3.953858251864814	-0.31838353125926	-8.862273026314814
O	-2.478713191864814	1.09862986674074	-5.642860466314815
O	-5.618216791864814	2.9577927177407397	-4.424030496314814
O	-4.546971631864814	-11.80698534225926	1.2312443536851854
O	-3.403269331864814	-8.25550604225926	0.9812178336851852
O	-4.835211911864814	-5.85331026225926	3.5089232036851854
O	-0.9143083848648144	-13.09728094225926	6.354534933685185
O	0.0826089291351857	-9.46705146225926	6.106517503685185
O	3.647670678135186	-10.34865124225926	7.229227313685185
