77

O	-3.3291456625098035	-1.7486341487980388	1.673644530117647
O	-2.4389601705098034	-1.0504177187980386	0.851053646117647
O	-0.9606881855098034	0.6527594054019614	0.027726002117646975
O	-2.2273975685098035	-2.1729213687980384	2.351492940117647
O	-2.2387957235098037	-1.1876307087980387	4.407286860117647
O	-5.333086552509803	-1.5455359587980384	2.382362900117647
O	-1.0372986635098034	-2.2239947187980387	1.580193770117647
O	-1.1001849715098033	-0.4284989487980386	4.201113550117647
O	-2.8289594825098034	0.5382435442019614	3.939525390117647
O	-1.5801773367198035	-2.0543451387980385	0.21660266251764695
O	-3.998618972509804	0.7496099114019614	1.1567090901176469
O	-4.962036202509803	-1.9288406287980386	-0.677570375882353
O	-1.8201806575098034	0.14981026820196142	0.712846177117647
O	-2.6541156425098036	1.0101385962019613	1.430642480117647
O	-4.146423272509804	-1.0680157887980386	2.683946480117647
O	-3.308537322509803	-0.6434890187980387	3.731374510117647
O	-1.5450976625098034	0.6959602574019614	3.822010990117647
O	-0.9235374225098034	1.8863599612019615	3.390790700117647
O	-4.121904862509804	0.1414953722019614	-0.12876018088235305
O	-1.9257433245098035	2.9997313412019615	3.807586810117647
O	-3.5840462325098033	1.5388613282019614	-0.5244024738823531
O	-0.24182217250980353	2.1378598112019613	4.730629240117647
O	-5.181285852509803	-0.6143447787980385	-0.331533666882353
O	-0.3827005325098034	2.5056584312019616	2.348216940117647
O	-3.0939544225098032	-0.1300080337980386	-1.221206729882353
O	-0.3164430225098034	-1.0058823987980385	1.650648020117647
O	-10.079833482509803	7.220415861201962	3.032827370117647
O	-11.202779032509804	0.4380107042019614	-5.629476069882353
O	-13.968566972509803	-1.4209578087980388	-3.748392199882353
O	-10.330393832509804	0.9238721832019614	-0.517900688882353
O	-9.690826762509804	-2.830825498798039	-1.260268319882353
O	-12.596544672509804	-4.936951858798039	-0.543599536882353
O	-15.137112972509804	-3.502711148798039	1.886584960117647
O	-12.929273772509804	-0.9428703887980385	3.588699670117647
O	-8.660218952509803	3.5987534812019613	-10.834345939882354
O	-3.9449879825098035	-0.3522733887980385	-11.787881539882354
O	-6.839593112509804	-9.447276978798039	3.263655560117647
O	-10.104431892509803	-10.999874678798038	2.065011890117647
O	6.2992533974901965	-1.7671534687980386	6.853301550117647
O	6.758916317490197	-5.451497968798039	5.992887590117647
O	3.5916735274901965	-5.8025393887980385	3.870671410117647
O	1.8150894074901964	-9.25184954879804	3.465328100117647
O	-0.0026875225098035305	-9.960720878798039	6.730159380117647
O	1.9578108374901964	-7.213145718798039	8.464054200117646
O	2.8710314174901965	-7.065114408798038	12.078673660117646
O	5.167133687490196	-4.365784988798039	13.484569260117645
O	4.4019740874901965	-11.398688378798038	8.103785580117647
O	2.5445528874901964	-15.40586507879804	5.298511770117647
O	6.676089297490197	-9.01409801879804	-3.598995209882353
O	9.049963527490196	3.533655511201961	5.685830580117647
O	5.6885498174901965	4.932781101201961	4.583249480117647
O	3.972879567490196	3.2283707812019613	1.731203340117647
O	4.7874107274901965	-0.49876341879803854	1.386682580117647
O	7.399189977490197	0.3639782002019614	4.0254228201176465
O	8.445010927490197	3.1861197212019614	1.692031960117647
O	8.826207727490196	0.6438010039019614	-1.083791069882353
O	10.799516527490196	6.750347551201962	1.858541060117647
O	7.402001217490197	8.418807301201962	2.296222850117647
O	4.711211027490196	7.833894711201962	-0.407703574882353
O	6.395793327490196	4.636644481201961	-1.641811819882353
O	5.202548767490196	2.2293471312019615	-4.235486129882353
O	7.942640797490196	2.0602617512019616	-6.838955839882353
O	6.604437047490196	-0.5203538687980387	-9.280728599882353
O	3.6216194774901966	-2.7903470687980385	-8.893013259882354
O	-0.6643755325098034	0.23056628320196138	-7.984758139882353
O	-4.361691272509804	-0.8657924887980386	-7.757541289882353
O	-4.487384712509804	-5.470928138798039	-3.858188109882353
O	-1.4483133685098035	-5.801329978798039	-6.097990539882353
O	10.692206127490197	-2.1172142387980384	-9.244274129882355
O	-2.0621770725098036	11.235810021201962	-3.486481899882353
O	-5.100692712509804	9.40526319120196	-5.030999449882353
O	-3.6916693825098035	6.180413291201962	-3.644840449882353
O	0.10222979749019667	5.780664851201962	-4.339973359882353
O	-2.8151430325098037	12.783700821201961	-0.06756774788235306
O	-1.4345689235098034	9.429327341201962	1.064100813117647
O	-2.0930152975098033	10.45891410120196	4.693938560117647
O	-0.08065898250980341	13.69120742120196	4.619018920117647
