23

O	-25.186462452118146	-9.082508887360259	63.32761069682705
O	-22.983526384591045	-8.147389171437919	62.703100820745746
O	-23.802225511911335	-9.198547372177341	63.13672893571694
O	-20.516227547200085	-4.957018726801953	63.07154530032246
O	-20.808022298995002	-7.152405799857775	62.050569106995304
O	-19.621646258453982	-6.880039586170077	61.2450251385326
O	-25.921161785424978	-6.33301233624865	63.42534958037494
O	-19.518144452101684	-4.588391902834256	62.02268773675321
O	-19.691096060951367	-5.451705443336843	60.91668668607946
O	-18.63250842770395	-5.093828943701986	59.963430262949885
O	-17.323794036936416	-4.661664265180835	60.64494452439235
O	-16.159626158055787	-4.580481673660509	59.79010100077109
O	-14.879332314074725	-4.621211425504591	59.743888219988875
O	-21.733955858532397	-8.17596797210822	62.08755319657822
O	-21.36774428155249	-6.050427330326647	62.6127893085671
O	-13.757047371779574	-3.622515163622631	59.67776170569332
O	-14.48581946542609	-2.2797918336876535	59.69403570868533
O	-17.362419192685223	-5.7399058695962575	61.754630139669246
O	-18.210474857479383	-6.954188043285185	61.63838755352946
O	-22.748539822399938	-5.89508843695809	62.72671137216137
O	-23.589107445045162	-6.925785421072851	62.770413430597706
O	-15.863244307151973	-6.1629729022194395	61.52783814424535
O	-24.678633301470683	-6.861101694567993	63.6582769842283
