32

O	-10.746814242648014	-6.534603141180696	57.86464811858824
O	-24.162574029267823	-1.4821901640480242	55.69087615671325
O	-22.681145132403543	-1.8047563670574016	53.6258786946148
O	-23.607971440268173	-3.670059052743146	54.726405632645914
O	-22.848977231315338	-2.405033086871028	55.01584401825393
O	-18.38967432109622	-7.447498858739673	59.14151149286247
O	-13.340692056351838	-5.8553135280462225	58.6471778083035
O	-14.65302801380648	-6.081801269299623	58.22007011911412
O	-12.339211590567247	-6.783165387610653	58.59155308361446
O	-15.039705692417732	-7.4198296825230114	58.30313585787983
O	-12.732204038021477	-8.102564364408957	58.63177831124387
O	-14.037188602156952	-8.381682823059538	58.34642170267074
O	-15.641448779868993	-5.143680928362097	58.840475608026175
O	-15.840554386727408	-5.532226262230235	60.27310259658682
O	-17.073946988504346	-6.269672016073187	60.56621022144768
O	-18.188942081548312	-6.274166520119873	59.606492310019824
O	-19.39602383333849	-5.657315124723211	60.07030467489032
O	-19.526594586183393	-4.708182880895858	61.138267212433725
O	-18.40344443756481	-3.7990239323954658	60.86363349713069
O	-18.320603326247465	-3.552903399204251	59.45693408174092
O	-14.72577672174489	-6.229100785770435	60.85454398186139
O	-20.7005902262792	-5.808175881116717	59.62151680471326
O	-21.616024716680418	-4.775346201710635	60.128272946652785
O	-20.856883191707777	-4.045699054860386	61.13593343296205
O	-19.6241807032153	-3.143140974985923	59.01818454392394
O	-18.805011559800434	-2.091811699629215	57.096018869187766
O	-19.149971031077644	-1.4979510799630278	55.87515938766495
O	-19.686578844593477	-3.0921379986738278	57.53460489013848
O	-20.282304153298792	-1.9018094513122143	55.2221974900148
O	-20.9188386039013	-3.2885177047526226	56.97974304580939
O	-21.359851761758094	-2.536951880047737	55.88024890724613
O	-19.97761891750352	-2.0543590767509157	59.59664930170867
