83

O	1.3872933677678572	2.6659452473571426	2.641923893821429
O	0.5380592877678572	3.0967801373571424	1.615999943821429
O	0.8897951277678571	2.4770359873571426	0.4297833198214289
O	-1.4627502932321428	1.5535330423571425	1.592052703821429
O	-1.4517462072321428	4.072640157357142	0.5177039558214289
O	-2.808962812232143	4.243264267357143	0.5311403758214289
O	-3.7158535022321426	3.9421256373571425	-0.429283771578571
O	-3.286953372232143	4.763832747357142	1.715491823821429
O	1.147129227767857	-1.8074234126428577	-1.6120579461785711
O	-4.552811812232143	5.302971547357142	1.755116233821429
O	-2.8283640522321427	4.050545617357143	2.775297633821429
O	-0.5807069422321427	-2.8788171226428574	-1.272905216178571
O	-3.381666242232143	4.3662736673571425	3.971550923821429
O	-1.4581418512321427	3.9409282273571424	2.760230523821429
O	-2.8345339022321427	-2.8411906126428574	-0.634298678178571
O	-0.8381618972321427	3.6019321373571427	1.6278123938214288
O	-1.3957578332321428	-0.7262138026428575	-1.095492235178571
O	-1.6719813812321427	-2.2612649326428573	-1.2364269871785711
O	-2.709366262232143	3.6780647973571425	5.038242813821429
O	-0.32136790623214273	-0.7195409826428576	0.28863580782142895
O	-5.489097522232143	4.792992477357142	2.668749303821429
O	0.18884589776785732	-1.8638643126428573	-0.5585230381785711
O	-5.051933682232143	3.9141369673571424	-0.021432920178571013
O	0.3011709877678572	0.40438237035714253	0.7860550838214291
O	-0.3319771312321428	1.7202294163571425	0.8618157438214289
O	-2.178984884232143	1.0437155263571425	0.583223413821429
O	-1.7347327872321427	-0.2354435426428576	0.243999722821429
O	4.627380637767857	-5.436730372642858	-8.38450975617857
O	1.779832197767857	-5.226913182642858	-5.919887206178571
O	2.1792033577678573	-5.771718182642857	-2.149101866178571
O	0.3880336877678572	-6.964381252642857	0.976408133821429
O	2.6691272577678573	-9.034226472642857	3.255295503821429
O	5.2997141277678566	-4.985359722642857	4.709956423821429
O	5.713151107767857	-1.9398938826428576	6.957682713821429
O	6.3926929277678575	-0.7054099626428574	10.480705493821429
O	7.467399367767857	2.8104256373571426	11.29244409382143
O	6.331295417767857	4.024209037357142	7.76893712382143
O	2.8966151777678575	2.5450126673571427	8.21823831382143
O	1.1705215577678572	-0.7336182326428573	7.623773793821429
O	1.9404661977678574	-3.4374995526428576	10.218734693821428
O	-1.7311487702321426	-4.408436862642858	10.544422393821428
O	-4.864728812232142	-2.3460327526428575	11.139166493821428
O	-6.357682232232143	-0.7945166926428575	8.037589573821428
O	-8.191187172232143	-3.3120212026428577	5.817203343821429
O	-10.575080042232143	-1.2158965226428573	3.8099980438214294
O	-11.446699572232143	-3.7790369826428574	1.128848053821429
O	-7.800925952232143	-4.788877312642858	0.778807873821429
O	-7.096491802232142	-1.0749514626428573	0.05522559082142897
O	-9.888122462232142	-0.9839874326428575	-2.472508336178571
O	-8.294550902232142	-4.047010052642857	-4.251538586178571
O	-5.020131592232143	-2.2536239326428573	-4.537304806178571
O	-6.615238132232143	0.8935340853571425	-5.873424226178571
O	-8.567249262232142	-1.1155932626428573	-8.407251566178571
O	-5.657981542232143	-3.224130912642858	-9.63074974617857
O	-3.2655443222321425	-0.32727440264285756	-9.99246827617857
O	2.966766727767857	3.7015534373571426	-10.277235316178572
O	6.573742907767857	3.6323015873571425	-9.31530986617857
O	7.541384407767858	3.9046182773571423	-5.626196376178571
O	10.572062727767857	4.777698327357142	-3.496875316178571
O	6.721662997767858	4.862401147357143	0.21546666482142895
O	5.604833207767857	8.163088247357143	-1.357547404178571
O	3.901919207767857	7.134891997357142	3.692385593821429
O	0.8371419077678572	7.988556127357143	1.6067187338214288
O	-1.3194013067321428	10.454468937357143	3.624683633821429
O	-0.5527343772321428	13.881897827357143	2.201129633821429
O	-4.084876152232143	14.181333827357143	1.049480213821429
O	-4.243137982232143	10.893683847357142	-0.8286793731785711
O	-1.2044248387321428	11.673391027357143	-2.823269726178571
O	-0.7622591562321428	11.491106827357143	-5.718813396178571
O	-2.557723522232143	8.260241667357143	-6.258945206178571
O	-5.450276762232143	9.463718947357142	-8.357902046178571
O	3.0282090177678573	8.821413587357142	-10.046452336178572
O	5.765722187767857	-0.9949133326428576	-8.491620746178572
O	4.093347647767857	-0.28251226264285756	-5.205765466178571
O	7.102304777767857	-0.30395849264285757	-2.821397326178571
O	9.342030427767858	-0.4162310226428576	-0.8932387401785711
O	0.29181521776785724	-9.432334872642857	-7.045177366178571
O	0.7522919277678572	-10.573834272642857	-3.469917386178571
O	-1.8512108192321426	-10.320672172642858	-0.716639869178571
O	-0.9682613562321427	-12.914865172642857	1.9641715938214288
O	-1.9890608932321427	-11.535892972642857	5.384327923821429
O	-0.9679842872321427	-13.696227172642857	10.716156593821427
O	7.373445707767857	-5.180964722642858	11.101769393821428
