32

O	10.478420352542951	7.385009259902	-0.4401588052412078
O	9.297583731310922	8.131582267223678	-0.2922671538559248
O	10.480609339796084	6.356173058678372	-1.4497888376178554
O	9.447784911018859	5.893227881812249	-1.965215025296136
O	17.879374047524973	7.09479650745726	5.371409327174529
O	8.379507548060918	7.640546077170407	0.7284176154784623
O	8.948657002033954	6.583257882928564	1.602062527989422
O	8.027770231517216	6.67532020635667	2.790378353021961
O	6.705861011302387	6.346602038398336	2.4595055917305895
O	8.141142446769695	7.829800953422852	3.313394040391454
O	18.279036110148777	6.850076483457185	3.155473270675905
O	10.633961038940965	10.122613812772016	-0.36591689222255225
O	17.627805051505536	6.465485131250873	4.132559005600203
O	8.329158820909047	10.220642624635419	-0.016916337433292614
O	16.538137903805072	5.59772320883916	3.9447553357325025
O	16.142935770230615	5.047041300504798	2.6806750386754223
O	16.995621357558274	5.552797009754361	1.586676705492029
O	15.831710474521659	3.845988038078755	2.5643588711345635
O	16.8713506314803	5.20853003978589	0.36398094541676973
O	17.377561603633808	6.091267602015062	-0.5990886710066585
O	18.127670731084486	7.116764061107396	-0.3413000712689797
O	18.0366978404916	6.427988889420273	1.9902198557652073
O	18.71471467508151	7.186596265588028	0.9681051950662107
O	16.89733284516926	5.841679165288641	-2.0153823311392407
O	15.84936098652197	4.85801773838997	-2.078469911828442
O	11.828189068401041	5.8909673320037	-1.6993894448738858
O	12.836917699699873	6.790052666575777	-1.8865396612750787
O	13.919221934095791	6.291611164758755	-2.6097140070573306
O	14.461875655351214	5.111899892536603	-2.1071285971782516
O	13.462482365994358	4.214793291915116	-1.7793529199617026
O	12.149908824563655	4.585919526288738	-1.568008095862283
O	9.394100845731636	9.589973739697323	-0.16374086007557148
