33

O	9.616129539620694	8.143904164735684	-0.4816623989671224
O	8.480616509953023	8.796960729262796	0.11619781596642176
O	9.658201035749954	6.819380544341739	-0.9503526937083921
O	8.654391640310642	6.150248948415788	-1.3226551989851538
O	17.614121096306594	7.076291266562944	4.917410854073259
O	18.435888719813548	7.455407886163469	0.5378044677935245
O	8.6443658823084	8.55947385878284	1.622269389078013
O	7.773002976623304	7.399021003222593	1.9425374165558185
O	6.708523579948562	7.886598594377046	2.8317601260372522
O	6.756587793775912	9.113455538357725	3.4505647630596292
O	5.576249918627125	7.418960199742081	2.6076925463936105
O	14.642343345303878	3.047409387755609	-2.567509448889643
O	18.123878610804113	6.033054694511332	2.883461410365491
O	9.616370245206284	10.916132575308747	0.5377780577949653
O	17.330481481833537	6.86972811587584	3.7165435473817294
O	7.40626496569344	10.868574429297073	0.17415244126552332
O	17.628307153628995	7.766234829332542	2.61119283231262
O	17.231304645605288	7.563063251658936	1.3371367413753048
O	16.32674014823934	6.350868278078174	1.2602380617217568
O	15.738412444865865	5.718147018697925	0.11249482264696686
O	16.368104250047438	4.910025330082463	-0.690854785425131
O	17.783078771938268	5.124259910212391	-0.4182217522872429
O	17.28643655517978	5.511846825731888	1.9855557818454206
O	18.165941659590946	5.261768045569618	0.7914626738474348
O	15.903967884928852	5.1103745457105925	-2.1004896458073112
O	14.62320770122005	4.464912585344053	-2.2015475716822746
O	10.961170449467756	6.295435850311971	-1.3802241252270018
O	11.108491703628262	4.951750682109134	-1.505163276183255
O	12.254073760768193	4.423806179282943	-2.009881492317851
O	13.430015917035812	5.153705366259583	-1.8680211303627028
O	13.225618041289813	6.505935834034284	-2.1285238396325146
O	12.075837841475593	7.042417240155342	-1.5567295811341078
O	8.50103525832112	10.284001896526973	0.04892958218327115
