24

O	12.950777902013096	3.5706193523223297	-0.9113971191076606
O	12.179743871626828	2.4680423756100076	-1.2848661913695558
O	10.822808341800862	2.366982282299278	-1.3478066964916935
O	12.961542130274523	1.345310217680844	-1.5576754214667716
O	14.069035336334098	1.6147792868036186	-2.3037722734072124
O	14.749636709506362	2.7910941034561567	-2.239750244319145
O	15.44016534504614	3.158193740727542	-3.413112115828393
O	14.053978435565757	3.776158597663053	-1.6490163803083793
O	17.522919639340355	6.093646600474475	2.8102270215375884
O	17.456983781501652	7.374147424286301	3.310326420656121
O	17.979316455605424	7.5948541329194175	4.4429690962054735
O	18.140784897419543	7.8740007112398285	2.1823413342267375
O	17.978139316467043	7.4485224502432175	0.9958838446102339
O	16.967441180990846	6.591090182619419	0.6593146449331126
O	19.10944713688084	7.120333535793227	0.17864179340045097
O	16.642894584728783	5.988806420734261	-0.6897028877262615
O	17.1402587823406	5.602546235394216	-2.0996649702405037
O	15.562419275162238	5.108772970833644	-0.6665315781388075
O	15.466082068379357	4.284887790463116	0.5573053242413171
O	16.737392828498717	5.826976189495798	1.8246408195085604
O	16.636182138486188	4.574520976338229	1.0580233254876403
O	14.642716517343121	5.080292526295052	-1.7775322174634896
O	14.60078444698657	3.0622069698337313	-4.564539096380782
O	10.29787008950415	1.1400944498273446	-1.7598571132628742
