83

O	4.017723592462	3.2268706122349995	-1.3133753930860004
O	4.327772282462	4.493875152235	-1.9231941030860003
O	4.805066532462	2.5479633842349996	-0.36734183408600035
O	6.051656052462	2.6898194722349995	-0.22637740808600038
O	-4.008568177538001	2.6338975522349997	4.116604496913999
O	-2.902059337538	-1.2085316677650004	2.1137666569139997
O	3.653182332462	5.5345441022349995	-1.0213060890860004
O	4.722896772462	6.039629102235	-0.12180850018600037
O	4.927607922462	7.459487682234999	-0.44377166308600036
O	4.050515152462	8.183575362235	-1.2163081430860003
O	6.114795412462	7.835671402235	-0.4464670110860004
O	3.423996182462	-2.4152061477650006	3.5242169569139996
O	-3.0274456275380004	0.5127221922349998	4.268786106913999
O	2.284978022462	4.627170362235	-3.2527728930860005
O	-3.1690132575380003	1.8071405012349997	3.6961019769139996
O	4.168432112462	5.605990002235	-3.969406353086
O	-3.331089197538	0.9577572992349997	2.5271262769139997
O	-2.373780497538	0.13950368223499976	2.0411945169139996
O	-1.0807738175380002	0.3397467022349998	2.8038238169139995
O	0.1680319524619997	-0.36115841776500024	2.6898221369139996
O	0.40943891146199973	-1.5315252177650005	3.2064528169139996
O	-0.8991260785380003	-2.0872146077650005	3.5246431569139998
O	-1.7477836475380002	0.1764176022349997	4.0997719169139994
O	-1.7869133275380003	-1.3256574577650002	4.0352245869139995
O	1.2904637324619999	-2.3308729777650004	2.2967983569139996
O	2.6207600124619996	-1.8104190777650002	2.4599548469139996
O	4.2326367824619995	1.3444663502349998	0.2498743789139996
O	4.797462762462	0.8714647452349997	1.3900692169139997
O	4.380852672462	-0.30102022776500026	1.9355407069139998
O	3.0742572424619996	-0.7106445977650004	1.6890992369139997
O	2.718003652462	-0.5064784677650005	0.3588485229139996
O	3.104549012462	0.7231056432349997	-0.16599533928600035
O	3.651269172462	4.749559352235	-3.2244252530860003
O	-11.747100417538	-0.8403265777650004	-4.577338763086001
O	-9.833235767538	-2.3652733977650002	-1.6685302230860004
O	-7.575952697538	-0.2923636777650003	0.6035921259139996
O	-6.362961677538	-1.5629284177650002	3.9675497869139993
O	-5.231052037538	-0.3956384877650003	7.351782946913999
O	-3.1380445075380003	-6.442605507765001	8.927168076914
O	0.4209456114619997	-7.828295697765001	9.039725026914
O	5.668309282461999	-9.487652697765	6.3707379869139995
O	5.510897532462	-6.019264947765	7.897649906913999
O	2.927433032462	-3.891682057765	9.627052566914
O	5.094616832462	3.2727051822349997	10.733055196914
O	2.386959732462	5.979644642235	10.384366596914
O	3.773485942462	8.434124812235	7.886269686913999
O	0.5615166844619998	10.367819392234999	7.159127336914
O	-1.4170388075380003	7.122127192234999	6.962875496913999
O	1.0197960524619998	5.961687522235	4.276514286913999
O	0.6620341044619997	9.283998292235	2.4691252869139997
O	-3.153425657538	8.685597002235	2.4466692969139996
O	-2.600473747538	5.237892512235	0.9042718249139996
O	-0.30455590353800027	6.811911182235	-1.8454522630860004
O	-2.7548794475380003	9.501782372234999	-2.5468969730860005
O	-5.862186177538	7.404319892235	-2.7829164430860005
O	-4.3426207475380005	4.752626722235	-5.001338303086
O	-2.4022192575380004	7.144752362235	-7.308467283086001
O	-2.860442917538	-1.8767994377650004	-8.087423993086
O	-3.4295662275380003	-5.553726777765	-7.675519793086001
O	-1.6184533375380001	-7.444181127765	-4.867460003086001
O	2.3899245124619997	-8.172733137765	-0.3922483780860004
O	4.601196452462	-7.256706807765	-3.3574057830860005
O	6.732851952462	-6.662375617765	1.5881589069139996
O	7.135744682462	-3.330273757765	-0.18243823378600038
O	10.796118782461999	-2.1801109477650003	0.3383450379139996
O	12.724585782462	-3.200350217765	-2.7759976230860004
O	13.349364882462	0.40352511223499965	-3.524714973086
O	9.787026122462	1.5415631707349997	-3.3478053130860004
O	8.563950672462	-1.0370581977650004	-5.708378573086001
O	6.868198332462	-0.7534787177650002	-8.105487653086
O	4.390530192462	1.5962688716749998	-6.595771623086001
O	5.152424252462	4.714898772234999	-8.592784033086
O	2.639449002462	6.247747762235	-10.958579303086
O	1.4673113524619998	-2.867216037765	-10.657882203086
O	-0.00447214763800028	-6.320368827765	-11.053474903086
O	-7.137185057538	-0.9144956277650005	-6.179150123086001
O	-6.6147314175380005	-4.234520417765	-4.372299313086001
O	-3.8232848675380002	-3.5231247277650004	-1.8841080030860002
O	-3.483712607538	-6.936172497765001	-0.13718709108600038
O	-3.1855130075380003	-9.539108897765	1.2541521269139997
O	-11.283227917538	2.0954010502349996	2.0939243269139998
O	-8.250104227538	2.7654661522349997	8.096097636914001
O	-6.208231197538	1.6029732745449996	13.808845696914
