85

O	-1.8421969939344267	2.0932991756885246	3.9912512816721315
O	-2.981820260934427	2.722576295688525	4.496145061672132
O	-3.2330798109344268	3.1184690356885247	5.775045471672132
O	-3.971038850934427	2.8811799656885246	3.5253452116721316
O	-3.497716140934427	3.3158139456885247	2.3241482216721314
O	-2.263368540934427	3.002310445688525	1.8454675816721315
O	-1.6974080849344266	3.943752715688525	0.9613040016721315
O	-1.4334029629344267	2.5255105556885247	2.7873157616721316
O	0.7921664490655734	-2.798441144311475	0.7894332516721314
O	1.9967624890655733	-3.3614493243114754	1.1445381316721315
O	2.156879299065573	-4.5998333843114745	0.9319591316721314
O	2.6882979790655734	-2.4721415743114754	0.2955987806721314
O	2.373471579065573	-1.2532995243114753	0.12102757667213146
O	1.4441843190655734	-0.6200768143114753	0.8991238616721313
O	2.266747409065573	-0.7112206543114753	-1.2019275883278686
O	0.9529155290655734	0.8082530196885248	0.8187908816721314
O	0.7771181290655734	2.081155915688525	-0.03758207532786856
O	-0.04452152793442665	1.1119095226885247	1.7436339616721315
O	-0.9977096393344267	0.012119929688524822	2.0039024516721313
O	0.5405876190655733	-1.6354164943114755	1.2830195116721315
O	-0.6278458889344267	-0.7762671343114752	1.0315924616721315
O	-0.0633363739344267	2.4109915456885247	2.3705459316721313
O	-1.7693036729344267	5.267575425688525	1.4922298916721315
O	-4.462772270934426	3.7349081356885248	6.016827931672132
O	9.226958269065575	-3.067569334311475	-4.293503358327868
O	6.254050629065573	-3.941645504311475	-2.0280502383278685
O	2.606329559065573	-3.7341206643114755	-3.1680658083278685
O	-0.8144201939344267	-5.124816434311475	-2.6107276583278685
O	-2.7582420909344267	-5.559972234311475	-5.880702098327868
O	-6.242152150934427	-6.827131444311475	-6.897711778327868
O	-5.633926230934427	-2.258665684311475	-9.017803308327869
O	-3.561624570934427	-0.6244715943114753	-6.365117898327868
O	-5.5622283609344265	2.5282164556885247	-5.421509118327868
O	-8.869384840934426	4.373138395688525	-5.922497918327868
O	-9.351323500934425	8.044627675688524	-5.1588628383278685
O	-6.0202595309344265	8.106697375688524	-3.1249363083278685
O	-7.043003200934427	5.185982105688525	-0.9282176153278686
O	-6.909921200934427	1.4292902346885248	-1.0931575773278686
O	-9.533790180934426	-0.21079520431147525	-3.4626781283278687
O	-10.486964540934427	-2.758684684311475	-0.7563475663278686
O	-11.491582430934425	-2.4047700443114755	2.8937331216721316
O	-8.635599580934427	-2.249407324311475	5.350904121672132
O	-6.807318510934427	-5.595580844311475	5.841779371672132
O	-5.181393840934427	-5.401204994311475	9.192700161672132
O	-2.7708644709344266	-8.273814484311474	8.925835921672132
O	-1.8536596109344265	-7.3028906943114755	5.386207631672132
O	-0.7989932679344267	-3.859341834311475	6.544839151672132
O	1.0661949690655734	-5.484878914311475	9.525888791672132
O	2.991821789065573	-7.550974014311475	6.887357531672132
O	3.863343089065573	-4.389563554311475	5.066251071672132
O	5.042655559065573	-2.666990264311475	8.240843631672131
O	7.119558379065574	-5.683781304311475	9.236711361672132
O	8.767726269065575	-6.2512592043114745	5.867629511672132
O	9.647594469065574	-2.619000414311475	5.302792421672132
O	10.863647469065574	5.594980095688525	-1.2995869783278686
O	7.397792159065573	6.759648375688525	-2.4499842083278685
O	5.854358929065573	9.290236275688525	-4.843120138327868
O	1.532662929065573	7.981278235688525	-2.0158888283278684
O	3.043145389065573	10.033691735688524	0.7951522436721314
O	-0.05931505393442671	12.170776835688525	1.1013612316721315
O	-2.2853687609344266	9.143399635688525	1.0291189716721314
O	-0.7417206039344266	7.936807015688525	4.345509591672132
O	-2.9269406409344265	9.413986815688524	7.163255301672132
O	-1.2387701979344268	12.535142435688526	8.421925131672133
O	0.8992291190655733	7.747787305688525	10.501177651672132
O	3.439714829065573	9.622475815688524	8.541264531672132
O	6.363434749065573	9.321030775688525	8.440832271672132
O	6.385388909065573	5.567682965688525	8.425525281672131
O	8.033941049065573	4.980613345688525	11.789296651672132
O	9.676821269065574	1.3234718216885248	-3.0333871483278685
O	6.140627189065573	1.5546138336885247	-1.5986440583278685
O	4.2741256390655735	3.2645108256885247	-4.4546064083278685
O	2.842379429065573	4.5909926956885245	-6.737717888327868
O	7.697323919065574	4.6935103956885245	-9.284267778327868
O	8.940049149065574	-7.573021344311474	-5.791105688327868
O	6.940280979065573	-8.448550384311474	-2.7203110383278686
O	3.434564469065573	-8.733595784311476	-4.140607178327868
O	0.2731301490655734	-9.352543064311474	-2.1295640383278687
O	-2.3115515709344265	-10.855601464311475	-4.555060448327868
O	-5.7772942509344265	-9.712828964311475	-3.4304305183278685
O	-10.948225230934426	-10.448682864311476	-6.084364798327869
O	-9.506501830934425	1.0531042256885248	-9.083194548327867
O	-8.141020750934427	4.128445405688525	-10.756209148327867
O	-4.402561520934427	3.3699250956885245	-10.400539348327868
O	8.047072019065574	-12.779909664311475	-3.8794132583278684
