32

O	10.16931430138164	7.949240758935143	-0.42607741539874805
O	8.98930602650043	8.62251680408747	-0.10605765152371938
O	10.397621454985465	6.877814799571707	-1.3553486592396562
O	9.369600924383635	6.305507645227188	-1.78065047963803
O	17.690103859166978	6.839280344480591	5.725188541395244
O	7.972366404831626	8.140770651667484	0.8141164151391926
O	8.3337816546585	7.447698799814611	2.066105811726117
O	7.111814067503692	7.56767401027572	2.9414242955704744
O	6.826518125205929	8.902912874155028	3.2556934077889577
O	6.110263625359449	6.924802144877168	2.4934278694156973
O	17.933836421919533	6.960709883282985	3.4236248816673847
O	10.066599948429012	10.80715153233992	-0.25373681402768233
O	17.263789044779877	6.513203178722652	4.394408898307312
O	7.85647826507612	10.67315481232493	0.11002944618134664
O	16.252415730272897	5.519826129255137	4.290894527393315
O	16.175495972288658	4.828904410189752	3.0406526916133965
O	17.221585018643637	5.213548735348073	2.0788145992548905
O	15.120500294611995	4.214322126896452	2.717975652380824
O	16.69017410549205	5.048280819015919	0.7277849346522531
O	17.14516938291456	5.672933480929588	-0.33303708597155024
O	18.149757023105874	6.68505728121945	-0.08582330714660247
O	17.82099920191535	6.5394424155934825	2.2628739273387253
O	18.276906141139598	7.2011074385694425	1.0762077152483949
O	16.869068854372795	5.069332597564721	-1.6479096693256232
O	15.57049974995732	4.474115359973541	-1.763190076213291
O	11.736272741967287	6.252010878688418	-1.3602890631637445
O	11.949364363209511	4.8956602521604715	-1.4713736192854943
O	13.182527765047793	4.32118798289228	-1.7579568664750023
O	14.315009966815856	5.110886244961751	-1.7199173314886713
O	14.082788419765997	6.428749991838279	-1.9994625020663617
O	12.874563944752941	6.983318917400646	-1.5895742039470524
O	8.923293239176623	10.081155570998995	-0.13207087312097748
