28

O	15.127879628857007	3.068559400928231	-3.408423677643462
O	14.627701931277851	3.923618984145936	-2.3277470896027963
O	15.675200482214805	4.539113593594317	-1.6138454930630468
O	15.704289647178904	4.5020209334902885	2.106206453100067
O	15.284660484408908	4.215772116077659	0.7073234498241313
O	12.385232300924338	4.694595466183734	-1.7527108883880715
O	11.22015568659878	4.423796624809265	-1.101860782274683
O	10.322187608559052	5.265538011995865	-0.5326784174036853
O	10.626312341845846	3.2443500105503746	-1.6180076397381478
O	18.749887642360598	7.2871968060623455	0.6142584813588221
O	9.261356871148296	2.9808871770870495	-1.427086607648501
O	11.564218285786719	2.2419702942571464	-1.3604636897752655
O	18.05083775056395	7.413522719487106	3.0743732502523025
O	11.034024996344554	0.979046352150486	-1.346845418299068
O	12.760261477266726	2.503755921112078	-1.9568457785375037
O	15.652965147810537	7.471873613441404	3.442034817258666
O	13.346132415111198	3.725378188888497	-1.7794271199201108
O	16.907224892281377	5.534372008307923	3.6559174648259223
O	17.029340964956848	6.939211086642533	3.728712502543054
O	11.999377779494575	0.024517161354811634	-1.0287985053528588
O	17.118045587092002	6.0311554439339705	1.3267781258587013
O	8.962451448495528	1.93227047305085	-0.5063865538454687
O	18.08850297513516	6.78983148336364	1.8582921576589557
O	9.334390392652558	4.663023073860488	0.26180276208489583
O	16.456989010763	6.089741260598539	0.02596256141929626
O	15.36469298931131	5.081304360887901	-0.2477204320461731
O	16.822938274403985	4.998146252190294	2.292471609542259
O	17.592373118665094	6.015051956319245	-1.0091583083857105
