27

O	14.983855874394278	4.728399138954335	-3.7661510420265767
O	14.752518088881288	4.371679760095418	-2.3904532566661456
O	15.88997281774507	4.328759525324241	-1.5219946103261133
O	14.678269389682752	4.9363385723682605	0.5970289568254483
O	12.604258853273437	5.256388609268093	-1.8822781900471404
O	11.49670578076993	5.140970171759456	-1.0971747530171074
O	10.754186197695976	6.0697501747848905	-0.4772025396084196
O	10.797548812689145	3.969373714860236	-1.4319801947588857
O	18.918178792050092	7.575101913204392	0.555696609252429
O	9.432193428613495	3.834825477801199	-1.1517297178776733
O	11.659700392746714	2.920239472672932	-1.2559610387976667
O	18.35699488928683	7.350282191151154	2.8824511098498404
O	11.010115173137219	1.7226352694986011	-1.3182901248864625
O	12.819833687537356	3.0799637348353364	-1.9693587808639503
O	17.917786979481114	7.202817075312581	5.190704231571662
O	13.509801503499396	4.242276385527475	-1.7578165680745106
O	16.73411253940274	5.885867556579992	3.548785804137234
O	17.674590851821243	6.776026333500346	3.870295110941359
O	11.885763446700473	0.6381149901600223	-1.3655824111004167
O	17.067804691970125	6.293759621241793	1.242707293540642
O	9.119115063463283	2.840613122329795	-0.17779987690854998
O	18.11787418405818	7.083175168168263	1.6047027847935362
O	9.6891824913106	5.606517982184034	0.30638864383270137
O	16.781754140960313	6.089196806910573	-0.17349189620699734
O	15.516616048559666	5.423738500808455	-0.5148666912054404
O	15.32588657877853	4.73640007898536	1.9223439704767766
O	16.41601521856981	5.707163972453103	2.2659730286416253
