48

O	22.800904591183148	7.470165514429972	-17.958714208716202
O	22.46535760096824	5.882332830862318	-10.125317476745515
O	23.244334304054796	3.8248927003773074	-8.949741526731417
O	23.016821284789287	8.603708054271394	-14.318664360126853
O	20.100390931758074	1.9415014775098225	-5.16900481712296
O	25.53274381064968	13.069923646721296	-14.525391460876337
O	19.916517451552302	2.931470552139279	-4.127508615612288
O	21.71430582528133	6.1489401270152335	-8.92607681508573
O	24.56329776907441	3.691916567364804	-9.595843419306954
O	22.518203696209973	8.622867902769856	-18.833065069956703
O	24.63588733328737	12.522844535485765	-15.344297617011598
O	23.415210955038784	7.807003816975092	-15.526575992476616
O	19.109762647025665	1.3688858662233123	-6.1185069697921195
O	20.162584584961674	2.695456742295957	-2.686859806258112
O	24.114262346403248	6.14864048535903	-9.778091681222069
O	22.348969124521233	7.872834311911035	-16.40370985554957
O	18.005746325625843	0.7573562905202547	-5.589458507853754
O	23.667346524363943	5.178572454730048	-7.965216642031385
O	24.446180115254815	7.243997154920695	-18.10303353439283
O	23.46884869462366	6.407598432627182	-14.983330878745605
O	19.87679522880979	0.7942187859640377	-7.225207486865103
O	19.933689992814525	3.813604992978475	-1.7918880866862423
O	24.318735672579432	11.241488627874045	-15.216794017146967
O	22.22453952300991	4.158653698842957	-10.143373690564957
O	23.072222375921115	5.407708137592608	-15.851992001278049
O	19.91945608372971	0.3399261800087041	-8.568863624906518
O	21.844659245604817	6.236708139181182	-18.515849383388638
O	24.46096320656401	10.591180698014023	-14.069834332984568
O	22.541869762533114	6.420597108354826	-13.818863142358463
O	21.12360517733146	1.5878189099485391	-7.1786405184767315
O	19.500918647165843	5.02770424426136	-2.157937408610617
O	22.508535301994662	7.716256538608537	-13.412691228928292
O	21.166948544835765	2.272889284539752	-6.020998956726629
O	25.299910073101817	11.12844025599541	-13.132284109385683
O	22.906525189025448	5.389983426841303	-12.695121344832222
O	21.527694684778847	2.147376869729622	-8.609011467862704
O	19.642530321051744	5.311175872846053	-3.562983258737548
O	22.286106551645915	5.812037394877749	-11.56990969748354
O	22.470976598700403	2.88825136620161	-7.978194982922452
O	25.821782355130487	12.38164722479677	-13.393569447759337
O	19.72737648186198	4.3331233085953595	-4.423217252949254
O	26.76613606103065	12.962449502510072	-12.524096910467634
O	20.14390082077895	3.791199722523621	-0.3254408501211081
O	25.516966989952223	10.169431288601931	-12.20495656513594
O	19.627072438541468	2.709665603320544	0.47439076194337204
O	20.369486437662427	4.76340426244898	0.4081531547272501
O	24.758722529011425	9.106674969377059	-12.56836766443039
O	24.069747665399447	9.3600807066732	-13.697617344375438
