31

O	15.575977539814515	31.59152903145706	83.92398907484623
O	15.849870151490352	31.62924328744128	90.8159025834165
O	17.026537447050988	32.28972287869135	90.45122973928362
O	16.42170581680259	33.642237413223405	92.04493192073734
O	14.215697961494197	32.41609620541424	87.14018361910846
O	16.67775047039001	33.20323248872057	87.99229914386994
O	19.617837574064815	31.608352812325165	85.54027613738783
O	18.562254420744605	31.83151889213737	86.57612797928952
O	21.32139883440643	29.387499841479574	82.37154398648102
O	19.241084592265906	28.82018787258997	81.81690367443659
O	18.724517500203252	30.85661296798935	84.61710993928578
O	20.777069221180646	30.341224013982373	83.38663450875893
O	18.52266450535678	29.82300373458017	82.62432124768289
O	14.865194956565276	32.17351754360196	91.64164225562868
O	15.324130037287016	33.07258576112199	92.57084042060923
O	17.138841610150045	33.62444731452751	90.90450824200988
O	15.334298427766875	32.03440942775352	86.40439942630532
O	16.775548158441612	34.76085293357994	90.16435261750082
O	15.297588524019542	31.26227946648074	85.24407441926311
O	20.44059513428125	28.363650268594824	82.2500377382613
O	17.50306270069965	32.455000268080916	85.95641169220036
O	16.525454615781417	32.303585598404325	86.9918249298895
O	19.407377644498396	30.49796448662882	83.47337472709161
O	14.313835351572806	33.55694289834222	93.82346340465881
O	14.431103214897206	34.876958151883684	90.31440949215484
O	13.234626535943825	34.624541438932155	89.79819166121344
O	13.137797930945407	33.716693309098126	88.82792765769715
O	14.25522507109384	33.18418060148437	88.27144854171411
O	15.528725413235986	33.501004556973776	88.67391121069105
O	15.500668928919831	34.41269074841176	89.67137003287554
O	13.62427553649026	31.954599034466256	91.25079736273852
