91

O	-0.8670819363703706	0.9543295331574079	-2.1376854659629636
O	0.1913859106296294	2.277106507157408	-2.343800304962963
O	-2.0023361003703704	1.593187334857408	-2.2792417889629633
O	-3.4397354393703705	1.7469478471574078	-4.583229387962963
O	-2.338786449370371	-0.8511814928425923	-3.8341161479629635
O	-2.920373869370371	1.4303117653574078	-3.410976627962963
O	-4.594905709370371	1.663897103157408	-7.190777467962964
O	-3.6451612093703707	0.5582667041574079	-2.6981788729629637
O	-0.8359177893703706	-0.6750691828425921	-0.6586399379629635
O	-2.520286279370371	-0.5132783128425922	-2.5856549749629636
O	0.42287361062962936	-0.3814931728425921	1.5726096220370367
O	-1.8362228483703706	-0.19849622284259216	-1.3469934509629635
O	-1.6260574663703706	0.4526347171574079	0.9152388420370363
O	-2.6673674493703707	0.8353839621574078	-1.0148215509629634
O	-2.9455473393703704	3.8180369671574077	-1.8846937637629635
O	0.3839724606296293	1.2437540521574078	-1.5020724409629636
O	0.9133887606296294	2.050889290157408	-0.5518194879629634
O	2.0491180606296293	2.0022953931574077	0.3930704320370364
O	-2.9518289493703707	2.242266763157408	-5.802181387962964
O	-3.3264703293703706	1.134378770157408	-6.8120637979629635
O	-4.837493989370371	1.0670178921574078	-8.514589407962964
O	-4.605074379370371	3.093542567157408	-7.439823207962964
O	-1.4006532863703707	-0.12359847284259207	-4.450759077962964
O	-0.5342684763703707	-0.35973735284259223	0.6278884320370366
O	0.10904731062962947	0.6447127701574079	2.5701514220370365
O	-0.46245967337037064	1.9064690141574079	2.055299462037037
O	-1.2311036281703707	1.776425836157408	0.8057861520370364
O	-2.132227893370371	2.593686317157408	0.05128882203703644
O	-3.2211223493703707	3.272823277157408	-0.6060976679629635
O	-1.6849265323703706	3.852216057157408	-1.5819935729629635
O	-0.5387121873703706	4.689627377157408	-1.4886526909629634
O	0.33300456062962946	5.221388307157408	-0.5282609279629635
O	0.5135053306296293	4.942503517157408	0.9007836920370365
O	-0.6470641143703706	4.039609427157408	1.0421509620370364
O	-1.2071291959703707	3.616142167157408	-0.13540817796296345
O	-3.6235732993703706	3.984641537157408	-3.1236961279629636
O	-4.814495349370371	1.4329932048574079	-4.924409947962963
O	13.64885833062963	-3.1139812128425923	-5.589605017962963
O	10.79415423062963	-0.7961442928425921	-6.504993007962963
O	8.744306430629628	-2.6589706828425923	-9.118052567962962
O	5.518235910629629	-0.7566013228425923	-9.510027747962964
O	4.036518340629629	2.575230767157408	-8.249195567962964
O	1.2250352906296293	2.517345287157408	-5.852271927962963
O	0.4197228006296294	6.211334747157408	-5.426490327962964
O	1.4540826106296292	9.697867577157407	-4.475306237962964
O	1.3201616006296293	10.467456637157408	-0.7291357379629635
O	1.6924562606296294	13.673411457157407	1.2198000220370366
O	5.267552830629629	12.962694557157407	2.322036622037036
O	6.378702630629629	10.962977377157408	-0.7302147579629634
O	5.57865783062963	8.404108707157407	-3.4430692279629636
O	4.74389929062963	4.852187047157408	-2.4784308479629633
O	5.881646340629629	1.8609726641574078	-4.491401847962964
O	5.111898130629629	-1.8616383728425923	-4.381801467962964
O	8.18734290062963	-4.056570232842592	-4.358807337962963
O	10.02740193062963	-7.081179552842592	-3.2362867079629636
O	6.463957750629629	-8.232688762842592	-0.6965797979629635
O	6.87513589062963	-4.686115762842593	0.6558451020370366
O	5.601313270629629	-1.120109002842592	0.23282992203703645
O	8.410248730629629	1.379004340157408	-0.24186561796296346
O	7.753737550629629	5.049325627157408	0.42461887203703674
O	2.290159890629629	-1.0804532028425922	11.119054662037037
O	5.973377130629629	-1.5025603928425924	11.825074462037037
O	7.39905829062963	-1.829005522842592	5.379802292037036
O	5.324609910629629	-4.982749872842592	4.9245375520370365
O	2.900184610629629	-4.626656352842592	2.0407918920370367
O	-2.4237134293703706	-6.588991542842592	0.04513068203703652
O	-5.95334319937037	-5.135218972842592	0.6995777220370367
O	-4.881526799370371	-1.2720692128425923	0.3623042020370366
O	-6.237459679370371	1.4243449306574079	2.781748662037036
O	-9.446801789370372	1.375028407157408	4.677338492037037
O	-10.792374069370371	4.573398567157408	3.0211720820370367
O	-10.61149343937037	3.0910206871574077	-0.5445455579629634
O	-11.781257669370369	-0.22771732284259216	0.8541349920370365
O	-15.02693256937037	1.1143815971574078	2.355549592037036
O	-6.26983289937037	6.886671867157408	4.339798052037036
O	-3.6243845493703706	6.0301484571574075	6.946514392037037
O	-5.35575649937037	2.8478721571574077	8.285994762037037
O	-4.484730169370371	-0.24708023284259206	6.178339022037036
O	-6.273715649370371	-3.5699229528425924	5.6645881520370365
O	-4.18015081937037	-6.705481772842592	6.359213992037037
O	-7.381344869370371	-8.713102342842593	5.806112672037036
O	-11.04258415937037	-7.572265422842593	5.891745972037036
O	0.5941852506296295	3.470495487157408	9.339659262037037
O	2.4834437706296293	6.721563427157408	8.760990362037036
O	-15.690696969370372	7.218694227157408	2.614435092037036
O	-6.201834459370371	-7.094473922842592	-5.089124337962963
O	-4.979604419370371	-10.187153542842593	-6.900928667962964
O	-4.790941699370371	-8.583735842842593	-10.328655527962963
O	-4.23382038937037	-5.300260182842592	-8.408198627962964
O	-1.0447854733703705	-6.326208652842593	-6.4234080579629635
O	0.6090399306296295	-9.458430142842593	-7.920343027962963
