31

O	15.888592651517248	31.599560519515514	84.01505764968728
O	15.559336932277567	31.99979521535871	91.69145745919394
O	16.63714308437568	32.326980140994884	90.8627371243665
O	16.911061690356977	33.87107553572314	92.34171156946292
O	14.27314209527125	32.45814835476389	87.08722142191412
O	16.707366592080568	33.086185387201255	88.14697442208167
O	19.867437158996	31.694187408958463	85.76036196609712
O	18.727620845720452	32.01532601244534	86.66420555994188
O	21.71777449627664	29.57354418855856	82.42207931302836
O	19.65501713225449	29.01719273839754	81.81514221840995
O	19.169649234713482	31.313202932236614	84.52244193361136
O	21.23326279348155	30.59373248992395	83.39364439991452
O	19.036978144504715	30.05707293380517	82.65717213732067
O	14.965558961523625	32.84708687367103	92.62751292983386
O	15.906110146527935	33.60725375891847	93.26428280033724
O	17.145373520035427	33.65360469727124	91.03208141939437
O	15.407688409351177	32.03769880301213	86.43796965148883
O	16.737708761548607	34.72030070897866	90.23754687029917
O	15.393498058229927	31.27126899289307	85.2681586143702
O	20.827618796745664	28.561305845957772	82.32740257842336
O	17.60574159190243	32.47989911995366	85.99733650553405
O	16.588070430447896	32.41248838814171	86.97928556298844
O	19.88831507926527	30.441606162340484	83.70357956396579
O	15.529000522734112	33.73793506246718	94.91586681834664
O	14.399005970558274	34.86305641551489	90.25098098440125
O	13.197795422016878	34.48356827576387	89.83167836026017
O	13.138680175488917	33.65085105270627	88.80289921354932
O	14.281755644039768	33.199444085082774	88.22979973257868
O	15.5334182517213	33.367574594973036	88.7805346357743
O	15.49687429617753	34.34250753400506	89.72213447071694
O	13.716518892925643	33.32831346282284	92.7224001701934
