35

O	20.09371719515557	31.830288471109	84.4658662227855
O	20.318485450872085	30.866652162504344	85.43679890534702
O	19.24727295682881	30.09807551997701	85.75983703931588
O	20.09140506878439	31.659008219768516	86.66149778711619
O	20.773389422896933	32.85065098274699	86.49005937623392
O	19.555762696688156	33.42213000472214	85.82352554262208
O	18.52288117346305	33.02348257101964	86.6550588702554
O	18.844372393594128	31.73023942305612	87.21008492994487
O	17.39003458201227	33.404574311144806	87.25763579055923
O	16.730095922613067	33.802558123067385	88.17816370593806
O	15.437461948844415	34.13538000496117	87.74724890699474
O	14.529254056843241	33.437869398585484	88.56445413557769
O	14.979929592508233	32.20154704549971	88.05418836916051
O	15.60250584619225	31.96697966810085	86.8778362503028
O	15.637751958607765	32.443748127928	85.54207215373678
O	16.753549670410102	32.246822027692886	84.59753313284088
O	17.25137161101684	30.990261519310657	84.54932255028675
O	16.304610946884527	30.180241296380483	85.22361644019115
O	16.215104889563655	30.766639664577735	86.48068912406855
O	17.517157918104907	30.321009427544922	83.32985551888575
O	17.889537282465493	29.014990364412377	83.26800489897867
O	18.90529559267319	28.39243236496057	82.39049685525458
O	20.032364973592372	29.333473834138978	82.35581547172423
O	21.1892964007519	28.8093816567916	81.70104757531227
O	19.36798795182521	30.377714397297083	81.63321479469522
O	18.1954989328211	30.969347990459518	82.33198293002148
O	14.851899710644814	33.91637741629444	89.871953735788
O	15.003501951925891	35.064576479066034	90.54179023147934
O	16.447695788615075	35.38581170929844	90.59417142430905
O	17.1585063191658	34.1915180923573	90.44610711202999
O	18.49384244867602	33.96193981987401	90.20026939961001
O	19.455243305831644	34.180718719433656	89.09164578759712
O	18.72122393415082	32.48974842451357	89.77777739628424
O	16.173199058068462	33.403672463259035	89.77985760277066
O	16.68402612342251	32.56398838376317	88.90620118717311
