31

O	22.236259880759892	34.04979989127268	89.48137704650624
O	25.020257117282142	33.89934604915119	89.19350410426651
O	25.781005746135545	35.46409061272713	91.29526845986045
O	21.879481128116502	31.802563794170084	88.38430233817
O	21.246688912222623	32.7965019743909	89.16020809196304
O	20.805306295506792	31.329215144982268	87.46484177215441
O	19.67392552336866	31.227281307686553	88.29399581463144
O	20.52894588153121	32.473748062141624	86.49365805775342
O	21.3771191809262	32.29696962243362	85.41835893765376
O	19.0672985350038	32.161035232847404	86.18811998591113
O	18.94998387515396	31.131725322077664	85.27554884270081
O	18.6678257119841	31.561257088525213	87.49888314061359
O	13.996828646311123	32.74236840608614	88.5442419651796
O	21.867200683857476	35.45714391155796	89.27235145659492
O	25.670911875193518	35.138247159853314	88.58541243768887
O	25.968127611381174	36.48438144834948	90.24473867633445
O	14.443108450761777	31.809195809050266	87.72291637216493
O	22.506476672523963	34.01741527543067	91.17101762840397
O	26.28351838762047	32.8816137555667	88.91936187708379
O	25.062625951508764	36.20924423253351	92.50212237585976
O	15.75021246974266	31.597525262905684	87.68677284714214
O	24.577679408583286	34.39096617422509	90.77290916283245
O	23.585536641273716	33.71621982970918	88.55334843692425
O	27.105061420111475	34.56663853704504	90.88192568529081
O	16.591414273097943	32.495694806929485	88.18223031401273
O	16.158335436617783	33.4518622382925	89.05253854516543
O	14.813791984964768	33.640365928629244	89.06859737034772
O	14.301162040184476	34.67794361464623	89.83013334769082
O	17.19409396491478	34.15551182691688	89.47169890710218
O	18.265909222299776	33.59614561888916	88.92316181170034
O	17.907391477083063	32.543700547000356	88.2096494803971
