29

O	22.19103863638935	34.194768313865765	88.54682367971715
O	22.034374026962595	33.17450101846389	87.67131101287784
O	21.10847882961629	32.86101684309737	86.78383092756566
O	20.487012544068996	31.557114369471428	86.79290146228011
O	19.12796104967217	31.16726332646077	86.5086258719821
O	18.18912825788713	32.16416463734968	86.25912935187085
O	18.817458009495375	33.278744839453786	85.7761827183969
O	20.132144468259376	33.69887084969075	86.17273056988715
O	16.87981274417566	32.21801147432058	86.74482917781653
O	16.238448701564128	31.596333835314997	85.7900551231487
O	15.007882344489591	31.076022833270933	86.0518763511517
O	14.15066960959355	31.886797204138578	86.74294467810468
O	14.689048646688956	32.68840142901821	87.67496825924545
O	15.960628211927101	33.015840894997545	87.23704264583587
O	14.231441475555577	32.70875269491246	89.04179541791655
O	15.446561917543862	32.93940652454807	89.69203526575542
O	16.763682784913165	32.300911177945125	89.12964156894648
O	17.823031737732464	33.23231269391284	89.03100757984832
O	17.280421305198967	34.359660590412716	88.56106745327597
O	18.344614142388806	35.18024213202036	88.49811502054285
O	19.36799244920894	34.601042338673324	89.08947902945151
O	19.10091779582493	33.26827285162666	88.91139804059895
O	20.01116634944073	32.57633167350981	89.88651769044789
O	20.465460858811095	33.582987414642034	90.9513785581071
O	19.23848578694279	34.362018378347464	91.33404164577975
O	18.34481644897087	33.21301198587575	91.30143620474117
O	19.038187047015704	31.987298279023612	90.6831064248359
O	16.34159085320331	34.95702646807596	89.87541236229578
O	15.401283987374814	34.067708203509426	90.24491398122332
