107

O	-3.321626799442647	-1.8909376436102936	2.3474794331764706
O	-4.167123799442647	4.254161666389706	2.5364747031764705
O	-4.867256639442647	4.366801096389706	1.3017560431764705
O	-0.3234820578426471	1.1058899107597062	0.8178581731764705
O	-3.250753649442647	3.1793327063897063	2.7399690331764703
O	-1.111628845442647	1.2979057813897064	1.9516140231764707
O	-3.771181979442647	2.3835991963897065	0.6904449631764706
O	-1.6546810894426471	-0.8422844536102938	0.39185087917647055
O	2.065100350557353	-3.324224803610294	-2.009223826823529
O	1.7491634905573528	-2.078435843610294	0.6941216831764705
O	-4.166706769442647	3.6287502163897063	0.3426153781764706
O	-0.4955556974426471	-0.17161934361029374	0.24018439017647053
O	-3.807309779442647	2.1183255563897063	2.0316429531764704
O	-2.271530439442647	0.5952195433897063	1.9796408231764704
O	-2.164569169442647	-0.7336150436102937	1.7012691231764707
O	2.595783670557353	-3.0403029136102937	0.08902024417647059
O	0.8846759705573529	-1.7746771136102937	-0.34316913872352944
O	2.629155370557353	-1.1262237336102938	0.029137529176470556
O	3.970463250557353	-0.8236655236102937	0.39826864117647054
O	5.203411700557353	-1.4139841836102938	-0.2861876118235295
O	4.664605190557353	-0.9953775936102938	1.6732602931764706
O	4.487549030557353	-2.433498023610294	1.7912050931764707
O	8.491227970557352	-2.2536897136102936	2.1769218631764704
O	7.393272290557353	-2.3958915836102936	-0.5877555018235294
O	7.953584220557353	-3.703599293610294	-0.020009001823529438
O	-4.8810858494426475	3.5922721163897062	-0.9619916468235294
O	2.598448830557353	-3.9026898336102933	-0.8265936928235295
O	1.002735970557353	-2.4082279536102935	-1.4288986868235294
O	3.8586476305573534	-3.186817453610294	0.7764799331764705
O	0.46111645055735284	-0.4846363136102938	-0.6388881798235295
O	6.261730070557353	-2.1507509836102936	0.22351752817647053
O	4.674946320557353	-1.8800282636102938	-1.3494978188235294
O	10.305223770557353	-4.030286873610294	1.0717689131764705
O	9.980462270557354	-1.8957854936102936	0.1703513751764706
O	-3.556279749442647	0.8797805243897063	2.3609157531764704
O	9.298381770557352	-2.997213133610294	0.8509686631764706
O	-6.009304509442647	2.961990236389706	-0.5540449568235295
O	-4.868808309442647	4.843861336389706	-1.2863634938235293
O	-4.283895429442647	2.6470942063897063	-1.7101269268235295
O	-9.478708019442648	-11.543425773610293	5.129315273176471
O	4.770553100557353	-9.144041773610294	6.3325319531764706
O	5.632380250557353	-6.890223513610294	3.6146391931764708
O	7.190599950557353	-4.120520383610294	5.571463653176471
O	7.156868120557353	-1.6004691536102937	8.217072813176472
O	5.606304970557353	1.6250151953897063	7.134139773176471
O	5.541588050557353	4.980912536389706	8.92825563317647
O	1.8453341205573528	4.830725246389706	9.90184597317647
O	1.6880422805573527	1.0715133758897062	10.42282487317647
O	2.822400170557353	-2.373601253610294	9.30560568317647
O	1.774290210557353	-3.613362383610294	5.858591243176471
O	0.9753188305573529	-7.310113553610293	5.39687192317647
O	0.3717246075573529	-9.468033273610294	2.3385908031764706
O	-2.793193059442647	-11.455977873610294	2.4358951731764704
O	-5.887787789442647	-12.872547273610294	0.8389514931764706
O	-4.563393859442647	-10.974444373610293	-3.0802927068235295
O	-4.389458729442647	-7.778868813610293	-0.9807816388235294
O	-1.969163549442647	-5.582333213610294	0.9975185231764705
O	-3.331112269442647	-5.014250033610294	4.55671020317647
O	-2.021500669442647	-2.084628413610294	6.585703803176471
O	-2.668720949442647	-2.0914619336102938	10.29519787317647
O	-2.310440239442647	1.2583755923897062	12.03458937317647
O	-0.2777061823426471	1.7487796603897063	15.230621673176472
O	-9.482269869442646	7.015815046389706	-0.2548185398235295
O	-11.890821229442647	4.4948259763897065	-1.7964076468235295
O	-10.461386729442648	7.7651418563897066	-6.348035346823529
O	-3.563816279442647	6.1297981763897065	-7.9447756968235295
O	-4.146648279442648	3.1888123263897064	-5.6399345968235295
O	-7.774642749442647	2.6870173963897064	-4.533946176823529
O	-8.803734479442648	1.5081017163897061	-0.9515858658235294
O	-10.985559529442646	-1.4258287236102936	-1.1772767578235295
O	-12.154760829442647	-1.9470481136102937	2.3798669331764706
O	-6.988010669442647	-2.2198803936102935	9.111937143176469
O	-6.980503719442647	-0.7900031936102938	5.582521533176471
O	-7.292754219442647	-3.145535903610294	2.6506393631764706
O	-6.197631069442647	-2.5412926136102936	-0.8653958558235295
O	-5.174084389442647	-4.389462063610294	-3.9244679268235294
O	-1.681038179442647	-6.014426113610294	-3.7046088968235296
O	3.007300900557353	-7.7866715636102946	-6.9395757768235296
O	6.143747690557353	-5.786682753610294	-7.904831286823529
O	6.496666570557353	-3.8513940936102937	-4.555797646823529
O	7.536102030557353	-0.24520618361029367	-4.19433767682353
O	9.318484490557353	1.7857827203897063	-6.902005566823529
O	12.198726770557354	2.7307020263897064	-4.585354396823529
O	1.5385274105573528	15.105095626389707	2.2805069431764706
O	3.8440351205573533	12.080863626389707	1.9893040231764707
O	4.808232240557353	11.444175626389706	-1.6261888168235294
O	8.092035460557353	9.553803296389706	-1.9583995568235295
O	9.441632730557354	6.724907416389707	-4.093876546823529
O	8.611167920557353	4.360934686389706	-1.1890313008235296
O	4.934151290557353	5.396420796389706	-1.6711215068235294
O	4.788474790557353	4.683414706389707	-5.36777212682353
O	3.986472890557353	1.0697979763897063	-6.137033586823529
O	4.647448600557353	-0.9888050236102939	-9.245641756823531
O	1.6145441405573528	-2.728654533610294	-10.76913622682353
O	3.8441565305573526	-3.7229827436102934	-13.71070412682353
O	2.625494500557353	0.9566601193897063	-14.837048426823529
O	3.160145850557353	2.684901866389706	-11.44880782682353
O	0.6879619085573528	4.039462506389706	-8.884365676823528
O	0.6491927095573529	6.400893616389706	-5.9327906768235295
O	-0.511405635442647	5.128062816389706	-2.5354667968235294
O	-0.7378719604426471	6.320718176389707	1.0416355031764706
O	-2.406539879442647	9.699711086389707	0.3985944251764706
O	-4.576296299442647	11.077463226389707	3.1570425231764707
O	-3.070753519442647	9.079650206389706	6.01539912317647
O	-0.7415576414426471	11.888660626389706	6.991326553176471
O	4.870367710557353	-12.845079773610294	-3.2261122368235293
O	3.092797550557353	-16.169660073610295	-3.8079837768235296
