39

O	18.97167848555689	34.205266353069945	85.78257153393817
O	19.15311346606925	33.466316222911615	87.01125188096111
O	19.687720785601293	32.00313145512867	86.81933665696839
O	18.282026478585824	33.785518009921866	88.10948497564539
O	17.92253179893107	32.631376609556085	88.6184694787461
O	16.661569332800624	32.558304387175966	87.95346302547212
O	16.320353016484958	33.330026329165264	89.0642131244412
O	17.07099502442014	34.27527000145844	88.34462114022445
O	15.752268843681284	34.38922529766013	87.52930608889253
O	14.470239170415617	34.340276129460094	88.30077542438387
O	14.009694275024035	33.29940432441064	88.96343241051123
O	15.153311370944806	32.8505082337366	89.62102714370782
O	14.174247684433354	35.17184776336848	89.4311011071503
O	14.594978001815045	35.23459295756741	90.76143575375923
O	14.681726035979418	36.40506152932774	91.39701161349326
O	14.66826477574806	36.56628280532279	92.78704180672376
O	15.444468857926987	35.63418377739283	93.40492522994114
O	15.898768553330763	34.62619537469699	92.65054653145235
O	15.245875812830857	34.37330073886235	91.51825689439265
O	17.356521137313056	34.272936913218444	92.54823229761149
O	18.281412969622494	35.07333785461684	93.16212777725917
O	18.822024329719376	35.639442327003366	92.09129651988978
O	18.941532397104442	34.80071608959422	91.01966570597747
O	18.130041591694056	33.87271086343713	91.51712389972327
O	20.332245399919554	34.417191572212815	90.11481571258261
O	21.412698976932223	35.029294856800036	90.73882424837932
O	20.541580814048682	32.94855391657898	90.19637780329185
O	20.614942573903015	34.56824627261833	88.435050080234
O	21.73763717533184	33.82165169096797	87.66004830149939
O	21.34477674046355	35.06273017195931	87.36297977652094
O	16.182239006660208	32.226332005929706	86.5612463015533
O	15.88654148795636	31.100554789577412	86.85932988471974
O	16.80678632787865	32.16347010848089	85.26620634326763
O	17.561003631382793	31.571411727293963	84.30857929118912
O	16.934088102046655	31.564023311208686	82.9417427114102
O	17.719868593856113	30.635812483223962	82.0707131755642
O	19.039238716328402	30.895480528850417	81.80293757022709
O	19.664155560568567	30.860612936867888	83.06434729311434
O	18.90191748928018	31.90391533557833	83.79755806303751
