31

O	22.225164191193617	33.87872611617602	91.54785774539934
O	24.80965028953772	34.53843700842524	91.00827846052982
O	25.327862245071135	36.1422804419979	93.06579490067459
O	21.87126445567433	31.90741594587964	90.07421540801357
O	21.178181302216053	32.77261301291447	90.89074702023333
O	21.08800273550125	31.70406236836336	88.83975570124076
O	19.821485044758383	31.353952962722634	89.27346675974482
O	20.99828449835864	33.06966948058612	88.1676733540148
O	22.011368340266817	33.31284907805337	87.27449058380138
O	19.614835533449693	33.055193599738615	87.63205476040604
O	19.451547989899648	32.884969820944846	86.28439089100857
O	18.94586551557259	32.030322957366394	88.48697925965772
O	14.03976177583882	33.08935589547506	89.09146846972456
O	21.72026941220668	35.269764940037966	91.19215532156429
O	24.758049839211054	35.92027545843537	90.51353344965314
O	24.164807228729913	36.82296685494462	92.49056209824869
O	14.632763710751913	32.12669961400215	88.40665817922525
O	22.429217938099537	33.921658058077185	93.17145463315197
O	26.198435722447357	33.845070667656714	90.4723974644074
O	25.418711753102407	36.24477778405391	94.61445978295511
O	15.947371407509257	32.03487538451786	88.29988274273123
O	24.80062079736757	34.477939512118304	92.73966329791308
O	23.522188016840303	33.76378003806408	90.57170163076908
O	26.580094829948756	36.45830473386562	92.01146336144095
O	16.708663940618006	32.803669358215316	89.05900454269964
O	16.125480492552146	33.693248706575474	89.91119239156451
O	14.773916872813393	33.87239620288782	89.8749025459206
O	14.084298970417855	34.71570294928479	90.7704948692197
O	17.125510768764883	34.34601513920083	90.49548118193078
O	18.28972820283738	33.80729322402471	90.03056682868674
O	18.008364111604173	32.746200833778836	89.3014007317914
