103

O	2.1638510368999992	8.160549812432857	-7.333319627637142
O	2.181462296899999	-3.0811976775671432	-1.1941691623371424
O	-1.2570006991000007	-6.229362967567143	0.2840750623628576
O	-1.6334344461000008	-4.998070027567143	0.7133503923628575
O	-0.5600244741000007	-6.023293817567143	-0.8487331096371424
O	-0.7841130961000007	-3.9433455875671433	0.5793535423628575
O	0.3465647468999994	-4.971504777567143	-0.9236155726371424
O	3.124564196899999	0.9342577324328567	-2.0219604496371426
O	1.1780912368999994	1.1636780894328567	-2.7245978376371425
O	2.5922383768999993	0.12276554243285687	-0.9861651696371425
O	0.8690136068999993	0.0719595324328568	-1.8483797466371423
O	-0.4716495211000007	1.0253559744328569	-0.35450459863714245
O	2.907872926899999	7.948840182432857	-6.043629517637143
O	3.8362301368999994	5.822220722432856	-5.387894057637142
O	2.166052056899999	6.639696092432857	-4.136276627637143
O	3.961978026899999	4.801582932432857	-4.374491027637142
O	2.281424806899999	5.477605932432857	-3.3032258076371424
O	2.838819376899999	3.062940732432857	-3.0858109576371424
O	2.4071965568999993	1.6010519074328569	-3.0139885976371428
O	1.4050218668999994	0.3564192824328567	-0.5456687146371425
O	-0.1597191701000007	-3.732363867567143	-0.5840005506371425
O	0.6657960668999993	-1.9513345375671431	0.5187897823628576
O	-0.37256666310000064	1.9913078924328567	0.9395882523628574
O	0.8173063268999993	1.6682828344328566	0.21811341236285764
O	0.9072217768999994	-2.764928237567143	-0.6030118796371424
O	2.701123086899999	6.663748292432857	-5.455612527637143
O	2.857554756899999	4.241683652432857	-3.6593314776371426
O	-1.4197907531000007	-1.5453088275671434	1.7452743123628576
O	-1.6520219251000006	-0.6963640875671431	2.7488951023628574
O	-1.9221062431000009	0.6110766124328568	2.4010187123628577
O	-1.0674489311000006	1.0072678244328568	1.4157388823628576
O	-0.4350817961000007	0.05272109243285672	0.5974052723628576
O	-0.6302212441000007	-1.2746562975671434	0.7054713023628576
O	-15.192407303100001	0.6103516324328568	-3.7131901476371425
O	-13.3729487031	2.429734147432857	-6.465297337637143
O	-9.7892015631	2.5281671014328566	-7.611391527637142
O	-4.997682043100001	6.404972352432857	-8.173929367637143
O	-2.3509876531000007	3.8576557924328565	-8.907861787637142
O	-0.14045915910000073	3.129131822432857	-6.417521947637143
O	2.4941611368999994	0.6466870024328568	-8.101990427637142
O	3.4267719768999996	-2.531102617567143	-9.518020697637143
O	3.9957449168999988	-5.136471247567143	-6.877719307637143
O	5.337366136899999	-8.655847297567144	-7.583441037637142
O	1.916455706899999	-10.362153697567143	-7.467241307637142
O	-0.19799212010000067	-7.500305837567144	-8.837999527637143
O	-0.8137162331000007	-3.7798331675671433	-9.140743317637144
O	-1.9673674431000006	-1.6947073775671433	-6.264829597637142
O	-4.5224530731	1.1455669464328566	-6.309177277637142
O	-5.314058893100001	3.924247552432857	-3.6923371576371427
O	-8.9726196231	4.237402692432857	-3.2880459676371423
O	-12.082133503100001	4.812498092432857	-1.2692728096371424
O	-14.4060188031	2.209321096432857	0.15536001236285757
O	-9.414496493100001	5.255081312432857	2.3891225723628575
O	-8.1507081731	1.8528831191328567	1.2882417623628575
O	-5.5736160231000005	0.22376745243285678	-0.8071144446371424
O	-6.6567990331	-2.1761008875671433	-3.4631384676371426
O	-4.300030453100001	-4.704884357567143	-5.026669507637143
O	-5.514719823100001	-6.463871527567143	-8.215189127637142
O	-3.8314274531000008	-9.794990397567142	-9.015172107637142
O	-2.3249487531000006	-10.639288297567143	-12.399158117637143
O	-1.970144393100001	-5.643217647567143	8.683023632362858
O	-5.4327743031	-7.209538637567142	8.242764722362857
O	-7.416040133100001	-7.870592117567144	5.003336902362857
O	-10.801256933100001	-6.136038497567142	5.139176992362858
O	-8.1081622431	-7.508300367567143	-2.3033210776371424
O	-9.0865860231	-4.545099897567143	-0.03532843763714255
O	-7.2140797031	-3.298492747567143	3.1128304423628577
O	-6.901972893100001	-0.12775869756714342	5.251627992362858
O	-4.715567243100001	2.541819131432857	3.586205222362857
O	-0.7727570501000007	6.997110652432857	4.612650222362857
O	3.0512156668999992	6.932391352432857	5.162549922362858
O	3.890688126899999	4.190712262432856	2.6267163223628573
O	6.457054396899999	1.3153816024328568	2.931145552362857
O	9.361868596899999	1.4286592184328568	5.278329552362857
O	11.996239096899998	0.8865657104328567	2.5535647123628578
O	11.0946951969	4.134066192432857	0.7833751623628575
O	10.5422033969	5.864027572432857	4.0779022723628575
O	14.0766754969	5.1993532224328565	5.370604752362858
O	15.596181496899998	6.069992452432857	1.9997020823628575
O	11.5000575969	-3.729210387567143	3.9498395123628574
O	9.2743601969	-3.271608007567143	0.9173879823628575
O	6.6786491968999995	-5.330902567567143	2.7808481423628577
O	6.7613880668999995	-3.3887476575671434	6.135257682362857
O	4.353824726899999	-0.3681683475671431	6.086329242362858
O	4.274768786899999	2.797429723432857	8.083778492362857
O	0.9975403068999994	3.6030023524328567	9.877789982362858
O	2.8487908868999994	6.451500162432857	11.644199282362857
O	6.619535536899999	7.072551792432857	11.989387282362857
O	1.8813824768999994	-6.914384277567143	5.272908962362857
O	1.7914610068999992	-9.376357397567142	2.2217185623628577
O	1.9892946768999993	-12.622443097567142	4.066372302362858
O	0.3973117168999992	-15.705533297567142	2.4420019923628575
O	0.29485202689999934	-14.359894197567142	-1.1495867237371424
O	3.518615766899999	-16.126705297567145	-2.0486946166371425
O	18.9520235969	3.2277258024328566	5.0777742523628575
O	17.5655951969	1.2887801094328566	2.1384971023628574
O	4.735834616899999	14.642114702432856	2.8391622023628575
O	1.9662097968999994	12.176352002432857	2.2564743723628577
O	-0.7243572231000007	14.834518902432857	2.4412731823628575
O	-0.31758344610000067	16.122621202432857	-1.0842448759371424
O	0.9120197368999993	12.598494602432856	-1.8540133886371426
O	-2.098432313100001	10.496167412432857	-0.8092459566371424
O	-5.104331043100001	12.833743602432858	-0.6183439406371425
