92

O	0.7681089048225811	0.22412055775806494	-0.9007154970000004
O	-0.49329162517741887	0.3063355877580649	-0.19377815600000037
O	-1.2114806571774188	0.13530026775806503	0.9657963819999996
O	-1.2471676031774188	1.405962338158065	1.4523477419999997
O	-0.9555864261774188	1.609273460758065	-0.5486048960000004
O	-1.0353231321774188	-0.8699793722419351	1.8654824819999996
O	-1.7314478851774189	-0.6842954922419351	3.0718541019999996
O	-2.4746806251774185	0.485540888758065	3.295722322
O	-2.0603777051774186	1.6141860097580651	2.5683850319999997
O	3.3348196248225808	2.2348944617580653	-2.3570863980000003
O	3.775562214822581	2.880633007758065	-1.1191887820000004
O	3.627805454822581	4.293271817758065	-0.7705343377000003
O	3.9030320648225816	5.176240407758065	-1.9524992780000003
O	2.4036822648225815	3.3926740377580646	-2.7730034580000003
O	-0.07889991417741887	3.5247118377580646	0.6506370619999996
O	2.483249484822581	1.153531517758065	-2.0206760380000004
O	1.624796374822581	1.314762327008065	-1.1300653380000003
O	-0.42482798897741886	2.144832511758065	0.6213078719999997
O	3.486205234822581	4.363594197758065	-3.0716780380000004
O	-0.3453612726774189	-2.512057742241935	-1.2066311920000004
O	4.579989844822581	3.9441530177580653	-3.9210829580000004
O	5.209366234822581	4.809013057758065	-4.929317228
O	6.569115414822582	5.205481567758065	-4.427235938000001
O	5.353718304822581	3.094789477758065	-3.3728157880000005
O	1.5577802548225812	-2.7752619822419353	-2.570933688
O	2.7227223348225813	-2.2648339622419353	-3.0479021380000004
O	3.0986187348225815	-0.9558588322419348	-2.995806808
O	2.2792546948225807	-0.09038042224193488	-2.4405325980000003
O	1.1099139948225811	-0.621118382241935	-1.8850784980000004
O	0.7514347048225811	-1.958390362241935	-1.9000005780000002
O	6.000716554822581	-11.259406292241936	8.481157212
O	9.54275665482258	-5.522152512241935	6.655212561999999
O	12.418290204822581	-2.5133263022419348	2.133856292
O	10.701994504822581	0.839729157758065	2.278756562
O	8.305080814822581	1.625880764758065	-0.4817534780000004
O	7.350314804822581	5.163708507758065	0.5143134319999997
O	6.012001634822582	7.626052827758064	3.0158393419999996
O	2.2708714948225808	7.822674047758065	2.8728202119999997
O	-0.02188989317741885	10.292256557758066	4.5390497419999996
O	-1.153569268177419	7.9971573777580645	7.375256651999999
O	2.068356174822581	6.006254967758065	7.6905735019999995
O	5.026105084822581	4.463524957758065	5.9026881819999995
O	4.609977804822582	1.603905576758065	3.5521480219999995
O	7.078343794822581	-1.204053202241935	3.3343105319999995
O	7.624265274822581	-4.094133112241935	0.9617626719999995
O	7.950083474822581	-7.437825092241935	2.6547069519999997
O	7.283723054822581	-11.140378392241935	2.8664038819999997
O	3.093519774822581	-8.094877572241936	0.7869609319999996
O	2.936261644822581	-4.339305722241935	1.3636815319999998
O	2.985092654822581	-3.3924849622419355	5.028598411999999
O	1.748212334822581	0.00010110775806504435	6.171781341999999
O	2.742108354822581	1.071626494758065	9.689099601999999
O	0.6713905448225812	3.872907007758065	11.160271902
O	2.188493094822581	6.940116257758064	12.865750301999999
O	-11.190098995177419	-3.2737907622419353	4.933412801999999
O	-7.615892115177418	-3.874303132241935	-2.6386913880000002
O	-8.362481825177419	-6.0294653122419355	0.3582326919999995
O	-6.596322445177418	-5.8754792122419355	3.730566062
O	-5.254794735177419	-9.403837792241935	4.513873191999999
O	0.6332065838225811	-2.6263886522419346	10.998293102
O	-1.714158825177419	-3.3409274222419354	8.095884071999999
O	-0.8069689151774189	-6.154048692241935	5.687127681999999
O	-2.060841755177419	-6.423439792241935	2.121289702
O	-1.0478378151774188	-8.086233842241935	-1.1411369490000003
O	1.857048534822581	-6.339882802241935	-2.851332268
O	4.277815594822582	-5.052198602241935	-8.078928168000001
O	3.592686324822581	-2.112122412241935	-10.353113188
O	3.2460912548225815	0.497265456758065	-7.780595808000001
O	0.746846384822581	3.315105957758065	-7.729663358000001
O	-0.9851176131774189	4.599604017758065	-10.870359998000001
O	0.23419415182258108	8.178304107758064	-10.422329428000001
O	-9.05880028517742	10.024331007758065	0.025216598999999618
O	-6.451697465177419	10.061905047758065	-5.743831408000001
O	-4.160379495177419	8.568169177758065	-8.360754428
O	-1.6521912451774188	7.877957947758064	-5.547895368000001
O	-4.326001625177419	5.623558637758065	-4.065608238
O	-4.965482555177418	3.543713287758065	-7.1201549680000005
O	-2.5182766051774186	0.673203275758065	-7.524173978
O	-1.473578775177419	-1.267783712241935	-10.580482178
O	-1.7966449651774188	-5.055115652241935	-10.372691348
O	-0.9292267411774189	-5.213923292241935	-14.100888598000001
O	-5.894503145177419	-1.2960637822419352	-11.495516698000001
O	-7.308038325177419	-1.2977148422419351	-7.949470908
O	-8.379674125177418	1.206980573758065	-5.311701298000001
O	-6.6954510451774185	1.097556260758065	-1.8873955980000003
O	-6.722955935177419	3.080378427758065	1.3925529919999997
O	-10.28877346517742	3.5218577977580647	1.8670441119999999
O	-11.427780095177418	3.9008301077580647	5.468720111999999
O	-8.08594710517742	5.013451777758065	6.904875391999999
O	-9.11653787517742	8.664281147758064	6.686015371999999
O	10.494278604822581	-4.8432376222419355	-6.221063248000001
O	12.37178790482258	-8.210449132241935	-6.048571368000001
