95

O	-0.13099333981403488	4.072020967089474	3.4064746550070173
O	-0.9732336028140349	3.2193903070894736	2.845660515007017
O	4.626473322185966	-1.2218792529105262	2.7148517950070175
O	-2.463240477814035	-2.3695486629105265	2.5134692550070175
O	0.819946292185965	1.8350939870894738	2.585894945007017
O	-0.5310646206140349	1.9682074870894737	2.8025904650070173
O	-0.03354910681403489	-3.490554262910526	2.608207895007017
O	1.0490558521859652	3.6376992570894737	3.905162975007017
O	2.886305412185965	2.380660347089474	3.630245115007017
O	3.2461812021859653	-2.7754715529105263	2.316633555007017
O	1.5557291421859651	2.3440977370894736	3.5487402350070174
O	4.668613832185965	0.7105174319994736	1.499922675007017
O	3.062283852185965	3.3684412470894736	4.609366555007017
O	1.3599036121859651	0.9904027940894736	1.634961835007017
O	2.073313282185965	4.343987317089473	4.432490385007017
O	3.6677115421859647	1.1416099550894736	3.774610515007017
O	4.706411962185966	1.4092364890894737	2.733102755007017
O	4.196554402185965	-0.6530181029105263	1.706311765007017
O	3.1862072721859653	-1.1162781529105263	0.8579115560070172
O	0.750365932185965	-0.24018542691052636	2.124382475007017
O	-0.6680603163140348	-0.24014917791052637	2.3199334350070173
O	-0.9447027138140349	-1.4817120629105265	2.8836417550070172
O	0.13076699118596513	-2.2733450329105263	3.084000215007017
O	1.183339082185965	-1.8272375829105263	3.7487178350070174
O	1.461553362185965	-0.6161994029105263	3.259652145007017
O	-0.08800507481403486	-3.4389717829105266	1.230418225007017
O	1.0483688721859652	-4.148360542910527	1.072581765007017
O	1.293500072185965	-5.073953812910527	0.1051098640070171
O	0.6500031321859652	-4.659504052910527	-1.0570038609929828
O	-0.6196161050140349	-4.229442072910527	-0.8690458409929829
O	-1.018518286814035	-3.7225504129105267	0.32978146300701716
O	-1.489702349814035	-4.708960942910527	-1.944900194992983
O	3.1110418121859653	-2.5445319929105263	1.050338625007017
O	3.088706112185965	-2.5629279429105263	-0.4250387999929829
O	4.6727273921859656	-2.884695892910526	0.9523016950070172
O	-2.675874897814035	-4.366327902910527	-1.511266744992983
O	-1.7695531978140349	-6.014383512910527	-2.006040524992983
O	-0.7977269498140349	-4.652766502910526	-3.0835406749929826
O	-4.842937997814035	5.524986757089473	-14.443950484992984
O	-6.287670797814036	8.236357367089473	-8.956995454992983
O	-3.0131304278140347	10.105413097089473	-8.548511414992984
O	0.1567855021859651	9.479537407089474	-6.5442231749929825
O	3.545864532185965	11.863676537089473	-2.0031957449929827
O	5.804555852185965	8.963818117089474	-1.166718514992983
O	5.168509832185965	7.138223177089473	2.0312498250070172
O	8.018786392185966	4.6791092770894736	1.949864015007017
O	9.946474742185966	1.9624779870894735	0.25619209400701715
O	8.776753482185965	-1.3941387129105265	1.042201065007017
O	10.238922742185965	-4.824939582910527	0.23073236100701713
O	8.004701542185966	-5.582875312910526	-2.8237406349929826
O	7.402161202185965	-1.9934477829105264	-3.946830424992983
O	7.056843812185965	1.6199050200894736	-3.0506794349929827
O	3.972532422185965	2.9560342370894737	-1.423710424992983
O	2.5286097721859653	6.269470737089473	-2.050467494992983
O	-0.09213299381403489	8.488962377089473	-0.46993541499298286
O	-2.7370573878140347	9.766999897089473	-2.8311739349929828
O	-5.6596563278140355	6.199475317089473	-0.3154257249929829
O	-2.388631287814035	4.450968137089474	-0.2381963449929829
O	-1.0067052378140349	3.2415573970894735	-3.490267784992983
O	1.682871922185965	0.5492328560894736	-3.684904234992983
O	3.476637312185965	0.06784564908947366	-6.958034434992983
O	5.266294772185965	-3.202906782910526	-7.4906248649929825
O	8.838673692185965	-3.431991492910526	-8.762566194992983
O	-6.992823207814036	-9.575092462910527	-1.039188052992983
O	-10.073968457814034	-7.5901558429105265	-1.926917904992983
O	-6.999474557814034	-4.381689202910526	5.572745435007017
O	-8.841152377814035	-4.8495063429105265	2.3314746350070172
O	-7.641124237814035	-4.061082822910527	-1.150407244992983
O	-9.920318177814034	-1.6506688529105262	-2.858376414992983
O	-8.622962377814034	-1.6291565629105262	-6.381285874992983
O	-5.834066387814035	-2.2984665129105264	-8.788247514992984
O	-0.5365005857140349	-0.5338206329105263	-8.746780274992984
O	-2.5871870278140348	-1.3655390329105264	-5.756187294992983
O	-5.069617247814035	0.9302267190894736	-4.008326964992983
O	-6.203317427814035	0.6089937299894737	-0.3946404809929829
O	-7.6769305678140345	2.9168432670894737	2.1963431350070173
O	-5.002377457814035	5.146647097089473	3.718860545007017
O	-3.488252007814035	8.117215457089474	8.670832575007017
O	1.0258111521859652	4.849813037089473	9.661758225007016
O	2.5393376821859652	1.4887727640894735	10.652726315007016
O	5.0731373821859655	-4.842786062910527	13.159380115007016
O	5.871222102185966	-3.082267322910526	9.893114045007016
O	2.8669819421859652	-4.934841542910527	8.558959575007016
O	0.34306182218596515	-3.811596752910526	11.090790115007016
O	-1.1830843248140348	-0.4047378429105265	10.347613915007017
O	-2.849052937814035	2.0144894570894736	12.742901315007016
O	-6.356997037814034	3.1667021070894736	11.823353615007017
O	-2.000640777814035	-5.796811042910527	6.0303324350070175
O	0.14396428218596513	-7.535417702910527	3.4098234250070174
O	-0.4167109478140349	-12.869362362910527	-0.06947990239298289
O	2.216391632185965	-10.644978562910527	-1.756185824992983
O	5.079254972185964	-12.918086062910527	-0.6458679839929828
O	3.5683685521859654	-15.902569962910528	-2.5603104849929825
O	6.248299422185966	-12.936420762910526	-5.973676024992983
O	-0.5373298815140349	13.241598937089472	5.884781605007017
