86

O	-0.5918349547698412	1.089983902779365	-0.020900713706349883
O	1.7858499497301588	-2.3285441682206347	-0.17182267770634985
O	-4.245632080269841	0.399656931779365	0.9975370662936501
O	-0.21775461726984113	-1.2209464582206349	0.23019808129365016
O	-3.025017430269841	0.30778473477936497	0.2997123252936501
O	-1.9327085802698414	1.161260087779365	0.52550606629365
O	0.2602336757301589	0.0011914007793649706	-0.11104906170634987
O	1.5933723497301586	0.052427488779364984	-0.5129253327163499
O	2.360624019730159	1.1676486327793651	-0.5943136064063499
O	3.4826613597301583	1.165912971779365	-1.3710455377063497
O	5.894934199730159	1.712403841779365	-1.9012450837063497
O	7.2972665797301595	2.069443361779365	-1.64054768370635
O	4.637978759730159	2.025544941779365	-1.2560747337063498
O	3.7201172997301586	-0.05547883822063504	-2.02506077370635
O	3.4901657197301588	-1.149150428220635	-1.1790695957063497
O	2.1554742497301587	-1.198037468220635	-0.8026920517063498
O	0.5804785997301588	-2.294044258220635	0.45527339629365016
O	-2.4374819102698413	2.398100011779365	0.9816590962936501
O	-3.7231276602698413	2.520469451779365	1.55716412629365
O	-4.569554180269841	1.475198818779365	1.76627309629365
O	8.04008556973016	2.025752961779365	-2.94597540370635
O	5.907631329730159	0.563803747379365	-2.4857622237063497
O	-6.097790670269841	-0.07057650822063499	0.6100103962936502
O	-10.930717070269841	-8.907860948220636	-11.73891697370635
O	-7.667193280269841	-7.022367858220635	-11.17616917370635
O	3.8572879597301584	1.581697057779365	-10.48115059370635
O	5.12637334973016	1.402609380779365	-6.94871756370635
O	5.041566339730159	5.103043581779365	-6.11165085370635
O	3.2691772097301586	8.436335811779365	-5.83519679370635
O	1.5455885397301588	8.708477521779365	-2.43904524370635
O	-0.10031607026984113	11.714917431779366	-0.8209952517063499
O	-3.709032600269841	10.517889421779365	-1.4469602567063498
O	-3.0429636502698414	8.807410231779365	-4.77519221370635
O	-0.6871921687698411	6.645206711779365	-6.88327328370635
O	0.05220702473015881	3.088130701779365	-5.73873376370635
O	0.4811667397301588	0.260482095779365	-8.17624183370635
O	1.6769480797301588	-3.327719248220635	-7.98461273370635
O	-0.6954913907698411	-5.792595448220635	-9.59595646370635
O	-2.497589820269841	-9.096869268220635	-9.69269232370635
O	-0.38593146626984115	-10.231064068220634	-5.81654631370635
O	-1.8376070002698413	-6.939220138220635	-4.60611865370635
O	-1.077309944269841	-3.256083918220635	-4.168621073706349
O	-3.6425783702698413	-0.966397278220635	-5.75723135370635
O	-4.051396370269841	2.662341881779365	-4.74256396370635
O	-5.973431290269841	4.929908511779365	-7.08108943370635
O	-7.236269720269841	8.148660661779365	-5.50515842370635
O	-6.797884820269841	11.581456331779366	-7.11484142370635
O	-10.49636923026984	-0.4061136282206349	6.68727533629365
O	-2.880181330269841	-3.915261698220635	7.01036293629365
O	-6.367538710269841	-4.696217228220635	5.87417400629365
O	-8.22473604026984	-3.476191878220635	2.8274724462936502
O	-9.346856190269841	-6.435193278220635	0.7179238862936502
O	-9.329887740269841	2.058226341779365	-6.41681885370635
O	-8.428872860269841	0.40553462877936497	-3.11549232370635
O	-6.972274930269841	-3.075167078220635	-3.12682737370635
O	-4.859124380269841	-4.702430288220635	-0.47452584820634985
O	-2.294905870269841	-7.4486748782206345	-0.07955362870634985
O	1.068108359730159	-6.737125668220635	-1.5555112437063499
O	6.993887989730159	-7.584074478220636	-1.0466772897063499
O	9.57602472973016	-5.754492668220635	1.0887924462936502
O	8.09150522973016	-2.292807768220635	0.60525244629365
O	7.943493229730159	0.465318512779365	3.20900885629365
O	9.950086629730158	0.560812250679365	6.40471007629365
O	11.42092562973016	4.005658441779365	5.66608152629365
O	-0.9769979692698412	9.998290851779364	9.09645750629365
O	4.975129399730159	7.805563961779365	9.55566412629365
O	7.7210092797301595	5.334577151779365	8.60950695629365
O	6.519334329730159	5.671948221779365	4.98636001629365
O	3.1981187897301586	4.248649721779365	6.17506999629365
O	4.591577399730159	1.1822439687793649	7.9173363362936495
O	5.129152799730159	-1.718438788220635	5.48319047629365
O	7.43256562973016	-4.735117638220635	5.73517381629365
O	5.764636089730159	-8.135946018220634	5.33820666629365
O	9.085868839730159	-9.746233668220635	6.33448431629365
O	7.189792529730159	-8.472982778220635	10.72123272629365
O	5.942761259730159	-4.919957198220635	10.01431582629365
O	2.4261014397301586	-3.517487998220635	9.57509402629365
O	0.6375860097301588	-0.163045108220635	9.65644622629365
O	-1.318706530269841	0.9832492567793649	6.63907752629365
O	-3.1222330302698413	4.045815491779365	5.24402751629365
O	-5.263124340269841	4.708612641779365	8.28194538629365
O	-8.581444320269842	6.419241501779365	7.69029312629365
O	-7.740351200269841	7.889979731779365	4.29785836629365
O	-6.834978980269841	11.224131731779366	5.87564409629365
O	8.56905048973016	-7.026874468220635	-7.32409240370635
O	8.094457359730159	-10.096409368220636	-9.54126407370635
