29

O	22.181890333178334	34.35090243338634	89.1726433927645
O	22.152338135391606	33.75007472491218	87.96120483678294
O	21.281107549779776	33.14154845175908	87.22825403050585
O	21.08871019102549	31.716061629313977	87.33251402880317
O	19.813159480781326	31.117216176929094	86.90415038623269
O	18.804473683626338	31.89505016762417	86.53127634424901
O	19.398032163591587	32.73693704183298	85.56517490008623
O	20.380133717166704	33.60554581899099	86.21960970216269
O	17.49413958688274	31.697306183877686	86.92034265865743
O	16.823052778849696	31.815490321599345	85.71322036730298
O	15.527403305642173	31.972330336347632	85.59402087994671
O	14.689317534175954	31.7251355357975	86.62487806116727
O	15.296707093210806	31.600484910686333	87.80398273405186
O	16.66075674800343	31.55000363329374	87.81880187024719
O	14.937139994567818	31.859787059560126	89.20744677779844
O	14.784977600035553	33.13024282242502	89.75956703482731
O	16.160234870716447	33.39749466076908	90.0906626597839
O	17.179290116676736	33.78106459480561	89.3483437408683
O	16.16214059081733	33.97872661940085	88.29141240536212
O	14.698129946207114	34.04600436751457	88.09475700965461
O	13.849365430250248	33.371071046834714	88.84670585748817
O	17.135687847745473	34.277115211495584	87.25982815859368
O	18.29014114287651	34.66558782887832	88.09135010565748
O	18.34423288543843	33.77926050517575	88.90830880536208
O	19.457223763833433	33.18931201597017	89.45363759782526
O	19.013428621599967	32.03465202165187	90.00037610853408
O	18.49486337304739	32.829426738725324	91.2325383086288
O	18.61907303231596	34.29247110096792	91.17074011542732
O	19.813167556746762	34.29369251550393	90.28585004304921
