28

O	12.548048871590892	35.64151755912058	93.28166404191003
O	17.496160225752494	33.12411418164006	86.89201405659102
O	16.330860754981316	32.82618054838348	86.2279182558632
O	15.077242789503723	33.22268344977341	86.59644949573975
O	14.850681493060039	33.54364052891613	87.92109382246687
O	15.949951068521019	33.44286236815293	88.76333521899777
O	17.256952234088345	33.384332894380016	88.2628793146433
O	13.564317321249687	33.37684599994633	88.33524943210197
O	13.291230086739656	33.416186050066266	89.63039561731429
O	14.335557562299122	33.55770006112192	90.43435410643332
O	15.637895073607604	33.67294398465352	90.05469194498892
O	16.665650866293504	31.831900453889915	85.26788936066566
O	15.617636664792027	30.960020551982126	85.72725710637168
O	18.673739751194425	33.09034870089134	86.15236633288605
O	16.640081648039835	34.125455101354426	90.92605257008746
O	16.13608706939625	34.610084951370425	92.13791395562691
O	14.766857826116478	34.92038061150097	92.13395166819484
O	14.189183811185618	35.097733347181766	93.35268680428216
O	14.898756801118157	35.860486778033206	94.22907127231464
O	16.197751027318365	36.084415607041684	93.96420240110754
O	16.841987821808598	35.235623257448836	93.06724849779062
O	22.23351799438913	33.793119427598285	85.36273899116034
O	21.180673165614948	32.85271647330113	85.06888659201788
O	23.66623023164494	33.59349844336474	85.49708366724036
O	20.008429860626077	32.80820773092174	86.0719042420777
O	20.412213672474277	33.28052397063585	87.21334550654251
O	23.966418205882867	34.42382677348624	86.68701013445306
O	14.332036180062591	36.677006911758085	95.17265495939645
