95

O	4.943632050690163	-3.6884654587327854	-4.5147693595098355
O	4.424154910690164	-2.3207391087327855	-4.790598799509836
O	3.6250552906901636	-1.6695018587327857	-3.6805021395098354
O	3.8105887506901635	-0.7313120987327855	-2.654896029509836
O	3.5638021906901636	-1.4143556287327854	-1.5832788325098357
O	4.213145340690164	-1.9257930887327857	-0.31946983950983576
O	3.459444300690164	-2.6368295487327855	0.5428129904901642
O	2.4410791506901637	-2.5850303787327857	-0.21505697750983577
O	2.451757490690164	-3.0328241587327853	-1.7251286085098358
O	2.2000659906901636	-1.6008435287327853	-2.223798679509836
O	2.3011714206901637	-1.3318037287327855	-3.4190445495098354
O	2.072842320690164	-0.8974519987327856	-4.5855340195098355
O	2.2462411706901637	-1.4381707587327854	-5.956212409509836
O	0.5174125146901637	-0.5159740387327854	-4.2499051795098355
O	1.3035008406901638	-2.2957085887327855	0.5217757104901641
O	1.0048180906901638	-0.9550601487327857	0.46702849049016426
O	1.8659184806901639	-0.21045210873278553	1.1990731704901643
O	1.2762975806901637	1.0095499312672145	1.0524633104901644
O	0.6310079986901638	1.3172141582672143	-0.1787905475098358
O	1.1837341106901638	0.6470394732672144	-1.240323544109836
O	0.8982174826901638	-0.5489376587327857	-0.8483235745098359
O	0.7479299456901637	1.1921148782672144	-2.4220258195098356
O	1.006258020690164	1.6617731142672145	-3.742511319509836
O	-0.4221185243098362	2.3904295582672144	-3.954286789509836
O	-1.5258359293098362	2.2494685522672144	-2.915453859509836
O	-1.4847711993098363	1.4602041987672145	-1.6520264935098359
O	-0.6023822373098363	0.7500825292672144	-2.564665619509836
O	-2.4184372793098365	3.1977805512672144	-2.610199799509836
O	-2.2541424493098363	3.8406887512672143	-3.851163199509836
O	5.285017730690163	-1.3779505387327857	-5.141512869509836
O	0.11963733969016377	-1.3863819487327858	-3.4266305195098354
O	-0.5783989013098363	-0.5438813587327855	-5.058625119509836
O	0.6033699646901637	0.17564987126721454	-5.4252883195098365
O	-2.6202686893098366	0.6492781452672145	-1.657874098509836
O	-6.351629279309837	-11.779048438732785	8.353380800490164
O	-4.8003359593098365	-12.152282138732785	1.540221950490164
O	-1.202340429309836	-9.615158738732784	-4.929084069509836
O	0.9265822096901637	-6.513616628732786	-4.758561379509835
O	-0.7576744663098363	-4.685488738732786	-7.6309070995098365
O	-3.858443249309836	-2.937055558732786	-9.101612259509835
O	-4.151767909309837	0.6031085872672145	-7.561257669509836
O	-6.514571409309837	3.3495764412672147	-8.679963229509836
O	-9.117396279309837	2.8249089212672143	-5.936911939509836
O	-8.675542759309836	-0.9357584287327856	-5.569448319509836
O	-6.287140649309836	-3.8794911387327855	-5.531622029509836
O	-3.6347909993098364	-4.226339638732785	-2.9155921995098355
O	-2.628674379309836	-7.545764538732785	-1.4664035985098358
O	0.2780392386901638	-8.633196738732785	0.7533031604901641
O	-0.8600329853098363	-10.730633538732786	3.717371030490164
O	-0.6555087543098362	-11.754590838732785	7.346751640490163
O	0.3018301556901638	-6.350828548732785	6.368368090490164
O	-0.8897538463098362	-4.7912157287327855	3.1204645704901637
O	-4.608179159309836	-5.155111758732785	2.4063947804901638
O	-6.325213189309836	-2.8500401687327854	-0.08705084950983588
O	-9.810999059309836	-4.005051518732786	-1.248215447409836
O	-11.907139079309836	-1.2627142887327856	-2.772094779509836
O	-13.785588979309836	-1.6588565587327855	-6.060134049509836
O	1.4003892606901638	5.752603171267214	7.180540990490163
O	-1.373833339309836	4.7315964412672145	9.432315280490164
O	-4.414490959309837	2.5707590112672145	8.774867890490164
O	-4.472408439309836	-0.2509192987327855	11.369435180490164
O	-8.316593979309836	-1.5906281787327856	4.594206550490164
O	-5.400359159309836	-3.0466213387327854	6.559411550490164
O	-2.0723308293098364	-1.3748815887327854	7.237708600490164
O	1.5457291506901638	-2.3038928687327855	8.085220620490164
O	3.4027581106901637	-3.7181705287327858	5.053179700490164
O	8.610553920690164	-4.2067342387327855	2.0984028904901644
O	10.392352020690163	-1.9304998187327858	-0.31854942750983584
O	7.305977050690164	-0.9635383587327855	-2.293104119509836
O	6.534217600690163	2.4472178302672143	-3.447837339509836
O	9.174191110690163	5.101959211267214	-4.016530769509836
O	8.384199040690163	5.506624201267215	-7.715216859509836
O	9.106952570690163	1.8605298842672144	-8.501293399509835
O	-3.5635782493098365	12.299231261267215	-4.568199669509836
O	2.5507532906901638	11.276815791267214	-6.078542909509836
O	5.691710900690164	9.131612741267215	-5.917515379509836
O	3.4421079106901638	6.105532001267214	-6.272936979509836
O	1.944868450690164	7.269741511267215	-2.922793739509836
O	5.191757080690164	7.5219392912672145	-0.9732871235098358
O	6.367227360690164	4.127562431267215	0.3995886904901642
O	9.728577870690163	2.9320541412672148	1.4295686504901643
O	10.038948120690163	1.5183639659672143	4.944954560490164
O	13.799679520690164	1.4080657912672145	4.398502380490164
O	9.988238620690163	7.007517071267214	3.4357157304901635
O	6.3048812806901635	7.593153271267214	4.320693740490164
O	3.1564984406901635	9.123309931267215	2.7681143604901646
O	0.03307492159016377	6.992722051267215	2.3250634404901644
O	-3.3694935293098363	6.617969501267215	0.4199278604901642
O	-4.641271989309836	10.143563051267215	1.785930970490164
O	-8.355430499309836	10.541466171267215	2.2054685604901643
O	-9.399249569309836	7.801675721267214	-0.2143313805098358
O	-9.868611659309837	10.291740811267214	-3.015139759509836
O	10.040361320690163	-10.367605138732785	-3.4604173895098356
O	7.902515110690164	-10.069766738732785	-0.3226165995098358
O	8.525403380690163	-13.167418438732785	1.8620975404901643
