32

O	19.849028035647148	33.79064758071378	86.14458185713785
O	20.052523168701356	34.45557493345659	87.522525624827
O	18.80387006838981	34.23749631199279	88.11472575861033
O	17.91121342101346	33.76552232949968	87.3156607458446
O	18.37719790135952	33.353983287288436	85.98682620958571
O	16.671648449935745	33.17170240209088	87.48249878243871
O	15.481591371126859	33.2556564215041	88.06644277821023
O	15.239699454576645	34.02945882658209	89.22559351885302
O	15.843722534208306	33.2838799642876	90.25494035867847
O	17.276573782761083	33.304440464030336	89.62492119313485
O	16.98745749888662	32.49655599326318	88.69443303304837
O	18.222236385406255	33.33254510390084	90.59173119779844
O	17.301823504586295	33.23298297180158	91.63614293973532
O	16.008109840176065	33.8250888722044	91.45371839632595
O	19.533653714402323	33.365558793315	91.07508124626241
O	20.670127403287733	34.25418602829367	90.93400672737617
O	20.746292536384892	32.95792179629206	90.30744111313541
O	16.36451157338861	34.81043899987674	89.03430600488582
O	16.72448694191669	35.4605694922373	90.14063790666391
O	18.080424936937863	35.817068299007545	89.36517570478716
O	19.07594990968294	35.98256528503116	90.26615876225273
O	18.365750987251857	36.31275749733997	91.37052135396324
O	16.996419339211897	35.99003645020191	91.32879195547045
O	16.947780375216592	35.727712994689895	92.64844412007574
O	18.229753916044878	35.489184794800764	93.27282154745514
O	20.40132322658387	36.312375211180814	90.06817929346303
O	20.583287828331358	32.631979680025154	86.44000675627807
O	19.77662909736427	32.40296303332594	87.56704516831519
O	19.23889553539766	31.47937842731816	86.46198968477573
O	17.85407469392776	31.12365726599637	87.32237623957944
O	19.77848012842223	31.8186398276106	88.5803381582681
O	21.20180427393954	34.13339174239073	87.93666012556487
