84

O	1.0353029946037737	3.9236177641339616	-2.773981233169812
O	2.3534369446037737	6.273570294133961	-2.145181671169812
O	4.920482984603774	5.909810134133961	-3.118310903169812
O	-0.9391605703962262	5.032374524133961	-1.629295278169812
O	-0.3658679823962262	3.776293794133961	-1.893697300169812
O	-2.025305385396226	4.773901444133961	-0.6229206851698119
O	-2.544493465396226	3.501738584133961	-0.924419054169812
O	-1.3334925403962261	4.6323971941339614	0.7302600468301881
O	-1.5024912063962261	5.844976864133962	1.3732248068301882
O	-2.1196448753962263	3.4926057041339615	1.383069816830188
O	-3.153173325396226	4.094991594133962	2.0665591668301877
O	-2.508408115396226	2.7060531721339616	0.18024287683018803
O	-3.242674085396226	-2.1268524458660387	1.652663986830188
O	1.125007424603774	3.080924004133961	-3.993941813169812
O	1.4994790746037738	6.474542364133962	-0.9788912951698119
O	6.119195594603775	6.088760934133961	-2.2589947531698122
O	-3.905642135396226	-0.9883413658660387	1.975506216830188
O	2.3202434146037736	3.513352554133961	-1.804844502169812
O	2.7758536346037737	7.818697284133961	-2.5014067231698123
O	4.586732874603774	7.461810984133961	-3.493653733169812
O	-3.5169486553962264	0.22856178413396155	1.5889585668301882
O	3.6462737746037734	5.205069374133961	-2.232040030169812
O	1.2406996246037738	5.518406314133961	-3.172143483169812
O	5.237197824603774	4.674073554133962	-4.133773243169812
O	-2.461790625396226	0.3581461441339615	0.7814666368301879
O	-1.8488141853962263	-0.8128374458660386	0.372531946830188
O	-2.1717862753962263	-2.0497792558660386	0.8719107468301879
O	-1.514069969396226	-3.2218611858660386	0.467385866830188
O	-1.0445841433962262	-0.5444393058660386	-0.6279736951698119
O	-0.9937125683962262	0.8276403341339615	-0.6755202411698119
O	-1.9382472653962264	1.3958051631339614	0.07726216683018805
O	-9.399930395396227	3.9800651641339613	-5.147868423169812
O	-6.906585555396226	4.034763894133961	-2.271535333169812
O	-4.508930695396226	6.588512294133961	-3.626875723169812
O	-2.0039253053962263	7.771556114133961	-6.187666063169812
O	1.3917239246037738	6.294485274133962	-5.974458213169812
O	4.5481148346037745	7.2581262941339615	-7.761425793169812
O	4.678027264603775	4.129106464133962	-9.84151069316981
O	0.9014117646037739	3.8089300041339618	-10.276613533169812
O	-2.5326398753962263	4.127734624133962	-8.693776893169812
O	-3.4671252953962264	1.7456129011339614	-5.888217913169812
O	-7.028821495396226	0.41055287413396147	-5.629261093169812
O	-8.845114275396227	-1.5103568758660384	-2.9388574231698117
O	-10.592205895396226	-4.598887545866039	-4.244210643169812
O	-6.618457885396226	-6.976465955866038	-1.7943915261698118
O	-4.769886985396226	-3.8314922158660387	-2.8201978831698122
O	-4.266916985396226	-3.586435185866039	-6.565859503169812
O	-1.5827403853962263	-1.3399731758660385	-8.015247363169813
O	-1.8770084453962261	-0.5138021358660387	-11.703389823169811
O	4.668989294603774	-7.445618445866039	2.149367586830188
O	4.467389644603774	-10.17224512586604	-0.4319341791698119
O	3.115576854603774	-9.829774725866038	-3.963020893169812
O	0.06404860860377382	-6.106603985866039	-9.082451693169812
O	-2.115806525396226	-7.8130789758660395	-6.471698233169811
O	-1.2338686133962262	-7.980731965866038	-2.790161943169812
O	-4.860012535396226	-5.333321345866039	1.6539572568301881
O	-6.821400785396226	-2.5005965458660384	6.484273396830188
O	-5.011684315396226	0.09205010413396142	8.581803316830188
O	-3.3234375253962263	1.9048832520339614	5.658140616830188
O	0.19433333560377386	3.221104874133961	5.586198986830189
O	2.1857747546037736	4.094330914133962	8.73678324683019
O	2.7355508746037738	7.7313028141339615	7.704679426830188
O	-0.9972000663962262	8.487362544133962	7.695618276830189
O	12.441211904603774	3.5819404941339616	-1.823649566169812
O	9.862682704603774	5.654452844133962	3.712946246830188
O	6.994106144603774	5.786543864133962	6.232183486830189
O	4.6130305746037745	5.940625264133962	3.2709322168301886
O	5.8450339746037745	2.5959479161339614	2.074982216830188
O	5.4204847146037745	0.8667702441339615	5.514156646830188
O	1.8922415346037735	-0.5531916358660387	5.959518486830189
O	-0.05021379439622614	-1.3445555958660387	9.106702576830187
O	-1.449927625396226	-4.861870875866039	9.301214276830189
O	-1.2548881063962263	-1.3363143458660385	15.258575776830188
O	3.8498202546037734	-3.214608325866039	10.444824976830189
O	5.273201814603774	-4.293013915866039	7.069535976830188
O	7.482290804603774	-2.9309964758660385	4.300646116830189
O	6.133125874603774	-2.7376659358660387	0.7521909868301881
O	6.987880584603774	-1.4850329558660385	-2.716616013169812
O	10.521117104603773	-2.775685055866039	-2.837029033169812
O	9.513723604603774	-1.3646316258660385	-8.210828123169811
O	12.126708304603774	1.4035710071339613	-8.326801253169812
O	-10.916476795396227	1.5463624851339615	8.983201276830188
O	-13.220733095396227	3.2884614141339616	5.815753146830188
O	-12.251661795396227	0.0917950141339614	3.9873682468301883
