29

O	19.760193084167074	34.510672749659044	89.68612548205918
O	20.69619014056316	30.704531610379792	85.84247220987001
O	16.853924598198294	35.014151928245305	93.54151551891138
O	18.2790114788072	32.55593679610385	92.28350374403679
O	18.170608855831905	35.34427564721065	93.51816890403472
O	19.439013648032596	32.41320511519561	91.64197308950278
O	16.065355482124108	35.11624603374652	92.3670551551459
O	17.174313569854814	32.12313312951264	91.484022235701
O	18.708409552017173	35.177397817310755	92.19037915096159
O	19.578936464238005	31.769741738935853	90.31873816591242
O	20.022744449463165	31.212756817148804	86.99379107146731
O	14.120361725189884	32.28561744025848	89.38944318676718
O	19.39457712211565	32.56408885420766	87.32509499259774
O	13.688469404129584	34.08102977389663	90.10385141004798
O	15.291968145559876	32.891969056319354	88.78783751124098
O	15.087354803127878	33.95060059075225	89.90577508533227
O	16.741172388203957	34.98629286644928	91.1121550702047
O	17.503590130392123	32.422372695860986	90.11087711457265
O	17.977628874572314	35.37952634004273	91.06800883872785
O	18.564946345056875	31.896505642675304	89.35854518010643
O	16.540040522019336	32.91937323296803	89.4185070397363
O	16.24608654678116	34.72189604233124	89.89590377861636
O	17.48560666170785	34.61360552652185	89.1758594691364
O	20.782502022155363	29.967691791466276	84.89874746013069
O	13.139815267046526	33.097425516152846	89.34496156821626
O	13.297637681777305	34.78305382583855	91.0913069070681
O	17.495543267454877	33.38980891898541	88.44268812814394
O	18.524306407758584	34.98667054775329	89.82154143389636
O	18.10546094757456	32.20335327946052	88.00244934862151
