85

O	2.0361610298518515	-3.5266172394351853	-0.6263799402777773
O	2.5289643498518513	-4.775701849435185	-2.9127436122777772
O	4.381881099851851	-4.426519009435185	-4.748109982277777
O	0.20455723585185137	-5.170176589435186	0.15195554772222275
O	0.7652641498518514	-3.886210389435185	0.33839385772222275
O	-1.2585678341481485	-4.944419479435185	0.26600687772222265
O	-1.3825254591481486	-3.9322445194351854	1.247831897722223
O	-1.9129288201481485	-4.350839789435185	-0.9888482370777774
O	-2.5505565101481484	-5.423111349435185	-1.6047494062777772
O	-2.9490146101481485	-3.3337933294351854	-0.4239087142777773
O	-4.067659730148149	-4.090861079435185	-0.2067195202777773
O	-2.161168690148149	-2.933439729435185	0.7786834477222226
O	-3.6049164701481486	1.7317769605648148	2.0570870777222225
O	3.3089189898518514	-3.0872594794351853	-0.018745332277777305
O	2.1495600998518514	-3.4627260494351852	-3.415330272277777
O	5.741107599851851	-4.376898909435186	-5.1707065222777775
O	-4.266439770148149	0.5487591055648149	2.1363576177222225
O	1.6267117298518516	-2.373858939435185	-1.7049483722777774
O	2.1677463098518515	-6.153780929435185	-3.6848317422777774
O	3.722945469851852	-2.914050679435185	-4.754269162277778
O	-3.7625586701481484	-0.6154054024351852	1.7426043177222228
O	4.2901612598518515	-4.6856424594351855	-3.055625512277777
O	2.3075873798518516	-4.971482169435185	-1.3566091632777773
O	3.5819400098518512	-5.723974609435185	-5.371864642277778
O	-2.5192584501481488	-0.5688460644351852	1.2046882577222227
O	-1.8109285301481486	0.6195731945648149	1.1899830677222227
O	-2.3991786701481486	1.8109089705648147	1.5054755177222225
O	-1.7355844701481487	3.0458523905648147	1.4557036277222228
O	-0.5812069731481486	0.36602904056481483	0.8077592877222226
O	-0.5899111981481486	-0.9541413434351851	0.4488857977222227
O	-1.7210510301481485	-1.5759208494351853	0.8090952777222227
O	-1.5530244401481488	-6.278092859435185	9.127667637722222
O	-2.8074609301481486	-5.315540189435185	5.680064847722223
O	-0.6324463691481487	-7.5399143094351855	3.5537841877222225
O	2.7472738798518512	-8.717706069435184	2.455825007722223
O	4.1119464298518515	-6.626450349435185	-0.21237291027777727
O	7.106910929851852	-7.254928389435185	-2.3811635122777774
O	9.401492599851851	-4.695470379435185	-0.6725027582777773
O	7.985435459851851	-5.133502439435185	2.8421331277222226
O	4.907035729851851	-5.750811109435185	4.977047667722223
O	2.1856725098518512	-3.121989239435185	5.109081247722223
O	0.2607649808518513	-2.4520014794351854	8.317181407722224
O	-2.8512835301481485	-0.44649650943518515	9.047919837722223
O	-2.386494300148149	1.9550615005648146	11.927065937722222
O	-2.356559160148149	5.464490400564815	8.051755237722222
O	-0.7563935281481486	2.597311200564815	6.162002197722222
O	2.7030677898518514	1.7505822705648149	7.395804257722222
O	5.150065989851852	-0.16147501393518515	5.273461747722223
O	8.16715596985185	-1.7014458794351852	6.997245707722223
O	11.003896559851851	-2.631730899435185	4.652350827722223
O	12.756856559851851	-6.0133189594351855	4.763991877722223
O	-0.2284849281481487	8.785064500564816	-3.252594602277777
O	2.0834961998518513	10.901527460564816	-1.1768613622777773
O	4.4838882498518515	9.665889000564816	1.4995816177222228
O	7.183064079851851	4.523637760564815	5.489768097722223
O	3.9769331398518517	6.227485810564815	6.573039297722223
O	1.2799440698518514	7.277761170564815	4.183092727722222
O	-4.634405640148149	4.847795310564814	4.527945447722223
O	-9.92278297014815	2.482703470564815	3.141375367722223
O	-10.98051244014815	0.6501631045648149	-0.021993516277777347
O	-7.726210190148149	-1.2619042994351852	-0.5457010212777773
O	-6.023901040148148	-1.8461067194351852	-3.836643352277777
O	-7.805359510148149	-1.7440558194351852	-7.195089102277777
O	-6.827638560148149	-5.333794209435185	-8.091231652277777
O	-8.693825990148149	-6.815429889435185	-5.139666052277777
O	6.399574949851852	-1.1021558194351853	-10.821822102277777
O	0.2603033168518514	-2.670175439435185	-11.693273562277778
O	-3.3503766301481486	-2.882591249435185	-10.495890592277776
O	-2.0010616701481485	-4.002683099435185	-7.072136842277777
O	-0.1873907401481487	-0.6703534074351851	-6.826067572277777
O	-3.2398870801481485	1.4654955905648148	-7.600507742277777
O	-5.325152370148149	2.229620390564815	-4.489491122277777
O	-8.94445717014815	3.1453621905648146	-4.106805342277777
O	-8.05387644014815	5.941357620564815	-7.5589543622777775
O	-4.3733296701481486	6.708189570564815	-6.874930322277777
O	-0.9524299851481487	5.328593170564814	-7.791276572277777
O	1.4192968498518512	4.310121040564815	-5.011340582277777
O	4.801268309851851	2.615602780564815	-4.461076262277777
O	6.745552369851851	4.493106530564814	-7.059387782277778
O	10.47812235985185	4.9050893905648145	-6.421098432277777
O	10.77963885985185	1.9072043305648148	-4.0606801722777774
O	12.04096315985185	-0.25717818143518517	-6.911572092277778
O	-14.35459524014815	-1.8027110894351852	4.399845997722222
O	-12.843557240148149	-4.459157539435185	7.395880237722222
O	-10.606723540148149	-1.4900447294351853	8.237219747722223
