90

O	-6.9730548912622945	-1.8014582961180334	1.8175793319950815
O	-5.603752901262295	-2.3050465661180333	1.290783911995081
O	-4.989243491262295	-3.278340526118033	1.8864481619950815
O	-3.716093051262295	-2.815326776118033	1.6909568019950814
O	-2.614174882262295	-3.6675171761180336	2.2428338419950813
O	-1.4166057832622951	-3.2611615261180336	1.7380677119950811
O	-1.512625525262295	-2.815775436118033	0.5417253359950812
O	-2.841647381262295	-2.5026444461180333	-0.20666828500491877
O	-3.747563361262295	-1.8541535361180332	0.5435087909950812
O	-5.012642561262295	-1.6767463761180332	0.2984375789950813
O	-5.558604841262295	-0.49037344611803335	0.04342163999508125
O	-6.939374221262295	-0.8451063261180334	-0.43237398500491875
O	-6.103108951262295	0.2814046048819666	1.2538737319950815
O	-0.2777098812622951	-2.0228501261180334	0.27126512599508124
O	-0.4849497512622951	-0.7289560561180333	1.002215001995081
O	-0.7344613812622951	-0.9874630161180333	2.3634535719950813
O	-1.8937051439622952	-0.5046838861180334	2.8876428819950815
O	-2.8234123112622953	0.25502964088196667	2.231409521995081
O	-2.641300114262295	0.41275745388196666	0.9544168819950812
O	-1.7428752874622953	-0.3730826561180334	0.5103793819950813
O	-3.409676631262295	1.1300952868819667	0.12990280299508122
O	-4.663292251262295	1.6682925528819665	-0.18713504100491876
O	-4.076879861262295	2.6810481238819666	-1.2821631240049187
O	-2.503139795262295	2.9061909138819666	-1.1853326020049186
O	-1.8599417303622952	1.5716629218819667	-1.3983012680049187
O	-3.187471501262295	0.7018105408819666	-1.3015815420049188
O	-1.880803102462295	3.6229112138819666	-2.1817005980049187
O	-0.5471120112622951	3.3259353638819666	-2.188490198004919
O	-1.3627321542622952	1.3052883958819668	-2.6362370780049185
O	7.567604028737705	-10.952632086118033	-7.975227418004919
O	-6.244419311262295	-7.023687856118034	-6.038316838004919
O	-6.270730131262295	-4.999883856118034	-2.8442403680049186
O	-7.9709355212622945	-2.0147658161180333	-4.258750518004919
O	-8.047165731262295	0.8819792310819666	-6.535069488004918
O	-6.098805631262295	3.7106253638819666	-5.189238018004919
O	-5.878534991262295	7.293506713881966	-6.375170658004919
O	-2.4860448382622953	7.000433483881967	-8.125940688004919
O	-2.830978631262295	3.3743891738819665	-9.19836123800492
O	-4.125001321262295	-0.07724105111803337	-8.35109308800492
O	-2.667949061262295	-1.9724951661180334	-5.4725543980049185
O	-2.203084359262295	-5.686916736118034	-5.559126388004919
O	-1.3257007922622952	-8.263879666118033	-2.9546447080049187
O	1.504451218737705	-10.607291886118032	-3.9987465880049187
O	4.649880678737705	-12.596548786118033	-3.2644702980049187
O	4.309464088737705	-11.219379386118034	1.0955840619950812
O	4.191196498737705	-7.770306796118033	-0.48491437200491877
O	1.7874375087377048	-5.058092816118034	-1.6858715280049186
O	2.4444007787377053	-3.9788548061180333	-5.304333178004919
O	1.190749048737705	-0.6802863161180333	-6.650984938004918
O	1.0728379587377048	-0.15481282411803332	-10.35695360800492
O	0.8206453187377047	3.4528625338819667	-11.47365480800492
O	-1.6626874122622952	4.624514023881966	-14.115967608004919
O	10.634159278737705	6.482725633881966	-0.26620942930491875
O	6.154898208737705	2.4718278438819667	5.579594811995081
O	9.200206678737706	1.9419637638819667	3.469344851995081
O	9.378427978737705	1.2137906008819668	-0.26072594450491876
O	11.381544378737704	-2.0148036261180335	-0.7699818510049188
O	5.478311908737705	-0.9060136161180334	-10.12085995800492
O	6.364610538737706	-0.08826963511803332	-6.527554258004919
O	6.914852758737705	-2.9453664261180332	-4.042130848004919
O	6.498332388737705	-2.6837769561180336	-0.26082681090491877
O	5.896131568737705	-4.999768246118034	2.721206261995081
O	2.2556480587377052	-6.138467806118033	2.9566175119950815
O	-2.202093653262295	-7.642243776118033	6.566883651995082
O	-4.702912631262295	-5.504787536118034	8.38531196199508
O	-5.116347621262295	-3.0706078161180335	5.580932931995082
O	-5.764677311262295	0.5013332358819667	5.897567621995082
O	-6.901625451262295	2.1873422238819664	9.17017068199508
O	-10.009765981262294	3.7216950438819665	7.602673921995081
O	-1.9363950512622952	13.187002313881967	0.8951276119950812
O	-5.702688461262295	10.511047233881968	5.270054531995082
O	-6.974593681262295	7.507443353881966	7.202003831995081
O	-6.888015041262295	5.503118733881967	3.9039364419950813
O	-3.099973871262295	6.274080393881967	3.9320902619950813
O	-2.404384787262295	4.958459853881967	7.417814041995081
O	-2.0004001222622954	1.1311895548819666	7.494868731995082
O	-2.307793818262295	-1.3393529661180335	10.308749291995081
O	0.7067481587377047	-3.635098396118033	10.95666469199508
O	-1.141567501262295	-4.8830879261180336	14.02338049199508
O	0.0192560687377048	1.7753040918819667	12.69940859199508
O	2.1727001987377053	3.2987859238819666	9.90882829199508
O	1.977472608737705	6.068206263881967	7.299184401995081
O	2.3041051987377053	5.244962433881966	3.5995083019950815
O	2.021567728737705	6.852697413881966	0.15469686799508126
O	4.114423358737705	9.983759983881967	0.8749076919950812
O	5.867207288737705	11.571133013881967	-2.0889721980049187
O	3.6779798887377053	10.107065603881967	-4.832870318004919
O	1.5380615287377049	13.241275413881967	-4.963125378004919
O	-5.235112701262295	-11.767722186118032	2.7572475319950813
O	-3.894927481262295	-15.398077686118032	2.6225278519950814
