103

O	4.9218225783085705	5.670478488757143	-8.243244408
O	1.8874390783085708	-3.4481682912428564	0.011289861999999928
O	-2.1901177616914294	-5.748203201242856	1.3912107619999998
O	-2.478371101691429	-4.423271211242857	1.397825162
O	-1.2379043706914294	-5.9194775312428565	0.4591728420000001
O	-1.4669668596914294	-3.528447801242857	1.2335602920000002
O	-0.21940139269142933	-5.009666131242857	0.33361268200000005
O	3.5832885883085703	0.06503617875714296	-1.337646128
O	1.8891209283085706	0.1942611087571431	-2.5421711279999997
O	2.7249599183085706	-0.36594083124285715	-0.29468730200000004
O	1.2289969583085707	-0.551837601242857	-1.5147425270000001
O	-0.22866712869142936	0.9412742787571431	-0.700187999
O	5.342181278308571	5.742552078757143	-6.801089988
O	4.021822058308571	5.047615378757143	-4.878871958
O	5.725008118308571	3.722385528757143	-5.523013728
O	3.740692148308571	4.124994718757143	-3.8152994380000003
O	5.47709583830857	3.061045558757143	-4.252716058
O	3.850309428308571	1.784661594057143	-2.966207888
O	3.1951225383085706	0.4557448187571431	-2.618111088
O	1.5148345683085709	0.06955599875714302	-0.25163092899999995
O	-0.5316206076914294	-3.6565409312428567	0.2829496920000001
O	0.26072477830857055	-1.754169691242857	1.1629984720000002
O	-0.2617516676914293	2.202174489757143	0.324948802
O	0.9887736483085706	1.592792644757143	-0.008413728000000065
O	0.6923310383085707	-2.9127501212428566	0.565382512
O	4.815015408308571	4.697551688757143	-5.9972303579999995
O	4.153726658308571	2.767726488757143	-3.783394928
O	-1.9790452016914295	-0.8844790912428568	1.6526185420000001
O	-2.2900542816914293	0.2134359887571431	2.3434854319999996
O	-2.279316171691429	1.395764159757143	1.6362384019999998
O	-1.1801477776914293	1.445178764757143	0.831737642
O	-0.5458154276914293	0.25566478875714305	0.43270268199999995
O	-0.9387988036914293	-0.975358161242857	0.8125638020000001
O	-13.77732191169143	0.9900646607571431	-7.360406268
O	-11.15861271169143	1.846789575757143	-9.931008348
O	-7.4398278616914295	1.313655384757143	-10.155292747999999
O	-2.1111845216914293	4.452650198757143	-10.422300518
O	0.20985838430857062	1.5638613467571432	-9.871666908
O	1.713798138308571	1.338845961757143	-6.8048491879999995
O	4.232791488308571	-1.754692021242857	-7.166463308
O	4.961854128308571	-5.260522931242857	-7.522467438
O	4.558651348308571	-7.117136691242856	-4.286457708
O	5.475972918308571	-10.799640831242858	-3.7914444080000003
O	1.8910814683085708	-12.095450231242857	-4.118017268
O	0.5707662383085707	-9.517612531242857	-6.598183068
O	0.5958099583085706	-5.974915551242857	-7.917184978
O	-0.8182400288914293	-3.1021165012428566	-5.990595148
O	-2.8437918516914293	-0.14612268124285688	-7.319036297999999
O	-3.7467562616914294	3.284349598757143	-5.7033401679999995
O	-7.319266121691429	4.022308668757143	-6.291429497999999
O	-10.66718688169143	5.388697608757143	-5.2892786979999995
O	-13.60597211169143	3.475369308757143	-3.9059076279999996
O	-8.80821050169143	6.536439638757143	-1.299376138
O	-7.862145311691429	2.863761038757143	-1.2261329189999999
O	-5.173769451691429	0.514298098757143	-2.183604968
O	-6.00726703169143	-2.395213501242857	-4.380140518
O	-3.782274331691429	-5.453894451242856	-4.676833078
O	-4.542135621691429	-7.877051161242856	-7.557695008
O	-3.245654911691429	-11.440409031242858	-7.112463758
O	-1.1954284876914294	-13.283484531242857	-9.725882938
O	-4.60620960169143	-2.9505284712428566	9.002684512
O	-8.08847879169143	-4.256138171242856	8.110060842000001
O	-9.40823327169143	-5.563136691242857	4.733244022
O	-12.44551121169143	-3.5550588212428567	3.625887522
O	-8.46355619169143	-7.077803831242856	-2.3919046379999997
O	-9.44489307169143	-3.5446845912428566	-1.195260104
O	-8.12272427169143	-1.689540251242857	1.931593132
O	-7.803712211691429	1.891088817757143	3.2741449420000004
O	-4.9408099516914294	3.8192323687571434	1.6199165219999998
O	-0.6833830006914293	8.009021548757143	2.5067358019999997
O	2.8782305883085706	7.7457019387571435	3.9849786420000006
O	3.822612908308571	4.361933608757143	2.4431239820000004
O	5.801295698308571	1.4481100637571431	4.0463974920000005
O	8.12021400830857	1.912024055757143	6.932828322000001
O	11.16384508830857	0.4340014787571431	5.138650952
O	11.16110518830857	3.170376678757143	2.4940041620000004
O	10.18289478830857	5.748822548757143	5.058894402
O	13.21931258830857	5.126592298757143	7.288515181999999
O	15.535040588308568	4.940306798757143	4.2812549120000005
O	9.69820648830857	-3.5849560112428565	7.423174232000001
O	8.26831351830857	-3.7442541212428564	3.9151123120000006
O	5.056446888308571	-4.999333551242857	5.523182342
O	4.703207578308571	-2.251903411242857	8.237952012000001
O	2.842571348308571	0.8551100537571431	6.883345492
O	2.8133711683085707	4.428824308757143	7.998506712000001
O	-0.6118934166914294	5.974725818757143	8.685429522
O	1.221386318308571	9.006286688757143	10.139190012
O	4.880211578308571	9.350284138757143	11.243492612
O	-0.35290671269142937	-5.422810851242857	7.044549872000001
O	-0.1584033936914293	-8.579367031242858	4.728281132
O	-0.8477382710914293	-11.224931831242857	7.271899632
O	-2.5004345216914294	-14.467264431242858	6.080760472000001
O	-1.6273821206914292	-14.114800431242857	2.3638608220000004
O	1.4127036183085706	-16.340295031242857	2.725170352
O	17.69465138830857	2.712057553757143	8.654278322
O	16.69125068830857	0.20432502875714298	6.0037372520000005
O	6.1681220983085705	14.373966368757142	0.39014430199999994
O	3.2505312483085707	12.104037868757143	-0.25885559
O	1.0130486883085705	14.951667768757142	-1.368073149
O	2.3582882883085707	15.220280068757143	-4.887760188
O	3.1756688783085707	11.518832558757142	-4.479896318
O	-0.27345237069142936	10.059545488757143	-3.742124508
O	-2.8583470016914294	12.626823168757142	-4.853649338
