30

O	15.675641718569198	32.941878165816355	91.61249170614923
O	16.556955170643477	34.22141935564206	87.50204716758732
O	15.574607152535098	33.220682533616795	87.63046368322327
O	16.16025939760486	32.4063645718551	88.51517798064971
O	16.590416325475353	33.49624680194468	89.43918076835007
O	15.669574884721339	34.492759488448215	89.65850806318718
O	14.282206316200066	34.181010050593585	89.27838827247625
O	14.43032066050693	33.53763903920427	88.14603959479804
O	13.44312616703112	34.37908202840481	90.37803551729967
O	14.197959479459389	35.29314054373825	91.16747219368641
O	15.40568895170153	34.5817003860031	91.1080221014742
O	17.125449404109794	32.48234087751298	89.940947687249
O	18.3595516121419	32.151921357174004	89.51344539119735
O	19.526314744848065	32.93967283711484	89.18003853687392
O	19.923356707328445	34.23645449612578	88.7250836924116
O	18.82857201800393	35.09757257026095	89.04013144724824
O	18.819955409741002	35.02688747792539	90.31558986809628
O	18.750093469022097	33.71920500580355	90.06172987885176
O	18.092212685329223	35.04689925865765	91.51103841090615
O	17.6671840502093	36.03212481400541	92.48859228429247
O	16.583846779603462	35.331639460880794	93.35922432797696
O	18.715233264730823	34.08165229583057	92.25695440787221
O	21.203521303939876	34.36586262042887	89.1065894797166
O	21.569108640562526	33.37892740743215	88.14523589698447
O	17.664413312494016	33.53154615702364	87.15155054974137
O	18.85895020190055	33.827970948948085	86.16746628568836
O	19.64332144952065	32.5506978601862	86.18707938574174
O	18.512048510736598	31.842076456289245	86.25174390392847
O	17.35994787433251	32.28006802482462	86.79291723687477
O	20.327154529619403	32.56420675593296	84.89394471190961
