85

O	0.056990552451612664	0.6129008557258065	1.0563919275758065
O	-0.8199947575483872	-1.7153135202741931	-2.260720852424193
O	0.6744781984516126	-1.5675665602741935	4.066957877575807
O	-0.1303183175483873	-1.4555211502741932	-0.05561314542419327
O	0.26743031645161275	-1.1893201502741935	2.805763607575807
O	0.3965528784516128	0.12087140272580654	2.350604517575807
O	-0.3513900945483873	-0.11739242527419347	-0.06495852842419325
O	-0.4765433725483873	0.4870697287258065	-1.2868495564241933
O	-0.4258284745483873	1.8635365657258065	-1.5173392814241933
O	-0.4777345705483873	2.4358398097258065	-2.786700702424193
O	-0.7566755634483873	4.590790839725806	-4.1294161024241935
O	-0.7952226087483873	4.849497219725807	-5.622991552424193
O	-1.2188296205483873	3.5862946297258067	-3.2399582724241935
O	-0.4562002915483873	1.4186917207258065	-3.7565727024241933
O	-1.2147903145483872	0.3167746847258065	-3.4949128124241935
O	-0.8329613285483873	-0.3597545202741935	-2.3374940624241933
O	-0.4045293075483873	-2.2761831002741935	-1.0946544554241933
O	0.7003022384516127	1.0233891047258066	3.379295147575806
O	1.3662096584516128	0.5675756917258066	4.529749857575807
O	1.4802339484516125	-0.7439747502741935	4.873702087575807
O	-0.6807710359483873	6.363048019725806	-5.759474482424193
O	0.1725138514516127	5.180692929725806	-3.556843052424193
O	0.4047059784516127	-3.0584890902741932	5.149420567575807
O	-12.696566741548388	-7.942562140274195	5.255546667575807
O	-10.119673261548389	3.981968699725807	-2.365621302424193
O	-6.521940391548387	3.7385646497258067	-3.5292123124241934
O	-5.306545781548388	7.036123109725806	-2.0821280024241933
O	-4.630904401548387	9.420588169725805	0.7434134075758067
O	-1.3359719385483873	8.564976399725806	2.471716387575807
O	0.5282031984516127	10.598346439725805	5.048964317575807
O	-0.5096315165483873	8.401307709725806	8.000334097575806
O	-3.941908121548387	7.402358149725806	6.722226987575807
O	-6.148676911548387	6.512134519725806	3.7508035675758067
O	-5.379735821548388	3.291794869725807	1.8232053975758067
O	-8.243492671548388	1.2345071817258066	0.3661224675758067
O	-8.399639431548387	-1.6974033502741932	-2.0256724424241934
O	-10.465583691548389	-4.579777410274194	-0.7563218414241932
O	-11.102990941548388	-8.251691180274193	-0.27181498142419325
O	-7.276085141548387	-9.111577210274193	-2.584851382424193
O	-5.748623901548387	-6.725313540274194	-0.05183072242419329
O	-4.7779629115483875	-3.1217368202741933	0.5818424875758067
O	-6.235436361548388	-1.7109105502741935	3.7783155675758064
O	-4.905499621548388	1.3773824897258065	5.483177387575807
O	-6.937610341548387	3.127877709725807	8.075026457575806
O	-5.0243673515483875	5.439832569725806	10.401984547575806
O	-6.1732128815483875	9.000459589725807	11.190800547575806
O	6.0114938884516125	-5.956518260274194	2.2154288975758067
O	4.593407988451613	-7.816991380274194	5.132154967575807
O	1.6163579084516129	-6.928097290274194	7.280733567575807
O	-0.9440177785483873	-9.736937000274194	7.231727387575806
O	-3.793511681548387	-2.4904358802741933	8.744972897575806
O	-4.199553531548387	-5.261203280274194	6.158833757575807
O	-1.6510453445483873	-6.432243870274194	3.6007340175758062
O	-1.3810279885483872	-8.055640270274194	0.25523535757580673
O	-2.4938245015483873	-5.913995120274194	-2.592900212424193
O	-1.6899311965483874	-4.864524920274194	-8.436394862424194
O	0.8358953084516128	-2.533609540274193	-10.145423162424194
O	0.6994902784516126	0.22185104772580655	-7.510211702424193
O	3.6143424084516127	2.3606244797258067	-6.321694052424193
O	6.907239628451613	2.7023937297258067	-8.157320822424193
O	6.749246258451612	6.511297639725806	-8.325586412424194
O	3.5759387884516123	6.437426389725807	-10.416650392424193
O	10.063825158451614	7.280091039725806	5.416834687575807
O	10.638772158451612	7.238396119725806	-0.9028168221241932
O	9.570187058451612	6.027198629725806	-4.358652822424193
O	5.977207528451613	6.4477414597258065	-3.1516606324241936
O	6.776643118451613	3.8156388797258067	-0.5591401644241933
O	8.163224328451612	1.1891894447258065	-2.9120258324241934
O	5.438570868451612	-0.9752108002741934	-4.486384182424193
O	5.424746488451612	-2.9989581302741932	-7.700201492424193
O	4.468204958451612	-6.6726331202741935	-7.359502232424193
O	5.469127918451613	-7.1397913402741935	-11.017041652424194
O	9.847013658451612	-7.253165090274194	-8.717745802424194
O	9.518704958451611	-4.295627700274194	-6.301991322424193
O	9.009957478451614	-4.153592820274194	-2.524300422424193
O	9.416131558451614	-1.6750285902741933	0.32522288757580664
O	6.432357898451612	-0.8541304202741934	2.4979647375758067
O	5.284874438451613	1.5253462627258065	5.254860327575807
O	8.292500898451614	0.9949872677258065	7.5254035775758075
O	7.717279888451613	1.5073019607258065	11.231659347575807
O	4.594171798451613	3.6515882497258065	10.893412347575806
O	6.648162038451613	6.830853719725806	11.271114547575806
O	-7.736147641548388	-0.45615890027419337	-12.832518852424194
O	-7.742344251548388	-2.793175830274193	-9.819273282424193
O	-10.369815801548388	-5.471506820274194	-10.512883482424193
