23

O	17.26795688520279	36.16762573215411	95.25192708706467
O	16.120180933621914	36.810882260580144	95.6035031203662
O	17.465606623226424	35.49090026162102	94.0264762310791
O	16.71576632140623	32.594435360744455	87.43646885405325
O	15.461769764715019	33.09632330081866	87.4447123126214
O	15.182053318414662	35.58765908805316	93.71662338449427
O	17.32723343182806	33.87217536914062	89.14787131967653
O	20.911324454876766	32.20194359368772	84.30500903683084
O	19.656091721842603	32.97455396603604	84.60097011567146
O	19.17481830961103	32.7406648428147	85.9684211898782
O	15.03114313757396	36.47204559227633	94.78938363934188
O	16.41415731431181	35.37132220503208	93.10453697242647
O	17.68913057652929	33.48207069144253	87.8956366946494
O	18.879595935799678	33.53516349615979	87.13839224722247
O	16.60738367891049	34.8003156781144	91.8056555926145
O	18.426387336709766	31.687722416830468	85.99574154419797
O	14.353668112757926	34.61202316071248	91.08431108851849
O	13.411026099300022	34.338206915671826	90.15032899027516
O	13.716584336176094	33.73354705006834	88.97510701905857
O	15.033663111282884	33.603915011382014	88.68892071717885
O	16.020642173270698	33.934484891442054	89.62750217530842
O	15.658403980780228	34.284345012073175	90.91223215778648
O	13.89781217064507	36.65868691365431	96.25842136804422
