93

O	8.213776628147542	-4.348732715000001	-4.392610827404917
O	6.972745868147541	-3.707922145	-4.132153437404917
O	5.74276097814754	-4.371790655	-4.192849667404918
O	4.4958105281475405	-3.8579255149999994	-3.5433527274049172
O	4.500731808147541	-2.676210715	-2.8199884774049178
O	5.793456658147541	-2.1940180949999997	-2.5407441874049175
O	6.990628348147541	-2.8966391750000002	-3.0093263774049177
O	3.377611368147541	-2.177071945	-2.1342963174049174
O	3.4878932981475406	-0.840793315	-1.9471811944049175
O	2.413225238147541	-0.04601219499999987	-1.6775941474049176
O	1.2116582381475407	-0.4966963649999998	-1.9031393074049177
O	1.1159036081475409	-1.7000865049999998	-2.4516060774049175
O	2.142571268147541	-2.5930254649999998	-2.4549205774049176
O	0.15421939114754085	0.1126011050000002	-1.2711873374049176
O	0.20729529414754083	1.0746022330000002	-0.38270998840491766
O	1.1372743481475407	1.7384307500000002	-0.1012678974049177
O	-0.9436156238524591	1.1776116353000001	0.44541250259508236
O	-0.7836831878524592	1.6839373280000003	1.6976233925950825
O	-1.8307284218524593	2.250809285	2.2717698625950824
O	-3.0653152518524593	2.090775223	1.7091128325950822
O	-3.178548521852459	1.526785588	0.5065309725950824
O	-2.161535021852459	0.8897667960000002	-0.06645168740491769
O	-2.3994680618524593	0.3044106510000002	-1.1425028039049177
O	0.3934227871475408	1.1010207830000003	2.1299166225950827
O	1.0960176681475409	0.04842747500000022	1.6476422525950822
O	2.3996812881475407	0.3692490300000002	2.1967384325950823
O	3.3402475981475406	0.0022548250000002934	1.2781096325950825
O	3.244840578147541	-1.294297045	0.9329847525950823
O	2.0103758881475406	-1.8670455849999996	0.8215901925950824
O	0.9136276881475407	-1.167738135	1.1650362925950823
O	-0.19686001885245916	-1.487365015	0.43316457259508234
O	-0.4587708135524592	-2.6137469249999996	-0.3590984704049176
O	-9.144057621852458	-9.615001885	8.656234422595082
O	-5.912265601852459	-11.485850485	8.075215352595082
O	-2.4126741918524592	-10.420679285	7.104108762595082
O	1.693220468147541	-11.170075285000001	2.6832482925950822
O	4.1597030481475405	-8.362013145	3.478829232595083
O	4.217584588147541	-5.424872474999999	1.3972394625950824
O	7.119133358147541	-3.421677835	3.0492171725950827
O	8.72766624814754	-1.6488770849999996	5.9118206425950826
O	7.385272488147541	1.8922509690000002	6.1808015325950825
O	8.702389238147541	4.595941215	8.483408342595082
O	5.888117158147541	4.231035825	11.006992672595082
O	5.302462068147541	0.5347896370000002	10.648003972595083
O	5.244997368147541	-2.544763675	8.466801502595082
O	2.5436674881475407	-2.857373145	5.939926032595083
O	0.8362356281475407	-6.062281185	4.8735562325950825
O	-1.4481702018524591	-7.172478535	2.014603652595082
O	-4.538021931852459	-8.918202785	3.1644999025950824
O	-8.18581197185246	-9.696701985	2.960778272595083
O	-8.49401011185246	-6.752896255	-0.4989356504049176
O	-6.822914981852459	-4.402873704999999	1.9503203525950823
O	-3.4606779818524593	-2.997653975	3.0265223025950823
O	-2.7801198318524594	-3.357870325	6.710638212595082
O	-0.08085722085245917	-1.2718361249999997	8.333505112595082
O	0.9694254081475409	-2.3763369649999997	11.824933372595083
O	-6.910511921852459	7.6279146650000005	0.7755343525950824
O	-9.328312181852459	6.878599875000001	3.5608076025950828
O	-8.819503321852459	4.6890450050000005	6.6259063525950825
O	-6.851507451852459	-1.0808867049999997	7.634974632595082
O	-7.413202131852459	0.6344473510000002	4.302387532595082
O	-8.36993242185246	-0.3007890249999998	0.7215478225950824
O	-5.48605299185246	-1.9231515849999998	-1.1940840287049177
O	-3.1874108118524593	-2.655026935	-6.6114128374049175
O	-0.6782672428524592	-0.4667021949999999	-8.451881897404919
O	1.5522630581475407	0.36274417800000025	-5.375861407404917
O	3.1769676181475406	3.8385173150000003	-4.8029006274049175
O	3.878161148147541	6.444454265000001	-7.392156867404918
O	7.62672392814754	6.589665975000001	-6.664710737404917
O	8.126883098147541	2.988837255	-7.676640787404917
O	5.626639618147541	3.3282313450000003	-10.484475787404918
O	5.192196278147541	13.426696715	5.389543782595083
O	6.584078328147541	12.277318215	-0.6322691454049176
O	6.209470748147541	10.253924205	-3.8191220574049174
O	6.475640158147541	7.165427825	-1.6105411934049176
O	3.2449223781475407	8.275016515	0.08152912259508227
O	1.2325094481475407	8.874866495000001	-3.134232647404918
O	-0.49657708685245916	5.708520415000001	-4.3670542374049175
O	-1.7405067118524593	4.532387635	-7.720085357404917
O	-5.373271741852459	3.3617505050000003	-7.906845047404917
O	-4.986799911852459	3.1793250150000003	-11.675991127404917
O	-2.349316421852459	4.777562295	-13.942752627404918
O	-4.133329141852459	9.353117375	-4.177199047404917
O	-1.9528940118524591	8.423519625	1.9543039825950823
O	-0.24019187785245916	8.222314475000001	5.3204120025950825
O	-1.305833240852459	11.723963515	6.500365642595082
O	12.146202098147542	8.830094725	-9.126562147404917
O	0.6950028081475408	-6.178260435	-10.244220057404917
O	-1.4400274718524593	-9.187711385	-11.177000427404918
O	1.1000908381475407	-11.837807085	-10.342482057404917
O	2.4279132781475408	-9.240047585000001	-7.892132257404917
O	-0.6394475688524591	-8.628418065	-5.6710029874049175
O	-3.103062071852459	-11.563163285	-6.215964587404917
