92

O	3.1578011495475407	4.89564645162295	-3.844987243918033
O	3.2995948695475414	3.7377889616229503	-2.7951941639180333
O	4.254972629547542	3.36035912162295	-1.9666405839180332
O	3.6068453095475412	2.3534521386229503	-1.2203630849180331
O	4.488272589547542	1.42048458262295	-0.39639995491803315
O	4.3230601195475415	0.12226168162295004	-0.6403263089180331
O	3.2136915595475415	0.19674302162295	-1.3251903749180332
O	3.099477149547541	1.01964971862295	-2.631336053918033
O	2.2557165295475414	2.04214922862295	-1.8831490229180332
O	2.166530039547541	3.29235630162295	-2.292558643918033
O	0.8378297295475412	3.42115273162295	-2.6829134939180332
O	0.8559803895475411	4.96233068162295	-2.836819473918033
O	1.063595999547541	3.02744594162295	-4.155057773918033
O	2.388006919547541	-0.7653990383770499	-0.8466646319180331
O	1.376669519547541	-0.03853103837704985	-0.12707031791803314
O	1.8682859795475413	0.45139705162294996	1.017296866081967
O	0.973684909547541	-0.26984014837704984	1.937952826081967
O	-0.4038186144524589	-0.36856809837704985	1.716140406081967
O	-0.763497270452459	-0.62475984837705	0.49245265608196687
O	0.16021968554754107	-0.3935529883770501	-0.4382519379180332
O	-2.090749190452459	0.00898257162295013	0.21863083608196687
O	-3.1243715704524586	-0.67164705837705	-0.35121871891803313
O	-3.913136150452459	0.3964124816229502	-0.6684807459180331
O	-3.078957810452459	1.21335177862295	-1.3190610999180332
O	-2.1486208904524586	1.28246725462295	-0.3669035419180331
O	-3.017088540452459	2.24622041362295	-2.666218883918033
O	-4.418072570452459	2.58446138562295	-2.804282013918033
O	-2.539371070452459	1.4940181206229501	-3.832944433918033
O	-2.294372510452459	3.81042975162295	-2.8628606039180333
O	-2.9172039904524585	5.02484354162295	-3.2980109339180332
O	-1.993739680452459	4.35595074162295	-4.1841051639180336
O	3.8587837095475415	-14.98223754837705	-4.286309043918033
O	4.245593109547541	-1.8107117883770498	-10.223164363918032
O	3.974360919547541	0.5599588216229501	-7.367172113918033
O	0.9689951095475411	2.6163064506229503	-8.422774413918033
O	-2.576919210452459	2.80765570162295	-9.569834833918033
O	-4.934132760452458	3.04408218162295	-6.704882013918033
O	-8.60872200045246	3.91645106162295	-6.653743943918033
O	-9.810324720452458	0.31630234162295	-6.037890423918033
O	-7.023948910452459	-1.45884938837705	-7.9639986839180334
O	-3.344885600452459	-1.52629266837705	-8.949003213918033
O	-0.7018195788524589	-2.08988888837705	-6.296625133918033
O	2.4197160295475415	-4.09822932837705	-7.0702919639180335
O	5.681716629547541	-4.60538184837705	-5.146586203918033
O	6.621051609547541	-8.270766518377052	-4.827268913918033
O	8.001408919547542	-11.21329614837705	-2.8974404639180333
O	5.199486119547541	-7.5251049683770495	0.1511996460819669
O	2.7915695795475415	-5.13863483837705	-1.5503411829180331
O	0.035022780547541044	-6.794932038377049	-3.630419343918033
O	-3.158973280452459	-4.95590921837705	-4.527497443918033
O	-5.2458787704524585	-6.512393038377049	-7.339582303918033
O	-8.836743370452458	-5.32276522837705	-7.451585953918033
O	-10.523359360452458	-4.1679970683770495	-10.671759643918033
O	-1.444889602452459	-1.8024111083770498	8.597431296081966
O	-2.524476770452459	-5.35460459837705	8.580633616081967
O	-3.5894092904524593	-7.519770098377051	5.670728246081967
O	-1.4650134294524588	-10.687817948377049	5.670486446081967
O	-4.658439830452459	-8.62869444837705	-1.2110949759180332
O	-1.2020724794524589	-9.159757048377049	0.2839214260819669
O	0.370322889547541	-7.003952948377051	2.977998376081967
O	3.881112069547541	-6.21966033837705	4.338874806081967
O	5.697003129547541	-3.7118315883770503	2.0476815260819667
O	9.595457769547542	0.7410276376229501	1.8290951460819667
O	9.162152669547542	4.44792195162295	2.263445076081967
O	5.979136309547541	4.71243498162295	0.47317217608196693
O	2.927473399547541	6.77912261162295	1.2344508260819667
O	3.133491849547541	9.83288189162295	3.3747330460819667
O	1.7257356295475412	12.18280485162295	0.7314151260819668
O	4.641212729547541	11.535887981622949	-1.620357483918033
O	-11.174574530452459	6.84673338162295	2.7431249860819666
O	-6.124294090452459	10.659884331622951	3.2656204260819672
O	-2.364058520452459	11.21270414162295	3.1927470160819666
O	-2.1910006904524586	8.78601003162295	0.2652858460819669
O	-3.5730524004524593	6.18346860162295	2.664220186081967
O	-1.014984965452459	6.73886449162295	5.454867906081967
O	2.2533268095475414	4.81148801162295	4.7979308060819665
O	5.752311799547542	5.295028641622951	6.091647496081967
O	7.431352759547542	2.33048138262295	7.845976796081967
O	10.250269969547542	4.64791137162295	8.805399856081968
O	6.805882829547541	5.68382087162295	12.234518876081967
O	3.6565197595475416	5.99555658162295	10.061837276081967
O	0.611107629547541	3.70570993162295	9.710934676081967
O	-2.962284740452459	3.8114972316229503	8.326119566081967
O	-4.0123278804524585	1.45658817662295	5.500718836081967
O	-6.8389331304524585	0.7462737166229501	2.9957479060819665
O	-9.636942920452459	0.76954489962295	5.568892496081967
O	-12.683047030452459	-1.3176551883770498	4.732598246081967
O	-12.07893333045246	-1.4593476283770501	0.9692675460819666
O	-14.521300930452458	1.40056500562295	0.40902941608196675
O	13.803325669547542	2.59626778462295	-5.451264953918034
O	12.330689569547541	-0.5701680983770498	-3.904539483918033
O	15.02015436954754	-3.26217548837705	-4.086324443918033
