95

O	5.277404961231148	-3.3972937982295086	4.275935751836065
O	4.4111649412311476	-2.2263703782295092	4.734875631836066
O	3.6512217712311474	-1.541402128229509	3.6658153918360656
O	3.7355014712311476	-0.46717776822950907	2.7819380618360654
O	3.7561634412311475	-0.9903487882295092	1.5865183318360656
O	4.416781921231148	-0.960953298229509	0.22251624983606544
O	3.9420437612311474	-1.771233158229509	-0.7503757481639345
O	2.9399562012311478	-2.065832898229509	-0.01957007716393455
O	3.0842013512311475	-2.8230139482295087	1.3378559568360653
O	2.421591091231148	-1.5720366182295091	1.9971187518360654
O	2.3479536412311477	-1.546107248229509	3.2289589218360657
O	1.6236760712311475	-1.379631268229509	4.182691191836065
O	1.6344859712311477	-1.966239138229509	5.553327341836066
O	0.1283812342311476	-1.4374081182295089	3.5110255718360657
O	1.7613797512311475	-1.836773758229509	-0.7160473781639346
O	1.2289192312311477	-0.5802264582295091	-0.47315883816393456
O	2.1273085212311478	0.40814862177049105	-0.8878990681639346
O	1.2388590812311475	1.463149694870491	-0.6933691481639345
O	0.5042115952311477	1.422702732570491	0.5321047415360655
O	1.0510013712311477	0.681206043770491	1.5593437718360654
O	1.0022627012311476	-0.372042238229509	0.8236621478360655
O	0.6750535362311476	0.936189300770491	2.8792581518360656
O	0.5472486602311476	0.817526898770491	4.349996241836065
O	-1.0290390437688524	1.0849885967704909	4.707994461836066
O	-2.018981648768852	0.992195999770491	3.5488265718360656
O	-1.6767670887688524	1.570291690070491	2.1895199518360653
O	-0.38740429276885235	1.774194234770491	2.8573540418360657
O	-3.319906398768852	1.048831735770491	3.3980121518360655
O	-3.3773000687688524	2.453488526770491	3.5674750718360655
O	5.2353819512311475	-1.2910479082295092	5.2176856518360655
O	-0.5838887357688524	-1.647219798229509	4.647027821836065
O	0.3601800372311476	-2.148195188229509	2.4297605218360654
O	-0.9160344987688523	-1.364641848229509	2.7862473618360655
O	-1.9407937987688524	0.7869814247704909	1.1480039888360656
O	-3.2736421387688526	-10.88585127822951	-10.935781218163934
O	-1.9573419187688523	-12.32020267822951	-4.223401978163935
O	0.7364911892311476	-10.46456647822951	2.9232499018360656
O	2.132902281231148	-7.002632828229509	3.5110289918360658
O	-0.021498176868852362	-6.106797798229509	6.5255597818360656
O	-3.4499889587688526	-5.418208098229509	8.072845821836065
O	-4.494157428768852	-1.828009338229509	7.1865229018360655
O	-7.4401814087688525	0.12400031177049087	8.582886261836066
O	-9.731094158768851	-0.368984488229509	5.579178211836066
O	-8.465375028768852	-3.8017769382295095	4.542816431836066
O	-5.521500248768852	-6.172889448229509	4.179231611836065
O	-2.7641281387688523	-5.474630108229509	1.7430327318360654
O	-0.9769864867688524	-8.12026342822951	-0.22499108116393451
O	2.1926565812311476	-8.06203215822951	-2.3526280481639343
O	1.6644845012311476	-9.69062147822951	-5.740109298163935
O	2.2375421912311477	-9.894304878229509	-9.471449118163935
O	1.9442480012311476	-4.721483758229509	-7.394367598163934
O	0.3124393322311476	-4.136042788229509	-4.038789168163935
O	-3.260836588768852	-5.391855068229509	-3.699345938163934
O	-5.549056438768853	-4.036766348229509	-0.9774932481639346
O	-8.750352078768852	-6.106675768229509	-0.35083138016393456
O	-11.451167428768851	-4.219774448229509	1.4860969178360655
O	-13.31994302876885	-5.648253328229509	4.478573791836065
O	0.38958669923114764	7.253649821770491	-5.834122218163935
O	-2.011602008768852	6.141119321770491	-8.439331358163935
O	-4.527810158768852	3.3129581117704907	-8.443052498163935
O	-3.8688588287688526	1.129684322770491	-11.523386318163935
O	-7.567588498768853	-2.302618188229509	-5.458914118163935
O	-4.333495918768852	-2.6973129582295092	-7.413325408163934
O	-1.4314171987688524	-0.27917480822950913	-7.501609938163934
O	2.3324669812311476	-0.253715558229509	-8.241471688163934
O	4.345833551231148	-1.828528898229509	-5.381506218163935
O	9.390244181231148	-1.835055768229509	-2.1056027881639343
O	10.51549787123115	0.21095701177049087	0.8462920758360655
O	7.186950721231147	0.11670279177049103	2.6766358418360654
O	5.660216431231148	2.988307201770491	4.378959851836066
O	7.657244761231148	5.9511241417704905	5.665806311836065
O	6.645094911231148	5.415813711770491	9.300918411836065
O	8.170957221231149	1.938662882770491	9.429612731836066
O	-6.344007018768853	10.061984501770493	6.485155951836066
O	-0.2372652927688524	10.091997881770492	8.287513261836065
O	3.3026634112311477	8.69939902177049	8.006412491836064
O	1.7544963012311476	5.260392421770491	7.581538391836066
O	0.18342594923114763	6.835674041770491	4.392937321836065
O	3.4040188312311477	8.11498977177049	2.7983818718360656
O	5.356298411231148	5.36710786177049	0.9110791928360654
O	8.925368931231148	5.098382811770491	-0.026487542163934563
O	9.67931661123115	4.520104251770491	-3.7134980881639343
O	13.34450557123115	5.06204405177049	-2.8726574581639346
O	8.366746131231148	9.45791215177049	-1.2107082081639344
O	4.6842435212311475	9.45730445177049	-2.2914605081639343
O	1.2094493512311477	9.977029761770492	-0.7453347281639345
O	-1.3998014487688524	7.195544601770491	-0.9707645481639345
O	-4.730941878768852	5.767609371770491	0.4283886508360655
O	-6.677501948768852	9.12492617177049	-0.2520654791639345
O	-10.374620128768852	8.811833901770491	-0.8717503081639345
O	-10.878124028768852	5.480590341770491	0.8839880298360654
O	-11.975847028768852	7.197054871770491	4.075994691836065
O	11.919272271231149	-8.556943578229507	2.2659565618360653
O	9.880948771231148	-8.073963308229509	-0.9221551581639346
O	11.260519571231148	-10.464925878229508	-3.5982023481639347
