32

O	15.232825628952643	31.328041491969916	85.5548947021678
O	16.945287045960534	30.801350413751496	86.989571100998
O	17.504094714640118	31.393124656723405	88.08233834270662
O	13.730161705595567	33.711595594286536	87.23837241138264
O	17.41606009238528	34.87259438850014	91.13351497236587
O	13.55282947214487	32.341617622406766	87.5841178450908
O	16.324714597549924	34.29544115223765	91.70798009837618
O	12.737929428647048	34.763772106404765	89.59851565934848
O	14.45365456517831	32.867659087755584	90.92840394935483
O	14.420426063939308	35.75504624422743	90.31136026902207
O	17.960610950018182	33.164150637029806	86.8996651747879
O	15.671125376514997	33.87418557114577	87.73075555937875
O	21.33990749264217	32.82223092160202	84.79592397960639
O	20.46303290112288	32.12022180151397	83.80997455167046
O	19.145982097570272	31.73659144844813	84.24095624318645
O	12.47451384019547	35.082450270590144	90.80195612819685
O	13.838071382053647	32.504999458925944	89.80261595798495
O	17.932687406051535	32.38814941362777	84.53920292695162
O	13.574476325092403	35.70683136027775	91.3070602309343
O	18.96158592772539	30.536153969120544	84.60988008562333
O	19.164939925025585	34.28282024198376	90.03017366946627
O	16.480802300573693	31.654271898611526	86.0706281314111
O	14.556550227099097	34.523929257503916	88.07566393021695
O	13.935532003231543	35.42561868277417	89.10567647566496
O	17.958387945183297	32.738861132961475	88.09720556124206
O	17.383949181538995	32.57618636248039	85.8229776039448
O	17.906392833764784	34.27641381621152	89.97129965703658
O	15.697635901026302	33.400966461214985	90.82210405307713
O	14.355184888397659	32.036658132241236	88.66968948611073
O	15.607326510715037	32.63999617307454	88.52317411098285
O	16.32608627956033	32.792334386721386	89.77056792935716
O	17.408685699150745	33.30206515514877	89.2369559803654
