40

O	13.581211511321099	32.81549450456814	88.34118987425738
O	14.569474513023449	32.73817450086653	87.41005205644645
O	15.287446229591762	33.910990977714825	87.59937045046757
O	15.467648225414571	34.1891967880047	88.9132367604548
O	14.302915751618153	34.58294970027548	89.81723623729002
O	13.297416145400952	34.01566208323196	89.06854347843405
O	14.830615937433832	34.526551125387904	91.11002948728553
O	15.686387131586843	32.89233768917991	89.43842160410712
O	16.492508118570207	32.25418406653034	88.69542537360884
O	16.56913523359646	30.963461409824777	88.1039636021689
O	17.9861668017259	30.750878063328372	88.05220444802843
O	18.576218382234806	31.961333737948035	87.69871957445083
O	18.306664567279125	33.337575708636436	87.7993886979053
O	17.004005042820047	33.02660862034541	87.46917231762808
O	18.166614752467776	34.36545174379753	88.62024445976057
O	18.231033785077337	33.721795158887204	89.86297346173512
O	19.217666289958014	34.806429474538554	90.34133312080867
O	18.109704543319147	34.58475857949034	91.51779594998361
O	18.915893036012072	32.60221022026597	89.827776996177
O	14.724882319908255	32.241325560310955	86.18218224200874
O	15.884633336443754	32.02225712379383	85.46691685045678
O	16.412785053697633	30.7904232053954	85.04223810466297
O	17.688283070325873	30.2590049823272	84.92411598537886
O	18.097008212582672	31.19579773999355	83.95401699544308
O	18.023646168296185	32.45204917176662	84.53728898890552
O	16.9505241131899	32.90101038543186	85.2526121755686
O	18.34412030603489	30.63011233393004	82.72063718813604
O	19.638450471435213	31.243448373639964	82.38379298955628
O	20.10050604919286	31.823356463897554	83.6882908369214
O	20.299054372204868	30.775842432995077	84.48406196100758
O	19.913780843178284	29.57425953084819	84.08596760304934
O	18.934611397037123	29.318303916843913	83.00494852324677
O	21.034899913446466	31.40989531799426	85.45739084150766
O	20.038802591219728	31.25507020156063	86.45831854697936
O	20.794132915378086	32.864247517793984	85.74183152725094
O	15.567056757657344	30.189700515199036	84.16823060792781
O	14.652823674887427	30.15553053239347	85.278558467963
O	15.797628764378127	35.46632173453508	90.72652222320443
O	15.55795023598555	33.38482756060383	91.21815068380641
O	14.63413219096091	34.886966252910014	92.32342812377641
