102

O	-0.6684388704454537	-2.444778919924243	-1.6863938593484853
O	0.08356399375454626	-4.686367039924243	0.6427046516515147
O	-0.9856220222454537	-4.612680129924243	-0.3308371883484853
O	-0.5288585142454537	-4.495588499924243	1.9127883816515148
O	-0.6665801350454537	-0.10303676992424293	0.3118223216515146
O	-0.9023244272454537	-0.873501489924243	1.3575052116515147
O	1.3871949267545465	-0.35645087992424296	0.9436221616515148
O	3.0919660067545465	-0.324529679924243	-5.941855348348485
O	3.5076517367545463	3.6366146300757567	-9.070827608348486
O	2.3503546167545464	3.0703248700757575	-8.308296338348486
O	1.9235251167545462	-0.31823679992424303	-5.036697208348485
O	2.9468212167545462	0.6595109360757571	-7.039494458348486
O	-1.6919926152454536	-2.7992807299242433	3.217761771651515
O	2.7422616667545463	1.9145379860757572	-4.853289548348485
O	-0.3884287072454537	2.481136500075757	0.8445365916515146
O	-1.6374294962454536	-2.924732199924243	0.7211149816515148
O	1.2832807467545462	0.09106253107575701	-2.4373220983484853
O	2.9354500367545464	4.114123480075757	-6.360331248348485
O	2.6591104867545465	3.047093070075757	-6.910999708348486
O	-1.2643473512454537	-3.292216239924243	-0.5374388043484853
O	1.3057814867545465	-1.4338218499242428	1.7806204316515148
O	-1.4613794452454538	-3.4491433699242435	1.9465294516515148
O	0.5811429967545463	-0.2608053099242429	-0.15542405834848538
O	-0.012557908245453664	-1.729197369924243	1.9087289116515147
O	0.8615132567545463	0.576663192075757	-1.2862796037484854
O	1.6525877367545463	1.049121957475757	-4.545811568348485
O	3.0350970367545465	1.891843947075757	-6.254109638348485
O	1.5240788567545462	1.168735073075757	-3.1299708683484853
O	-0.4878064402454537	-2.1440836499242426	3.0936546316515146
O	2.0457199967545465	-1.748744929924243	3.3921755416515142
O	0.5455848367545464	4.101931680075757	-0.5697303813484853
O	0.9844789967545464	4.497013640075757	-1.7927539223484854
O	1.5566957867545463	3.6263110100757574	-2.6665921183484853
O	1.2874669367545462	2.324182460075757	-2.516502228348485
O	0.7158849367545463	1.931083431075757	-1.3099863509484853
O	0.3287248267545464	2.795850210075757	-0.3276985883484853
O	11.277137086754546	2.6941647700757567	14.440007731651514
O	10.832667586754546	2.937097160075757	10.674209731651514
O	10.986121786754547	2.379022240075757	-3.6853565983484855
O	7.468455546754546	2.854171930075757	-4.805631998348485
O	7.027690776754547	-0.282908799924243	-6.865986518348485
O	6.949703956754546	-3.927741599924243	-7.3218202783484845
O	3.7412733167545467	-5.537892629924243	-6.094221338348486
O	2.6875303867545464	-9.142417469924244	-6.650530728348485
O	3.4196779867545466	-10.370711769924243	-3.1233657683484854
O	6.337661626754547	-8.052949149924244	-2.4168132083484855
O	7.971251356754546	-4.699603389924243	-3.0239819283484852
O	6.382956446754546	-1.5347201299242428	-1.6822152103484853
O	8.567089266754547	1.263208404075757	-0.3104847983484853
O	7.809473556754547	4.834087500075757	0.7114662616515148
O	9.152602166754546	5.705752260075757	4.154070471651515
O	8.854076796754546	7.345435420075757	7.548478751651514
O	4.776627956754546	8.912793380075756	6.238044711651515
O	4.093255286754546	5.265064150075757	5.477750811651514
O	4.100276286754546	2.620762930075757	2.742553861651515
O	6.246416446754546	-0.38359019992424304	3.7032781216515143
O	5.685348806754546	-3.6761387599242434	1.8894374316515146
O	8.312538576754546	-6.333903429924243	2.2687352616515146
O	7.232989546754546	-9.872368869924243	1.3885195516515147
O	9.253024846754546	-12.138562169924244	-0.9233156523484853
O	-5.938870243245454	-6.362931639924243	8.413892441651514
O	-5.3806164532454535	-3.945322969924243	11.309361631651514
O	-10.657764543245454	0.5211535790757571	3.319803931651515
O	-6.956627323245454	0.802081223075757	4.1447196216515145
O	-5.883633643245454	-0.36446337992424294	7.568752351651515
O	-2.597663083245454	-2.0892676799242427	8.484992471651514
O	-0.8259985162454537	-0.07624976992424304	11.165947231651515
O	7.3743474567545455	-6.035318809924243	6.626959601651514
O	3.887825096754546	-4.594804059924243	6.720571921651514
O	3.418452696754546	-0.9061010399242428	7.556825821651515
O	0.4489507267545463	1.245929692075757	6.603435781651514
O	-0.4238094702454537	4.825437110075757	5.958556821651515
O	1.0427835467545463	6.263879160075756	2.736592541651514
O	0.2377522237545463	10.335501940075757	-1.5221616853484854
O	-1.6782688232454537	10.028197570075756	-4.797597318348485
O	-0.7536234960454536	6.514364420075757	-5.508526348348486
O	-2.9314134032454535	3.8152651500757573	-6.979880298348485
O	-6.126844713245454	4.536900390075757	-8.907571848348486
O	-4.909961303245454	2.6707312700757573	-12.009515168348486
O	-7.3376462432454534	-9.672970269924242	-5.487207458348486
O	-9.436259223245454	-6.561077679924243	-6.120498788348485
O	-8.205476073245453	-4.5234027499242435	-9.110572538348485
O	-7.630846923245453	-0.843565679924243	-9.899995938348486
O	-3.992766053245454	-1.3860383599242427	-8.876607278348486
O	-5.3698447032454535	-2.2398055399242427	-5.483256658348486
O	-7.425240803245454	0.8266445070757571	-4.926096878348485
O	-5.453976643245453	3.7921396700757573	-3.6234946983484853
O	-6.136756823245453	7.509433950075757	-3.808719348348485
O	-6.116732333245453	9.377075700075757	-0.49441932034848535
O	-7.406701973245454	12.455736230075757	-2.3724795083484853
O	-11.542434713245454	9.802500040075756	-1.7351892123484853
O	-10.338538723245454	6.289178740075757	-2.6934098683484855
O	-9.638680883245454	3.208357930075757	-0.5655954083484853
O	-9.250655563245454	-0.5351415199242429	-1.0285434123484853
O	-6.053495783245454	-2.164495349924243	0.11104502165151464
O	-4.355866653245453	-5.668794799924243	-0.02043494834848536
O	-7.101780803245454	-7.739775499924242	1.1372544816515147
O	-6.116891833245454	-10.967083969924243	2.8693637916515145
O	-2.580406113245454	-11.237075269924244	1.5046634916515145
O	-3.7228372532454537	-13.602900069924242	-1.2438239073484854
O	6.458937766754547	11.655946730075756	-2.8004378483484853
O	8.244034216754546	14.182079330075757	-0.5495319453484854
