99

O	-2.2990234486333336	0.9232661052816673	1.168963550266667
O	0.8750984673666662	1.2676374312816674	-0.990775055733333
O	-0.48572587963333375	1.0363576182816674	-0.771257897733333
O	-0.6523697216333337	1.0939178102816673	0.641261410266667
O	0.23414059036666626	1.8533991582816673	1.2770306402666671
O	1.0350909893666662	2.8348560222816674	0.8115134202666671
O	1.4200507613666662	2.355323608281667	-0.406167172733333
O	0.7871238013666662	1.1190237502816673	2.348286160266667
O	-0.008673959033333734	1.8349143642816674	3.164073630266667
O	0.5971427633666662	2.8730447022816676	3.7601834702666674
O	-0.30741411863333373	3.3854242222816673	4.724109780266667
O	-1.1268996386333339	2.4538540272816673	5.349681010266667
O	-1.9025602186333337	1.7451758012816674	4.484433770266667
O	-1.1264076486333339	1.1664786452816673	3.5453464702666673
O	-2.6873229386333337	0.7853293812816673	5.312605450266667
O	1.1353208713666663	-1.4602330377183326	-4.699551399733333
O	0.005328925866666265	-1.2962934277183327	-3.9948912297333328
O	0.13713275296666627	-0.3400732077183326	-3.041714189733333
O	1.3676938313666662	-0.07331530771833261	-2.538976069733333
O	2.2048505213666663	-0.6624510377183328	-4.6095566297333335
O	2.3888282413666664	-0.01423350771833265	-3.386028129733333
O	3.5522210113666666	0.6236442032816674	-3.388417939733333
O	3.8253491513666664	0.7731056642816674	-4.724187239733333
O	3.4063551913666665	-0.44985832771833256	-5.247072359733333
O	3.9290966813666666	1.3181585572816674	-2.198410259733333
O	4.319172371366666	-0.004889177718332638	-1.408244528733333
O	5.708025121366666	-0.06208281771833257	-1.668569159733333
O	6.342191781366666	1.2074879702816674	-1.407326529733333
O	7.452464931366666	1.5163090521816673	-2.312740429733333
O	5.596622981366666	2.1793419052816674	-1.250838109733333
O	1.7054565813666662	0.06777354228166743	-1.2160787997333329
O	6.915063761366667	1.1836961102816672	-3.6610299097333328
O	6.588089911366667	-0.32927737771833265	-3.5759164497333327
O	7.1000749513666666	-0.6122975477183328	-4.847250249733333
O	6.9888514013666665	-1.8736041677183328	-5.272247629733333
O	8.541811661366667	-0.33045647771833275	-4.644089509733333
O	-3.351840368633334	0.14253818228166737	4.390051260266667
O	-3.2937537686333336	1.4335399024816673	6.275242170266667
O	-1.7814898786333337	-0.0077962477183326495	5.898692420266666
O	-4.5652598586333335	-13.674568707718333	1.5222092302666672
O	-0.8776736986333338	-14.235963407718334	0.9618929002666671
O	2.1146325213666666	-11.944159507718332	0.625562990266667
O	6.409203751366666	-10.265321607718333	-3.403909829733333
O	7.792973421366667	-7.266000557718334	-1.5717001817333331
O	6.950872311366666	-4.108938417718333	-2.8186430597333327
O	8.989566881366667	-2.045975607718333	-0.145392072733333
O	9.772149161366666	-0.11500716771833264	2.781621560266667
O	7.189582011366666	2.6265382622816675	3.6735549802666667
O	7.768422551366666	4.927157622281667	6.518252840266666
O	5.169245631366667	3.1459619222816673	8.746899460266667
O	5.670373561366667	-0.30465310771833276	7.369000710266667
O	6.667269251366666	-2.5851123077183327	4.514701820266667
O	4.225689991366666	-2.9995630077183324	1.6861495502666672
O	3.8114941313666666	-6.271177877718333	-0.228283244733333
O	2.1307095613666664	-7.307142697718334	-3.480130119733333
O	-0.25166455763333373	-10.218889107718333	-3.078926669733333
O	-3.8607494886333336	-6.441558157718333	-3.487229869733333
O	-1.1409988986333337	-4.419768147718333	-1.7512574197333328
O	-0.5032177156333337	-5.420061097718333	1.8090993202666672
O	1.3900495913666662	-3.1311796277183324	4.112576240266667
O	2.6370059813666664	-4.682407497718332	7.408036650266666
O	3.3161444913666664	-2.253678907718333	10.223411710266667
O	6.577700131366666	-2.1745766977183325	12.210946010266667
O	-9.680536818633334	4.431211932281667	6.321109830266667
O	-12.155136558633334	1.9020494882816674	4.959925230266666
O	-7.452343548633333	4.844449392281668	-1.6097308597333329
O	-9.689150958633334	2.8579135522816674	0.5408826602666671
O	-8.560035678633334	0.2822450122816673	3.004586030266667
O	-10.266945158633334	-2.986558107718333	2.1734711402666673
O	-9.362882988633334	-5.135667607718332	5.114370730266667
O	-1.543722258633334	-5.984050257718332	8.139506430266668
O	-3.5400883086333335	-3.6048231877183325	6.028976530266666
O	-5.0162282286333335	-4.714797497718333	2.734076730266667
O	-5.936429248633334	-2.397152147718333	-0.07990555973333302
O	-6.467217548633333	-2.684902657718333	-3.835633849733333
O	-3.1779430486333338	-2.9474150377183324	-5.791177329733333
O	-0.5396860906333338	-1.6539535677183328	-10.970032889733334
O	1.2831840713666662	1.5477727193816673	-12.006296489733334
O	2.9181573713666666	2.195226452281667	-8.562163299733333
O	3.4313851413666665	5.643316662281668	-6.976788009733333
O	3.0817480913666664	9.043103962281668	-8.867783219733333
O	6.464153081366667	10.301547082281667	-7.702002679733333
O	3.7979760413666663	12.501798192281667	-4.350895119733333
O	4.9623668313666665	9.260176422281667	-2.7665227797333327
O	1.6283019013666662	8.794456722281668	-1.296793780733333
O	-0.31466014063333375	9.332063882281668	-4.525983729733333
O	-0.7002211226333337	6.086359282281668	-6.507783889733333
O	-1.4360517386333338	5.594838562281668	-10.197977539733333
O	-4.496621758633333	3.502804942281667	-11.003613689733333
O	-4.011962648633333	4.4343120022816676	-14.678497089733334
O	-3.2767164886333338	6.888115982281667	0.07074596526666699
O	-1.8837173586333338	6.691180852281667	3.5377704002666674
O	-3.9695183986333333	9.199027982281667	5.308781340266667
O	-4.530272418633333	8.749752512281667	9.035671230266667
O	-1.5203486686333338	6.493646242281667	9.715059410266667
O	0.5894518833666662	9.406079642281668	10.884945210266666
O	-1.897927238633334	10.111858112281666	13.757553210266666
O	3.5820006213666664	-6.7639621977183335	-11.243511089733333
O	2.3041186713666666	-10.055979907718333	-12.552782689733334
