33

O	18.020037713045742	24.543207516041473	82.77518027585275
O	19.058343262063012	34.520810509664415	90.51235666175785
O	17.216091206890546	35.845365042051	94.83352255962075
O	16.1686296730874	35.41491224033795	94.0877925567819
O	18.291140779336065	35.1703783232289	94.39374844870346
O	16.362587334962704	35.15847784403269	92.76595586144956
O	18.468225011890972	34.947125694157506	93.05223069193049
O	18.445176744381264	32.48629226447761	86.97358542793832
O	17.555996785100245	31.042043357361816	88.18242276714332
O	17.78386049023925	33.45831737186884	87.76608804890084
O	17.23937040859486	32.12407076342618	89.06389931317942
O	15.005710275480894	32.217811128411576	88.92374971624211
O	17.81024536184864	25.94789934043127	82.2806770321441
O	16.71203896487256	27.752004619227982	83.48912831141092
O	18.95718287480591	27.808658795003694	83.32145404915092
O	16.76254041976509	28.98082995921377	84.22999759861153
O	18.79898383563076	29.160544235991267	83.83122462828601
O	18.05776537346481	30.488053669753796	85.73359347138573
O	18.33172156095028	31.102681284857542	87.0987461883966
O	16.642653437304414	33.17663967874489	88.28974713880261
O	17.404231771107234	34.4505653617361	92.30903381123329
O	16.47069783279115	34.845874972268355	90.31064493553691
O	13.853876709060652	32.806614810142406	87.9396465462274
O	15.226555267807687	32.872531231974804	87.54253324366819
O	17.70134903955083	34.693511798901085	90.90057754422988
O	17.84840368502248	26.92871137052026	83.3066749260708
O	17.905997447366296	29.477092339688305	84.90824690980307
O	14.187423703604408	34.6919450030502	91.19134007663136
O	13.050413136707608	34.96935734983683	90.55126930628836
O	12.53118147990125	33.95634342489287	89.7751154253922
O	13.528509412164933	33.36000405853213	89.06268943621751
O	14.858058395971987	33.43631212408475	89.51327406472508
O	15.24390500944221	34.09402065509972	90.62353970268313
