82

O	2.7965174579568624	4.213432226617647	-0.5422670605882345
O	3.921082197956862	6.741038996617647	-0.09203826958823447
O	1.7775144979568624	8.310761446617647	-0.7130587019982345
O	4.341197057956863	3.0966638666176474	1.1153599884117655
O	3.160691967956862	2.9109408066176474	0.3655043284117655
O	4.9997930979568626	1.7593293872176474	1.0821035084117656
O	3.9412492079568624	0.8579964646176473	1.2942194684117658
O	5.4719932479568625	1.5429712476176474	-0.35307754558823445
O	6.752109797956862	2.054758760617647	-0.43239917058823446
O	5.4109157979568625	0.018840306617647462	-0.38223594658823445
O	6.505533127956863	-0.5436287033823528	0.2434390704117655
O	4.272985827956862	-0.19705719338235284	0.5642924784117654
O	1.6051950179568624	-4.090501363382353	-0.8604872565882344
O	2.4711439079568622	4.1467833566176475	-1.9741202515882343
O	4.307873447956863	7.505956306617648	-1.3542969945882346
O	2.494258077956862	8.484697856617647	-1.9919823015882345
O	2.7546352879568623	-4.077136533382353	-0.20997904258823452
O	1.3462410699568625	4.850363856617648	0.10578206641176557
O	4.836835097956862	7.632218586617647	0.9442809784117655
O	0.25126891295686243	8.085163156617647	-1.0971155295882344
O	3.2332408479568624	-2.9006695933823523	0.1661777704117655
O	2.2099532979568624	6.802294386617648	-0.07276706258823451
O	4.135235067956862	5.195625636617647	-0.3520256345882345
O	2.8031428979568624	9.255489346617647	0.17292746341176557
O	2.769428607956862	-1.7814253133823525	-0.37417170258823446
O	1.5725979279568625	-1.7656434733823527	-1.0273157215882345
O	1.1079801899568624	-2.9875296333823527	-1.3943486765882345
O	-0.03672203604313756	-3.0528472633823527	-2.1719632215882343
O	1.2917940089568625	-0.5258589933823528	-1.3846635685882345
O	2.2685569079568624	0.22878914661764727	-0.8957751665882345
O	3.1176026679568625	-0.5210316033823528	-0.21594754858823445
O	-3.8204865320431374	-8.745261513382353	11.784421738411766
O	-1.1159148420431375	-6.2367909833823525	10.915566138411766
O	4.827021197956863	-5.8884170133823535	9.438153438411765
O	5.020323397956862	-2.3539143733823527	8.154184498411766
O	5.331115507956862	-1.9224843033823524	4.424175128411766
O	5.650642267956862	1.8392978291176474	4.413847458411765
O	4.314425267956863	5.214853676617647	5.246742248411765
O	1.8691849079568623	6.403175186617647	2.733992208411766
O	0.40353555255686246	10.010853676617648	2.5901897384117656
O	-2.9953354020431378	8.974899236617647	3.3264893384117653
O	-1.8984719820431377	6.441718976617647	5.9413979384117654
O	0.49750304665686246	3.6454913366176473	6.868596168411766
O	0.39431358585686244	0.43580496661764734	4.788923698411765
O	1.0215873819568624	-2.8439465833823525	6.589332878411765
O	1.5928985879568622	-6.323247913382351	5.331042588411766
O	-0.6197498420431377	-8.885355813382352	7.074908748411765
O	-2.0652069920431377	-5.285178233382352	2.6471138184117655
O	-3.7118130020431375	-3.1305076033823522	5.154857978411766
O	-3.779145552043138	0.6055726866176474	4.941334888411765
O	-4.7968584420431375	2.4903144486176476	8.113169828411765
O	-5.846458582043137	6.095277076617647	7.545313918411765
O	-4.530157592043138	8.984356236617648	9.651567738411766
O	-6.387888922043138	-3.121246253382353	-7.683749501588235
O	-9.612985332043136	-3.8628397733823525	-5.917732011588235
O	-10.476847132043137	-3.1101521833823527	-2.2968177015882345
O	-8.682604692043137	-0.7247677733823528	4.089780898411766
O	-7.885489542043138	-4.330360103382352	3.1856663284117657
O	-6.738178212043137	-5.419038313382353	-0.24109935558823448
O	-0.9329712720431375	-8.037762753382353	-1.1714074845882345
O	4.472539397956862	-9.377247813382352	-3.2963218315882346
O	6.705193267956862	-7.461576573382352	-5.685241221588234
O	5.9905840579568626	-4.027857053382352	-4.2434545515882345
O	5.408273087956863	-0.8242390933823525	-6.138228371588235
O	6.685660957956863	-0.33611561338235285	-9.717888131588234
O	8.832892317956864	2.652600181617647	-8.853750931588236
O	11.019857567956864	0.6983208566176473	-6.399633171588235
O	4.784035747956862	4.8801875266176475	-10.470182511588234
O	4.543085987956863	4.5996754066176475	-6.588921021588235
O	0.8500046739568625	3.982147226617647	-6.978626251588235
O	1.2829278509568625	1.1773615196176475	-9.633874061588235
O	1.9622847379568626	-2.197350413382353	-8.008546331588235
O	3.6551831979568625	-5.319877103382353	-9.361352971588234
O	-4.0551745520431375	1.3692447666176473	-6.822645771588235
O	-4.955082422043137	4.198270136617648	-4.406148411588235
O	-7.561802052043138	5.781111516617647	-6.659948451588235
O	-10.311314432043137	7.689568646617648	-4.9079782815882345
O	-8.462566612043137	8.204787576617647	-1.6331806435882346
O	-7.425957052043137	11.710978466617648	-2.7023030115882345
O	12.604364267956862	11.772186516617648	-9.311688371588234
O	11.343746267956863	-9.723167413382352	1.9005253584117656
O	7.605276897956863	-10.369353113382353	2.2794256484117654
