36

O	18.582235407757054	35.97191047556447	92.36554813310227
O	18.68053796603933	35.59016169845873	95.66092822645204
O	19.16685237538404	36.63574633568999	94.78535797033574
O	17.597472480522715	36.15929571818555	96.38730697236392
O	15.531746674063626	35.58068999405294	92.23103910571196
O	15.337370636782149	35.9362933134434	93.48738627026383
O	15.528115088028253	33.594255344783626	93.08862055910743
O	20.439973650439605	31.927777724976874	88.24986434035874
O	19.799766778332035	30.87842496662136	83.33631977212102
O	19.54194074187958	32.110550924746526	84.14679248122992
O	19.672441543685256	33.07671771430193	88.77468463169848
O	20.470839031996828	31.91310497925589	86.76897048914667
O	15.34466250473335	37.02508727863705	96.05783964027405
O	18.045198928722176	31.902894632490572	87.48492806640992
O	13.347320748353175	34.881575520649825	90.89738752910222
O	17.155681814658486	36.99923696362507	94.33403535335817
O	17.516528840964078	33.6335589359205	90.31616380129924
O	17.526890312388264	31.35664263796506	84.91984761660561
O	18.636415736403663	31.80560651241297	85.21231636451196
O	18.328516826228405	36.695111375284796	93.70940898425428
O	15.715710055069696	33.84848562717321	94.41831885234961
O	16.71136091190706	36.90778156877633	95.59967991842946
O	16.116727030292623	34.377036683663995	92.13596126033474
O	15.679876532179952	35.19700944476238	94.5662266374868
O	16.326967824117762	33.96669233885801	90.77720757905398
O	18.322457995846378	33.11864434944232	88.17482437738244
O	19.05888084893864	31.621900225901832	86.51433257601813
O	17.24888270156284	33.22161658776005	89.10877272878028
O	15.106019791177713	35.730246485163136	95.65635848913084
O	14.924318518233274	33.16530337031366	95.88486474552883
O	13.269836317812818	33.69899491057766	88.87377475722356
O	13.879650314396462	33.20497763081328	87.76536227195257
O	15.173092122472797	32.7856571622938	87.78344406489958
O	15.970766643064165	33.26401447181425	88.745441753621
O	15.354806430968615	33.88865265568467	89.82587386537504
O	14.013544871277524	34.1260638650313	89.91106264141129
