88

O	0.16367104080701733	4.573831485754386	-0.26934946405263116
O	-1.1596499811929828	5.914161715754386	-2.245875769052631
O	-3.7845929211929823	6.364450965754386	-2.3769667490526314
O	2.5414878388070177	4.779937645754387	-1.174634058052631
O	1.7037546088070175	3.986582335754387	-0.3625565310526312
O	3.521113298807017	3.8176741457543866	-1.7576351660526313
O	3.7457633288070173	2.8736199257543866	-0.7305127700526312
O	2.9549946888070178	3.0286792957543867	-2.9365512990526312
O	3.542665858807017	3.5994228057543864	-4.077519169052631
O	3.512957938807017	1.6034695071783867	-2.706071759052631
O	4.743627378807017	1.6067396701743866	-3.3242161590526313
O	3.531899518807017	1.6252895117543866	-1.2155299780526312
O	3.2997151088070176	-3.1646583442456135	0.36455355094736885
O	-0.28502383919298263	5.039368745754387	1.0594355309473689
O	-1.7172999711929826	4.565940155754387	-2.3238750690526313
O	-4.943976961192983	7.033567895754387	-1.892654311052631
O	4.287175178807017	-2.4984668742456133	-0.26194325505263116
O	-0.9101248971929826	3.424532075754387	-0.7299579050526313
O	-0.8162161811929827	6.793975985754386	-3.567814839052631
O	-3.330962311192983	6.944406465754387	-3.8487880690526315
O	4.135117168807017	-1.2461500742456133	-0.6830089150526312
O	-2.406364961192983	6.7979745557543865	-1.438081809052631
O	0.12882073180701736	5.851745955754387	-1.2942899430526311
O	-3.8379864611929824	4.742223525754387	-2.047764809052631
O	3.0148389888070177	-0.5780757842456135	-0.38018500205263117
O	2.0557717188070175	-1.2442659142456134	0.33336210094736873
O	2.130247578807017	-2.5811209642456134	0.6191774809473688
O	1.1621696388070173	-3.2284040542456136	1.4097555509473687
O	1.1058597988070173	-0.3938329642456133	0.6492099509473689
O	1.4450138388070173	0.7751526957543866	0.023036357947368802
O	2.651015788807017	0.7209320927543866	-0.5511164840526313
O	9.578306458807017	4.597718805754386	4.7651365709473685
O	7.887432678807016	3.238627805754387	1.6428114009473687
O	6.082400718807017	6.340694575754386	0.48971838094736875
O	3.6270832888070172	9.122553915754388	1.095745860947369
O	0.1718897788070174	8.139219085754387	0.36172194094736876
O	-2.933140061192983	10.235572725754386	0.056551620947368764
O	-4.426118911192983	9.190758515754386	3.4189597309473685
O	-1.1331445521929826	8.720537925754385	5.278828760947369
O	2.4923963188070175	7.599350415754387	5.113510260947368
O	3.269279648807017	3.9462967257543866	4.507683600947368
O	6.2333809188070175	2.2923821777543867	6.205392350947369
O	7.921469088807017	-1.0511298842456132	5.728871500947369
O	8.361533578807018	-2.9581560242456133	8.961629820947369
O	4.472397178807017	-5.820342124245613	6.961658460947369
O	3.467677228807017	-2.4918776642456137	5.4410183709473685
O	2.2730736088070174	-0.018773804245613368	8.06291200094737
O	0.13568958680701737	2.9409479457543863	7.062834920947369
O	-0.14417949719298262	5.746550795754387	9.664515260947368
O	-3.081526281192983	8.091525645754388	9.086797660947369
O	-2.749291461192983	11.887301365754386	9.132907560947368
O	-7.6397599911929825	-8.343939274245614	-2.574037599052631
O	-5.300685771192983	-7.252833034245613	0.21704336094736887
O	-6.480943541192983	-7.921033594245614	3.727956480947369
O	-5.892340931192983	-5.694601584245613	6.756771420947369
O	-3.057528601192983	-0.01197517424561334	9.813236460947369
O	-0.9751768811929826	-3.1671157242456136	9.429936560947368
O	-1.0707059851929825	-5.386741484245613	6.385430580947369
O	4.082832688807017	-6.387799634245614	2.7919379909473685
O	7.746129798807017	-7.088525234245614	-1.8473142150526312
O	7.265383028807017	-5.9706114542456135	-5.445341499052631
O	5.570471568807017	-2.6153555142456133	-4.624933309052631
O	2.697545758807017	-1.1226471742456132	-6.509638019052631
O	1.7777643088070174	-2.0213584342456135	-10.098053129052632
O	2.0913824988070173	1.5768224237543866	-11.356405039052632
O	5.768828738807017	1.7972199307543866	-10.464063369052631
O	-10.175586811192982	4.931436995754387	-5.123794019052632
O	-9.046990141192984	2.2575751157543866	-7.535448419052631
O	-5.974551191192983	3.0514330757543866	-9.614856499052632
O	-2.7379493811929825	1.3507568487543866	-10.651542439052632
O	-1.0679545401929826	2.9138223857543863	-7.541925219052631
O	-3.5366346311929826	0.9943296077543866	-5.397026159052631
O	-2.8777802611929824	-2.4029065742456135	-7.025646499052631
O	0.09881804880701739	-4.223531624245614	-5.4570707190526315
O	2.357029618807017	-6.9016196542456125	-6.829212359052631
O	2.6757602888070178	-10.016725034245614	-4.675765759052631
O	-1.5443577311929826	-8.727903734245613	-8.240732389052631
O	-3.9005456111929826	-7.487824194245613	-5.497200249052631
O	-6.148712071192983	-4.512241794245614	-4.785899929052631
O	-5.610225261192983	-2.491571634245614	-1.6284726740526312
O	-6.764832241192983	0.7379677697543866	0.08423930094736887
O	-10.479963141192982	0.1585531657543866	-0.31523306205263124
O	-12.763368441192982	1.7062772237543866	2.317358080947369
O	-10.243440841192983	4.367700155754386	3.4510336409473688
O	-11.906043941192983	6.950894855754386	1.2317311909473685
O	13.273899758807017	-5.764646224245613	-4.512483979052631
O	15.259903758807017	-2.816857034245613	-2.125429089052631
O	13.023718758807018	-4.214183664245613	0.6316445309473687
