90

O	-6.733111628065574	-0.07278587516557455	1.6692751035
O	-5.289514928065574	0.0919823348344253	1.1748177735
O	-4.629106488065574	-0.9535250351655744	1.2804735534999998
O	-3.462548668065574	-0.8545952251655744	0.3575672634999999
O	-1.937337185965574	-1.3630068051655746	0.7862401034999998
O	-2.778831196065574	-1.0766885151655745	2.0153951935
O	-3.352846208065574	0.04693390483442528	2.3275890835
O	-4.069529448065574	1.1453453498344253	1.7077191534999998
O	-3.508547478065574	0.7002688598344254	0.24453356749999988
O	-4.902781158065574	0.9901649288344254	0.3175466604999999
O	-5.818395658065574	1.9369768198344253	0.7662967234999999
O	-5.770190258065574	2.7347480648344256	1.9569579034999998
O	-7.147462248065574	1.8346587318344254	0.17079442049999993
O	-2.300804164065574	0.7115153248344254	1.5164744435
O	-1.714441214065574	0.24917164483442544	0.6107475234999998
O	-0.3397967880655739	-0.4717735051655745	1.1759168934999997
O	0.02790775193442596	1.0357009018344254	0.9922813235
O	0.030747731934426037	1.5662181979344254	-0.3047717135000001
O	-1.1014961620655739	1.9145263828344254	-0.8216516075000001
O	-1.0183021800655738	0.5067923848344253	-0.7437270865000001
O	-1.997588872065574	2.824408024834425	-1.1159117525000002
O	-3.015947028065574	3.500125994834425	-0.37479315550000014
O	-4.403106328065574	3.7927748848344254	-0.9674039015000001
O	-4.776836998065574	2.7642010848344256	-2.0698403565000003
O	-3.609288358065574	4.3010001448344255	-2.2283467565
O	-5.267925838065574	5.036123674834426	-0.47815073740000014
O	-6.593186718065574	4.862492004834426	0.11089686749999994
O	-6.908405628065574	4.104040744834426	-2.0540665865000003
O	-5.365193708065574	6.143738504834426	-1.5664253965000001
O	-0.317927128065574	-13.696589105165575	-7.7753469065
O	-9.460827098065574	-2.7996025351655747	-6.0305946565
O	-8.412926058065574	-1.0290220251655744	-2.9349572065
O	-8.074044268065574	2.3954284948344253	-4.4312642365
O	-6.488290328065574	4.892772844834425	-6.7836239665
O	-3.138259818065574	6.173662084834426	-5.6008273365
O	-1.096271011065574	8.955658924834426	-6.8219074365
O	1.502766431934426	6.777845564834426	-8.682188176499999
O	-0.812226358065574	3.8986607748344255	-9.5723376465
O	-3.833819718065574	1.8304512908344255	-8.5028555465
O	-3.594069878065574	-0.4439387351655746	-5.5713742065
O	-5.305797688065574	-3.807705795165574	-5.5161571565
O	-5.9478032780655745	-6.309107345165575	-2.7575219665
O	-4.954931398065574	-9.829594605165575	-3.7128490165000003
O	-3.463494878065574	-13.213330605165575	-2.9661287265
O	-0.996024110065574	-8.919035805165574	-0.4097981555000001
O	-1.452062898065574	-5.432031415165575	-1.7662088265000002
O	-0.48218736806557394	-4.977105345165574	-5.3647405365
O	0.31104634193442604	-1.5942830151655745	-6.8369715765
O	0.3482697019344261	-1.2553499451655745	-10.594453076499999
O	2.1454251519344254	1.8188916918344253	-11.8947642765
O	0.6585085319344259	4.115943564834426	-14.557138776499999
O	12.380315141934426	-0.8729330251655747	-0.9779157035000001
O	6.682094221934426	-1.4651965551655746	5.1414207635
O	8.740188741934427	-3.6559973951655746	2.9635614534999997
O	8.315122141934426	-4.466026005165574	-0.7010452975000001
O	8.158790741934427	-8.281981485165575	-1.0911670895
O	3.5606901219344262	-4.349465825165575	-10.3431192965
O	4.845487441934425	-4.003602955165574	-6.7775339665
O	3.798249161934426	-6.589305465165575	-4.1979491265
O	3.758606791934426	-5.977514705165575	-0.4663731825000001
O	2.137484971934426	-7.564146385165575	2.6278853234999997
O	-1.491360392065574	-6.296064865165574	2.9230896635
O	-5.829885298065574	-5.218216695165575	6.8582988835
O	-6.677147198065574	-1.9822552751655746	8.637937473500001
O	-5.942231188065574	0.34675175483442544	5.6916620235
O	-4.358182548065574	3.7278729348344255	5.9403941035
O	-4.140073318065574	5.825097694834426	9.020763823500001
O	-5.911692408065575	8.822806874834425	7.4585740035
O	5.789776291934426	11.833928494834424	0.04215295749999992
O	1.3983973019344262	11.938956094834426	4.6765087135
O	-1.2630607540655738	10.211331084834425	6.7959778435
O	-2.459065116065574	8.453860774834425	3.5881227634999995
O	1.117171291934426	6.997804074834425	3.4982127335
O	1.0501919819344259	5.510795934834425	6.9834524735
O	-0.702058528065574	2.1168587888344255	7.2092650835
O	-2.287975117065574	0.3207198048344253	10.1036467235
O	-1.058653654065574	-3.2135528251655745	10.8077827235
O	-3.0860872080655737	-3.1425420851655743	14.0430372235
O	1.027942021934426	-0.6785579551655747	15.3333308235
O	1.456386191934426	1.6556106418344254	12.310624223500001
O	3.9913851019344255	1.6169882759344254	9.4450188535
O	5.311387381934426	3.9407396948344253	6.744453893499999
O	4.9767382419344255	2.9486603848344255	3.0871172134999996
O	5.427411521934426	4.364026754834425	-0.4689712420000001
O	8.965569741934425	5.727405074834426	0.09054111749999993
O	11.176407541934426	5.955566574834425	-2.9764914165
O	8.389155141934426	5.913892194834425	-5.5687550965
O	8.425677141934425	9.705454364834425	-5.8355843265
O	-10.957729708065575	-6.994715125165575	3.2548492734999996
O	-11.850476818065575	-10.735672605165576	3.2112330035
