35

O	21.16863299294164	34.45099137795643	91.16898135976272
O	23.69647124264896	35.48663822017279	92.03645386337526
O	23.575640995278786	34.172829086058975	89.91743853033947
O	21.140180973604696	32.18902004409654	89.67032844418479
O	20.649661250790615	33.22755767046582	90.32887834042457
O	20.375460565615803	32.04761102777765	88.39963969985565
O	19.135413969631465	31.706934569606414	89.00383168593535
O	20.24218058794718	33.394575039314766	87.75757836676273
O	21.091395316454424	33.52975205353652	86.67420395337575
O	18.791196638884685	33.47762865201699	87.44193621380948
O	18.59067450755861	33.17802050804774	86.12340766725306
O	18.226986420731873	32.40723521770653	88.32467855258534
O	24.570174111886576	32.584940313967564	87.0638368421979
O	13.478905676964256	33.64123707788513	88.8879198744016
O	20.103598088669354	34.69998594738447	92.24182706405135
O	23.78659667768118	36.60633759625501	91.12747310322541
O	24.20567298466584	32.452800901472656	88.74949943038864
O	13.975688213045167	32.696935698828014	88.10398852568649
O	24.83858792003158	31.317241391492942	86.30404170036552
O	21.328231489757172	35.97795250805354	90.56819266065571
O	24.186921799738077	35.876571023216805	93.4806842722991
O	22.966434926843675	34.633751928711085	88.82546827009253
O	24.26107867423469	30.98993255528078	85.22104091846546
O	15.289026054513016	32.52719719868672	88.03845056203387
O	22.38384361417172	34.48319546942009	92.26034018862487
O	23.89090540089882	34.074186935419306	91.33084421386006
O	25.119400523898737	34.907362431763936	89.67916329659103
O	16.039717654948145	33.13715772234886	88.95536787051559
O	15.50429140915762	33.92923581867632	89.9255967962045
O	14.159452565263503	34.140699431728294	89.9138360262937
O	13.593178566854135	34.946729828079164	90.90632154616864
O	16.44534386974932	34.309699141575656	90.77222046382836
O	17.59631440254908	33.83410610750729	90.23342089546571
O	17.328796828318744	33.077955952353086	89.1882985827926
O	26.27663103489489	31.202225674883756	86.18032626309932
