35

O	19.89244262783529	30.0816691134283	85.09179376635839
O	20.212874785164228	31.53061919262623	84.91069333619126
O	18.963039712616727	32.05778060160348	84.97899711061069
O	20.11751901504516	31.77505067491046	86.37328364942127
O	20.77070597994821	32.9665836256633	86.46886570703926
O	19.602948279437726	33.77755340190052	85.99307298468969
O	18.44672134682115	33.23302650614704	86.58685095852489
O	18.970061462577576	31.881794993785977	87.07920138541968
O	17.415661624901595	33.56184376673352	87.41581143324619
O	16.311907643840122	34.01682429081792	87.61519268306557
O	15.007572396676464	33.73169893321775	87.7897874676672
O	14.871352845036606	33.16210924848482	89.03276923846451
O	15.627429332512998	32.00605680972301	88.54950285211342
O	15.875068183258698	31.734640587156658	87.2613500927038
O	16.68953051971497	30.75619787875707	86.69652802950847
O	16.6294997220399	30.151688841659777	85.43883502146514
O	17.02072563242043	31.133768889389515	84.50997024526926
O	16.092253934931406	32.12831998299631	84.80792648048259
O	15.266816814228605	32.14062682017475	85.98011368838642
O	17.22095753206444	30.49623738110543	83.25137884489223
O	17.49680512384259	29.135842132004477	83.23490381277477
O	18.208457947256985	28.505649502474068	82.09409191747187
O	19.546993136720793	29.018981955946572	82.06235907374221
O	20.471764963094234	28.376674932413923	81.18964930805552
O	19.368937677533822	30.421494102375306	81.8405897270594
O	18.12954965558349	31.018964821847216	82.35216895820096
O	15.325463730814874	34.046011328226456	90.03138103090113
O	15.593587003212644	35.1013876036583	90.81180168504387
O	17.046145426750506	35.37964790804896	90.76864100695815
O	17.708132056396412	34.26665951408422	90.28914602846078
O	18.95036602605018	33.89349171231192	89.88047170329605
O	20.0697265465232	34.12189304582897	89.03601877161942
O	19.069117019627434	32.39365089806711	89.44631660844085
O	16.62846144198262	33.71704292616225	89.58061047811627
O	17.11648341222294	33.176539006005314	88.54633811825332
