32

O	19.346020662671794	27.71658218039083	81.33246696523105
O	18.759506346206727	28.17912059554039	82.56059845501109
O	17.34387920603323	27.97907963606334	82.67602652367192
O	16.574609354981582	29.06202909136125	83.40593541182673
O	17.31235778056556	29.837269533502393	84.30239015337361
O	18.649082515107185	30.024845195479877	83.90947931784982
O	18.829552870293863	29.644823678561192	82.50227444441506
O	16.58028839203028	30.71808683899194	85.08665037335959
O	15.267087170916538	30.67903266251222	85.354522981911
O	14.665714922152654	31.748471957184684	86.01760265039673
O	15.382476314659339	32.84802409855327	86.22319148463912
O	16.422233892820323	32.98422955812825	85.43781855544654
O	16.851382795855592	31.97727160274141	84.65281972642377
O	15.484129829249508	33.72147332429397	87.3170936228793
O	14.704042344399866	33.56804988438456	88.33081830166682
O	13.768989283685077	32.76632145412993	88.21706500390223
O	14.892519149778677	34.09700448721753	89.63675241367964
O	15.963559632558795	34.80646934126809	90.08240766596289
O	15.858454956247936	35.09033074229353	91.387701130675
O	14.690007378819933	35.326114773473606	92.05300609790129
O	13.603018237368541	35.20805401610889	91.28861714340562
O	13.698535773078623	34.45409608704976	90.19643056483045
O	12.579271541845868	34.10774428181334	89.71416331950289
O	17.116672193195754	34.31696830620475	89.31441701540027
O	17.152456576548722	32.975391134587724	89.10544115615637
O	16.504918716810604	32.30352835114862	90.08599908582107
O	15.961246757550489	31.086705643793547	89.79644949200842
O	16.07381046970355	30.615810222638018	88.53618231743194
O	17.26217306336824	30.998427249720937	87.99507751156445
O	17.83986128684712	32.203011465140904	88.26293152723298
O	18.477915157843174	32.781747452281955	87.22216137754901
O	19.3080202418818	31.83246470598235	86.5296693185681
