89

O	0.16507131665689678	1.2767330172758622	-5.969355351048276
O	-1.6070818843431032	1.7697871982758622	1.6478295989517244
O	-2.3883019543431034	1.1607927082758622	0.6537549289517242
O	-1.8547203843431033	-0.5210052947241379	2.0196494689517244
O	0.8975158156568968	0.1978826452758622	-2.8507070810482755
O	-1.541210019343103	0.5688204042758621	-1.8154902960482757
O	-3.172186394343103	3.377424305275862	-5.084679731048276
O	-2.513469654343103	2.829587575275862	-3.8606179510482757
O	-0.8902742483431032	6.093712215275862	-8.403663711048276
O	-2.909578064343103	6.776005225275862	-7.487200301048276
O	-2.019355134343103	3.603644965275862	-5.9817791710482755
O	-0.9404903093431032	4.774444245275862	-7.718637711048276
O	-3.1849832643431033	5.355270655275862	-7.148903891048276
O	-0.6575531543431032	1.055311675275862	2.3999466289517244
O	-1.2631138913431033	0.03972569527586223	3.0891306089517245
O	-2.606126804343103	-0.19661409472413793	0.9375522789517241
O	0.001983899656896826	1.0582887712758622	-3.4793092610482756
O	-2.2055947043431035	-1.150021884724138	0.008700328951724234
O	0.25150600565689674	1.7194705812758622	-4.656898271048275
O	-2.0160975543431032	6.8431366552758615	-8.508578321048276
O	-2.2247126743431034	1.4984588650758621	-3.851697521048276
O	-1.2011991793431032	1.2656897902758621	-2.9041791010482756
O	-2.140078084343103	4.435300345275862	-7.096255171048275
O	-0.3249423693431032	-0.5897907847241377	4.384046398951725
O	0.04254859565689684	-1.619189194724138	0.6322911789517245
O	1.3370530356568966	-1.505464754724138	0.2388650889517243
O	1.518431045656897	-1.2970912247241377	-1.0884660190482758
O	0.6354780856568969	-0.4500809547241378	-1.6790489679482756
O	-0.5430859933431031	-0.015549264724137979	-1.0706784940482756
O	-0.8356373380431033	-1.027503524724138	-0.2137615610482757
O	0.6714981656568968	0.9411308752758621	2.2159104589517242
O	12.455951305656896	5.514580995275862	5.855848078951724
O	11.078656405656897	8.302128145275862	3.7093074689517245
O	7.691117825656897	8.969666285275862	2.1417979189517244
O	4.967693245656897	9.633259315275863	-3.3208440110482758
O	1.3178346556568967	9.371075115275863	-2.3053645620482754
O	-0.4493346333431032	6.3132405152758615	-2.918796971048276
O	-4.008011694343104	7.021735945275862	-1.6687289452482756
O	-6.410642464343103	8.090403175275862	0.8005495589517242
O	-7.541365684343103	5.081401415275862	2.770078368951724
O	-10.333658704343105	5.017072295275862	5.285430678951724
O	-8.009610544343104	5.007059625275862	8.307373108951724
O	-5.204943894343103	7.097177225275862	6.877452248951725
O	-3.1939942043431033	8.101231155275862	3.8186602789517243
O	-0.8473875994431032	5.704228575275862	2.185124978951724
O	2.567214485656897	6.620094215275862	0.7985543889517244
O	4.973488195656897	4.738757195275862	-1.4237172770482758
O	8.552791205656895	4.961065415275862	-0.14009277104827578
O	11.900232005656896	3.4390768652758625	0.5083615689517242
O	7.621903945656897	-0.05652258472413796	1.061337328951724
O	4.178838295656897	1.270519855275862	1.4858583589517242
O	3.772100215656897	3.6595193552758625	4.477820078951725
O	0.28619125565689685	4.376955205275862	5.863567688951724
O	-0.011886296343103231	7.369031505275862	8.166006658951725
O	0.30378035565689676	-9.031013884724137	4.1840233089517245
O	2.5832449156568966	-8.582862084724137	7.119669908951725
O	3.3926809256568964	-5.336227054724138	8.918282218951724
O	7.171043115656897	-4.8429234147241385	8.925909118951724
O	2.8192585956568967	1.7270052792758621	9.588017318951724
O	5.392904905656897	0.20847499527586222	7.230871528951724
O	4.894529935656897	-2.837983594724138	5.040384148951724
O	6.252358045656897	-4.347503854724138	1.8586659789517244
O	5.0911157556568964	-2.5603912947241376	-1.1808475000482757
O	3.7826488156568967	-3.1099686347241384	-6.971556181048276
O	0.5362194056568967	-4.089352364724138	-8.667049251048276
O	-1.7609006913431031	-2.1989311647241383	-6.286584841048276
O	-5.127907714343103	-3.446572484724138	-5.002089811048275
O	-7.219279124343103	-6.101813224724138	-6.668464541048276
O	-10.299357124343103	-3.882400914724138	-7.093773791048275
O	-8.455341244343103	-1.533476294724138	-9.393053491048276
O	-11.515331994343104	-5.977894684724138	-2.9085898110482757
O	-9.860268074343104	-2.6508698647241378	-2.0341005530482756
O	-8.173766144343103	-4.521575394724138	0.7725894489517242
O	-6.7384655743431034	-7.379508464724139	-1.2832119680482756
O	-3.375535554343103	-6.513181114724138	-2.8763066510482758
O	-1.651721638343103	-7.938466424724138	-5.926421981048276
O	1.9166517156568967	-9.153570884724138	-5.408179021048276
O	1.8135528056568968	-10.580512184724137	-8.951031101048276
O	-1.1939735553431032	-11.276587084724138	-11.206515341048275
O	-4.130851404343103	-6.499386314724138	4.100117408951724
O	-5.446074624343103	-3.838300004724138	6.472344478951724
O	-6.824650034343104	-6.3702455347241385	9.043180418951724
O	-7.088712584343103	-1.5045435947241377	11.884290818951724
O	-10.889342594343102	-1.3707131347241377	12.103571118951724
O	3.2077493756568964	-0.36627064472413795	-12.672898881048276
O	6.745885915656896	0.22316178527586206	-13.907344481048275
O	3.653806665656897	3.840762765275862	-12.221337581048276
O	5.575831295656897	2.8461761352758623	-9.097239811048276
O	9.265039805656897	3.3947078252758622	-9.820904861048275
