33

O	17.14571397275419	34.368631248063025	97.02263890844348
O	16.197923083413045	24.954567194823447	81.50586556828372
O	16.151065597651893	25.988399263770674	82.49157732222807
O	14.863262134395661	26.365798720172833	82.96709124011288
O	14.68917863977734	27.813858328067493	83.47552255036257
O	15.797909689793997	28.45678931979138	84.11472718447327
O	16.968553351764726	28.088887183216222	83.37062698107361
O	16.613511139866407	27.271794943595918	82.0729682990291
O	15.691640042779428	29.53543926849459	85.05893724750797
O	14.484215137225938	30.210840413651365	85.25716085135568
O	14.335566004169374	31.27973753982653	86.15090761506737
O	15.4533325223251	31.640832327747077	86.84781365239469
O	16.59328800458777	31.483270550437357	86.16477021267806
O	16.712535593002194	30.487695677328112	85.18425212211245
O	15.526792314849958	32.217377497376475	88.15635053414306
O	15.190482283946098	33.58208633881628	88.18907031839927
O	16.282718927034733	34.15109533697087	87.99656636246195
O	14.52309523437601	33.916077895099136	89.43487516410178
O	15.231839293901249	34.51383638053108	90.49363892240176
O	14.504960429075105	35.52307473783499	91.1384897714059
O	13.153939119172065	35.41224885669413	91.27654203093482
O	12.555308193395547	34.53384068053788	90.47185530475105
O	13.173067561481785	33.78261032990444	89.5258190843313
O	12.533150580764731	33.717558315028455	88.42706712928143
O	16.558381690160445	34.81841675594286	90.20760335984482
O	17.813814616257254	34.141337421266485	90.18989307965455
O	18.425126057696776	35.08807354074017	91.24610166363135
O	17.694513444224434	34.6612767165565	92.42773236201874
O	18.74812311699103	34.24487158717471	93.32829341495264
O	18.64500095936399	33.980399652655365	94.66772291900519
O	17.591080428156385	34.48189169693631	95.35670965312622
O	16.512633882798248	34.30943218074949	94.56451753413194
O	16.717507549185665	34.955179869062356	93.3322779863003
