86

O	0.8308705274482763	-0.08748119994827563	0.09211670982068965
O	-0.6164951808017237	-0.20076489994827562	0.26296002982068956
O	-0.8152468825517237	0.34261793405172436	-1.1516248001793103
O	-0.1341731205517237	-0.4336079599482756	-2.0528255841793106
O	0.00025834544827629813	-1.7501616399482756	-1.4451334031793104
O	0.5440583374482763	-1.3156978199482756	-0.24216550017931038
O	0.18680305644827633	-2.798457249948276	-2.2954231101793106
O	0.09659414644827624	-2.2373084599482755	-3.6198461801793105
O	0.18474119644827625	-0.7462879399482756	-3.5236988901793103
O	-0.7358098125517237	1.4376831860517243	-0.3962544761793104
O	-0.2666751455517237	1.8499351440517242	0.7492640298206894
O	-1.2349609835517237	2.8306161700517243	1.2078830998206895
O	-0.4171268375517237	3.9635593100517243	1.8377182798206897
O	0.5677304874482764	3.5505445900517243	2.89256301982069
O	1.2048275974482765	2.4574755700517246	2.0994545998206897
O	0.1361970994482763	1.4100036050517244	2.0866349698206896
O	1.9230097174482763	2.8633435600517245	1.0527124398206895
O	1.1735586074482764	3.6876066300517243	0.2603416598206896
O	1.0952725174482763	4.790911970051724	1.0111985998206896
O	1.7466237874482764	4.704644480051725	-0.6568578961793105
O	0.27059452144827634	4.146216900051725	-1.2131765095793103
O	1.3695910474482762	0.6959864070517243	-0.7808015371793104
O	1.5080540774482762	1.3321798830517244	-1.8819526751793103
O	2.4187848574482764	2.5701783700517247	-2.0040956701793107
O	1.5462742774482763	3.2779300200517243	-2.9862491601793106
O	0.9437106574482762	2.2308794100517244	-3.73174629017931
O	0.37814884344827626	2.0720228300517243	-2.3446157501793103
O	2.357816907448276	4.043099730051724	-3.781996640179311
O	-14.973202492551724	-4.725964449948275	-4.25807275017931
O	-15.432494592551725	-1.9713821599482757	-1.6983728451793105
O	-13.205086092551724	0.7967064970517244	-0.41189981017931043
O	-10.457095512551724	2.719669200051724	4.78296810982069
O	-8.072821082551725	5.230173670051725	3.27987029982069
O	-4.474624722551724	4.249309990051724	3.29836276982069
O	-3.0484958425517235	7.528120320051725	1.8383999398206894
O	-2.610695392551724	10.137825080051725	-0.9460617081793103
O	-0.11841977155172367	9.081496910051724	-3.5754082201793107
O	1.3752257874482763	11.023733030051725	-6.52875066017931
O	-0.9183356775517237	9.487987950051725	-9.14755291017931
O	-4.001474362551724	8.945975010051724	-6.96882552017931
O	-5.424221362551724	7.989923770051725	-3.57059452017931
O	-4.979657512551723	4.485284260051724	-2.2605142341793103
O	-7.613754632551724	2.7071217700517245	-0.16988459017931046
O	-7.574654422551723	-0.4900262499482757	1.9255541998206895
O	-10.476795882551725	-2.762082249948276	1.0840624998206898
O	-6.690032992551724	-5.448503269948276	-1.2832646967793104
O	-5.3637640625517236	-2.0396220899482755	-1.8366270541793104
O	-7.3139931125517235	0.07944803305172432	-4.29517893017931
O	-5.705000812551724	3.0368692000517243	-6.06819241017931
O	-8.067502212551725	5.4934867700517245	-7.70284433017931
O	3.666538427448277	-6.5555428199482755	-7.12478293017931
O	1.0757391774482765	-7.666835109948275	-9.643067110179311
O	-6.818054882551723	-3.3605425399482756	-7.49438499017931
O	-3.8692836625517235	-5.2330536599482755	-6.07112486017931
O	-3.0488477025517238	-7.424812649948276	-3.10241725017931
O	-2.7377173525517238	-5.460385899948276	0.18605283982068954
O	-0.0550325595517237	-5.666889249948275	5.44843570982069
O	3.3159299874482766	-4.215950389948276	6.46201162982069
O	3.0029743974482765	-1.0820335299482755	4.09805982982069
O	5.988737417448276	0.48762745805172436	2.31093308982069
O	9.589559907448276	-0.006767999948275705	3.1020798998206898
O	10.380030307448276	3.6649012800517244	3.64994351982069
O	8.016536727448276	3.8711690400517242	6.6466008698206895
O	9.026828717448275	0.4568800450517244	7.7890245998206895
O	9.592353707448275	6.039417740051725	-10.34735278017931
O	12.105542707448276	4.803388530051724	-4.53121486017931
O	11.787595507448275	3.2844080200517243	-1.0191625361793104
O	8.187243667448275	4.541738470051724	-1.0121246661793104
O	7.681596477448276	2.1554457300517242	-4.01642668017931
O	9.026061047448275	-0.9836181999482756	-2.3596932901793104
O	6.521271017448276	-2.8423783099482756	-0.17257813017931034
O	6.814752037448277	-5.199179799948276	2.7219907798206897
O	4.951759017448277	-8.516298149948275	2.3560215998206893
O	6.813698937448277	-9.693154019948276	5.4417737498206895
O	9.946749107448275	-8.262004409948275	7.1091810098206905
O	8.397632817448276	-6.277559499948275	-3.5018350001793106
O	5.255520507448276	-1.7485477899482755	-7.1756718301793105
O	3.827723777448276	1.2507715990517243	-9.15798926017931
O	5.859507107448277	0.5490776950517243	-12.371086400179312
O	14.507123007448275	6.783778960051725	5.799466219820689
O	-0.18127633355172368	-4.033647709948276	11.49331269982069
O	-2.8176073725517234	-6.209432759948276	13.087770199820689
O	-4.714344382551723	-3.4371193299482754	14.821118199820688
O	-3.4273047625517234	-1.2594693099482757	12.006788799820688
O	-4.864178952551724	-3.0194151999482757	8.946645199820688
O	-7.658460792551724	-5.2895172199482765	10.13652949982069
