31

O	21.44280457934746	33.563832459163244	90.95958331091943
O	23.56552728674925	35.18426460404826	90.39163273350965
O	24.61196083699085	37.0481804000322	91.98570469624191
O	21.365955054825044	32.23412891694137	88.78196642299861
O	20.578586982445056	32.68206929251712	89.863668998079
O	20.422890397898268	32.18000155373723	87.6273207376692
O	19.193775006233295	31.770739608120977	88.19164904325581
O	20.162882137980343	33.54947859202993	87.00300130907031
O	20.896081942231973	33.55296421668205	85.80495325657209
O	18.645609036839886	33.51491109595929	86.69910301533861
O	18.553656931071476	32.94826763568691	85.44725619446052
O	18.224190121653844	32.65080487676829	87.83852226953704
O	13.36175923729963	33.64594131329171	88.7662309466792
O	21.58619215899186	32.97981292578878	92.30942877813575
O	22.460884844599203	36.1256557048985	90.55987852762368
O	25.351966974325766	37.396664696473536	93.15077849976737
O	13.942874002705937	33.027389459276534	87.72168035154533
O	20.7512130829139	35.033822344940226	91.17618876788266
O	24.693883629227678	35.36086212676888	89.23613798716583
O	25.48092327715996	37.3349432319361	90.61783830432726
O	15.264261927827913	32.92985497122306	87.60706677913518
O	24.429710291295727	35.337995637130525	91.88076300431817
O	22.938877329109513	33.71122369109481	90.3077972460679
O	23.019952115997846	37.482803396904814	92.12519569012372
O	16.047779007427547	33.35219349698209	88.60745667085895
O	15.434741329737587	33.900453973860074	89.70124094626266
O	14.091917183952896	34.16235087480888	89.75273693298791
O	13.475865002756501	34.66701254448516	90.91332311698385
O	16.345621987381588	34.12349571177967	90.62095695309804
O	17.53944870609448	33.80658305211853	90.03104981079666
O	17.386705369521113	33.25400628189767	88.82342385491674
