103

O	-0.05764500792307703	0.2701080727538462	-5.124353557227693
O	0.7873692690769228	0.7463926787538462	-4.177111077227693
O	-4.421998540923077	-1.761340353246154	-0.7100127948276923
O	2.016805779076923	3.792431476753846	1.2589950727723078
O	-0.754406080923077	0.34865676775384613	-2.449435867227692
O	0.49365558907692286	0.4077428107538461	-2.9182230972276924
O	0.325448859076923	2.845525846753846	2.935335882772308
O	-1.2521994299230772	-0.20857916324615378	-4.699746017227692
O	-2.812261720923077	-0.8673196432461538	-3.215544887227692
O	-7.184919790923077	-2.451127433246154	-1.7195567372276925
O	-1.593766652923077	-0.3003234632461538	-3.3519753372276924
O	-5.348986560923078	-2.1070395132461535	-2.8810093072276923
O	-3.0046320609230768	-1.4894400232461538	-4.410900527227692
O	-0.8352409046230771	0.03606709675384612	-1.0858813132276923
O	-2.067688590923077	-1.0958199032461537	-5.328692597227692
O	-3.752878920923077	-0.28666668324615374	-2.2651129572276925
O	-5.102799090923077	-0.6432551332461538	-2.960571007227692
O	-4.812105640923077	-2.581552383246154	-1.5772044542276924
O	-5.436589080923078	-3.6900904232461533	-0.8894274862276923
O	0.2179210090769229	0.4968231077538462	-0.12464917722769231
O	1.0129050890769231	1.6068695527538461	-0.2144102942276923
O	0.8216362390769228	2.536796606753846	0.7901480527723076
O	0.17304664907692302	2.0209560827538464	1.8897253527723077
O	-0.14155146892307713	0.7246497737538462	2.1732728027723076
O	0.31175590907692297	-0.08837273324615391	1.135219882772308
O	1.2651726890769228	2.471766506753846	3.7925499927723076
O	0.612405629076923	1.5709501807538462	4.679739472772307
O	1.5254886090769229	1.109554248453846	5.610054202772307
O	2.797540229076923	1.668772027753846	5.764921632772308
O	3.2442189190769226	1.4618729067538463	4.4497095327723075
O	2.462563909076923	1.863089453753846	3.4145909027723076
O	4.686031619076923	1.8642874757538461	4.293738592772307
O	-6.797039710923078	-3.802319763246154	-1.4715044002276922
O	-7.816984100923078	-4.527850363246154	-0.6807903949276923
O	-6.982090060923078	-4.355731043246154	-2.885673107227692
O	4.8025321690769225	3.016162426753846	4.859850632772307
O	5.226889769076923	1.0092854936538462	5.121403712772308
O	4.903181099076923	1.508756204753846	3.0734837227723077
O	-7.664733060923077	2.017650155753846	-6.809317187227693
O	-9.861811980923077	0.4466885417538462	-4.219686527227692
O	-11.566152060923077	0.4433045717538462	-0.7485285174276923
O	-9.066737940923076	-1.231864243246154	1.7328418927723077
O	-9.762257110923077	-2.402260833246154	5.269947012772307
O	-8.036399870923077	0.6106492427538461	6.916737642772308
O	-8.960548160923077	3.1935608067538466	4.293810672772308
O	-9.402716310923077	3.9632421567538465	0.5960095727723077
O	-6.396406660923078	3.7955248967538457	-1.6956592672276924
O	-6.023115360923077	6.164802356753847	-4.607659947227693
O	-3.693853810923077	6.307482696753846	-7.583035407227693
O	-2.071510260923077	9.672094846753845	-7.981951577227693
O	0.8863300190769229	11.832628466753846	-8.755339207227692
O	2.083848019076923	7.064848476753847	-6.102881707227692
O	-0.5800852829230772	5.211250096753846	-4.244259957227692
O	-2.243658730923077	7.297756476753847	-1.5586671382276922
O	-4.138600260923077	5.700626736753846	1.2823028727723078
O	-6.465896860923078	7.858998586753846	3.2900599327723077
O	-7.368752580923077	6.428408856753847	6.690246102772307
O	-11.071884360923077	6.361363426753846	7.883167192772307
O	7.019473459076923	2.4066295567538463	8.059073392772307
O	9.276256839076924	4.779113046753846	6.175236202772307
O	12.540614939076923	3.4338890867538465	7.6518852127723065
O	12.323164039076923	-0.07600400324615375	6.204410762772308
O	8.953080449076923	-4.448553693246153	1.643515962772308
O	6.935258509076923	-1.341983033246154	0.6929836027723076
O	8.445904039076924	1.7695241827538462	2.0788422727723077
O	6.301282279076923	4.762218896753846	2.982106252772308
O	7.461726759076922	7.806270006753846	1.349616792772308
O	5.487600449076923	10.538451736753846	3.019888392772308
O	-2.8045597609230772	10.228179016753845	4.157213602772307
O	0.03559091907692291	7.7987200367538465	3.6383986027723076
O	1.993931249076923	8.043301556753846	0.4544915127723076
O	4.038251119076922	5.371104236753847	-1.1249468452276923
O	5.271035209076922	4.289388736753846	-4.422232497227692
O	2.589988279076923	2.934090896753846	-6.892239627227693
O	1.845596029076923	-0.6760909432461539	-11.562076697227692
O	1.0050986190769229	-4.405181453246153	-11.567812497227692
O	-1.413062170923077	-4.253433613246154	-8.584126987227693
O	-1.7204495979230772	-6.878571533246154	-5.835227777227693
O	-0.5448682599230771	-10.443759533246155	-6.084813267227693
O	-0.6866816659230771	-8.542948703246154	11.777090902772308
O	-2.3815827009230772	-8.542976293246154	8.353597232772307
O	-0.29332539992307705	-10.496389733246154	5.837482452772307
O	-2.375178490923077	-11.850611033246155	2.957768742772308
O	-1.943193450923077	-12.140800933246155	-0.8159956692276923
O	-4.003942920923077	-8.926029633246154	-1.0349775012276923
O	-1.1437541379230771	-7.220493123246153	0.9243911427723076
O	1.603292739076923	-8.336941993246155	-1.3648552022276923
O	2.1546553690769232	-6.085401273246154	-4.389102367227692
O	3.7278405690769234	-6.735601313246153	-7.763111617227692
O	6.490039059076922	-4.320802023246154	-8.764702867227692
O	9.551547839076923	-8.937727533246154	-8.005477297227692
O	6.923352849076923	-8.714738613246155	-5.210079647227692
O	6.706477629076923	-6.590009713246154	-2.014572417227692
O	4.846442549076922	-6.571378783246153	1.2868913627723075
O	2.870075439076923	-3.5528384032461533	2.311215972772308
O	0.391770199076923	-2.588423913246154	4.961214422772307
O	2.483033509076923	-3.701968963246154	7.943592212772307
O	2.004279529076923	-1.6910573332461538	11.081069902772308
O	-1.326416985923077	-0.20940885324615377	10.170888702772308
O	-3.165608090923077	-2.930139883246154	12.123962702772307
O	-1.461308697923077	-1.9798312832461538	15.410420802772308
O	-2.857992210923077	2.716630906753846	-14.588576197227693
O	-1.749793289923077	5.575828916753847	-16.870458597227692
