22

O	15.212722953785338	35.25807422029646	97.14455257762225
O	16.617883100733987	33.912008394481184	87.89714901926601
O	16.168915964778044	32.610180484301154	87.47733412762605
O	14.953696721386144	32.334910513116014	88.10652499264702
O	14.369533004640436	33.219762086290785	89.02531609154225
O	15.335867005278967	33.87650839509606	89.79827165685744
O	16.263762923533378	34.55608555841184	89.13019269361033
O	13.214565989286513	33.01989528511961	89.71968325203228
O	13.010694019237313	33.60326337889711	90.94361500160922
O	14.013456931474964	34.272681475491105	91.5993266333452
O	15.306758775900022	34.12522963254839	91.13274741099679
O	17.41217156714755	31.89035924309148	87.83724487586613
O	18.282891694138957	32.38034690292451	88.95622593052306
O	18.030204196588176	34.23779138307802	87.61779728205408
O	16.384243345655513	34.55963839888771	91.91707018549445
O	16.513890636659212	35.045959415204365	93.19161131151137
O	15.717208771650546	34.914596437938414	94.34502266136415
O	15.993783380992248	35.36378904947486	95.6034522957879
O	17.036570395436826	36.2256298067406	95.77176625112207
O	17.96223972883975	36.180063494436425	94.77791763901179
O	17.805473106658148	35.44890246287573	93.58991318098103
O	17.03043111269022	37.28756845704276	96.63977838739171
