33

O	17.92681806768063	24.64545696330314	82.53092734016926
O	18.65535903205768	32.919843756533254	91.25583103881937
O	17.22950030130666	35.81049659978384	94.78782159143866
O	16.16160623288983	35.53433112423774	94.00173934065134
O	18.314112541693106	35.35242291742928	94.14198162711499
O	16.279895105558715	35.2610643564901	92.63457910862465
O	18.38398337651154	34.999073851560524	92.78031927231993
O	16.819199600804517	31.480661940337406	87.13228336672877
O	18.765273081135806	32.340894476443076	87.23459397122274
O	16.97846923014771	32.12838555720793	88.4013632498564
O	18.43206455313186	33.30530582503919	88.21707802329458
O	15.34893659821492	34.95148553158279	89.4513991144582
O	17.754133637495634	26.091997123514776	82.1573736979856
O	16.672907344453346	27.85202200043973	83.44467709853555
O	18.89513121899143	27.878407796332894	83.31326506801791
O	16.717139780043432	28.997087662912705	84.29071376454857
O	18.76265858224549	29.224051207714464	83.80134571418411
O	18.32747906570323	30.528436849010255	85.62911699364241
O	18.18279609765409	31.125729334887392	87.03686085413125
O	17.24751939252795	33.49287965283125	88.64497354333207
O	17.284025546716617	34.45884247867561	92.28024681470043
O	16.372113389818807	33.720230430893686	90.67774775969498
O	14.582368523004162	33.864852249563945	88.00663225057608
O	15.94803057372849	34.252042660600125	88.5311485926891
O	17.154122564180152	33.10992202779348	91.58116032353954
O	17.792331795726334	26.99246078595031	83.25923788974363
O	17.802826543041746	29.66100920014064	84.81320318249452
O	14.83269829116074	32.106989330148885	89.51736287512236
O	13.761977314934144	31.58182123888671	88.54044084869157
O	12.759670927894067	32.44302847531738	88.73008154412598
O	13.54271221471041	33.693557532442014	88.81827459255442
O	14.181345164187652	34.237764255648244	89.94375746458431
O	15.23565947198358	33.13183365594569	90.14863504702522
