101

O	-2.2494375464492755	0.04588783508405836	4.244737286550724
O	-1.1617233504492757	0.32902978508405833	2.372703426550725
O	4.525893483550724	-1.4262088099159418	-2.993861493449275
O	-3.4855632964492758	0.42786501208405836	3.697167856550725
O	-1.6449992074492756	1.5997670220840585	2.3481045665507247
O	5.523161003550724	-3.3679465199159417	-4.880984753449275
O	-4.267197796449276	1.1001052690840585	4.587507896550725
O	2.2157395535507245	-0.1220319299159417	-1.2490268074492752
O	-3.7653968064492753	1.0862756290840583	5.883563486550725
O	-0.8321579634492756	0.46353039108405836	-3.875750953449275
O	-2.4064378564492754	1.4670963000840584	5.914082046550725
O	-0.07340932844927561	-0.0856981499159416	-1.8954302134492753
O	-1.6167085224492757	1.1913292590840583	4.749639296550725
O	0.4288185335507244	1.8641151690840583	-4.577178453449275
O	-1.3162314524492755	-0.7347572899159417	3.3715200265507246
O	3.8075172035507245	-0.3243324299159417	-2.752590023449275
O	-1.4458651904492756	1.9075965320840584	1.0389118565507247
O	1.8117750835507243	0.6577671560840583	-0.09984476644927531
O	1.9884917135507243	-0.3414559899159416	0.8127968865507247
O	1.2538272435507243	-0.15351305991594166	1.9362877465507247
O	0.10135434555072442	0.6497173050840583	2.011172546550725
O	-0.15006282544927563	1.4296030710840584	0.8564600665507247
O	0.5788717935507244	1.0712563579840584	-0.3165819204492753
O	-1.0369699674492756	0.5393840110840584	-2.5702752634492754
O	1.2364143335507243	-0.18549883991594152	-2.2429053834492754
O	1.5915323935507242	0.31343038008405844	-3.4087895434492754
O	0.4917483435507244	0.5652558310840583	-4.194900203449276
O	2.9870357235507248	0.21563077108405837	-3.8048607034492754
O	5.591054253550724	-1.2453503599159417	-3.8574564134492757
O	5.760269323550724	-2.023928689915942	-5.157129683449275
O	6.7338765935507245	-4.033210739915941	-4.719127023449276
O	-5.534803836449276	0.7211697650840584	4.742207106550724
O	8.006566433550724	3.1549777200840583	-5.432944903449275
O	10.056930953550724	1.1436797200840583	-2.9687194934492753
O	11.503764453550724	0.6084355800840584	0.4729810975507247
O	9.010554643550725	-1.2648339199159415	2.648447646550725
O	9.607168053550724	-2.7895182899159416	6.073118906550724
O	7.729208853550723	-0.0764266899159417	8.014953466550725
O	8.660635243550724	2.8270907900840583	5.732822326550725
O	9.329032653550724	4.090494400084059	2.2000345365507243
O	6.427363093550724	4.108368700084059	-0.2839975524492753
O	6.102476683550724	6.888695250084059	-2.8522758334492755
O	3.898912363550724	7.351641160084059	-5.906514253449275
O	2.130883143550724	10.675662190084058	-5.969542773449276
O	-0.8795041594492756	12.827624050084058	-6.659588863449276
O	-3.5388101564492755	13.919313050084059	-4.218488823449276
O	-3.035263796449276	9.100161420084058	-8.148381003449275
O	-1.9824479464492757	7.676627880084059	-4.773396933449275
O	0.6590179835507244	5.671171830084059	-2.9537798634492756
O	2.1199991035507244	7.4571919400840585	0.03446968155072466
O	3.959994453550724	5.573840540084059	2.750935356550725
O	6.0708540535507245	7.514291900084059	5.163372686550725
O	6.904871793550724	5.7310247600840585	8.414091796550725
O	10.462999953550725	5.571786210084059	9.827697616550726
O	-7.500889816449276	0.9048380110840584	8.208384086550724
O	-9.818966326449276	3.4553876000840584	6.547391206550724
O	-13.076214946449277	1.7541364780840585	7.605977126550724
O	-12.596611246449276	-1.5110416999159417	5.700144646550725
O	-8.791773536449275	-5.228538689915942	0.8299817965507248
O	-6.891426836449276	-1.8951051799159417	0.4286975455507247
O	-8.426022986449276	1.0103832362840584	2.1462012165507245
O	-6.4763313564492755	3.912285990084058	3.6560330065507243
O	-7.793540966449275	7.155113350084059	2.3279418765507245
O	-6.060301896449276	9.757297340084058	4.4577656165507245
O	2.263979173550724	9.678040210084058	6.1073525165507245
O	-0.4280054214492756	7.157301840084059	5.055605796550725
O	-2.2912745364492757	7.6864684600840585	1.8547522765507247
O	-4.049885516449276	5.1817252400840585	-0.2556164704492753
O	-5.192796676449276	4.591099900084059	-3.828554883449275
O	-2.3198105864492753	3.7009048900840584	-6.156458593449275
O	-0.9849617194492757	0.6989047890840584	-11.145568183449274
O	0.11293730555072434	-2.9273306899159417	-11.498007783449275
O	2.243319413550724	-3.071688209915942	-8.409402653449275
O	2.5178363535507247	-5.957498769915941	-5.969839513449275
O	1.6196614435507242	-9.519261049915942	-6.815850503449275
O	5.092798083550724	-10.873451149915942	-6.000597373449276
O	0.43886796355072444	-10.087862849915942	11.050065316550725
O	2.3682248035507243	-9.583010149915943	7.8010644665507245
O	0.5880277335507245	-11.245090849915941	4.880878716550725
O	2.951786073550724	-12.078167049915942	2.0123078465507245
O	2.838625503550724	-11.830043849915942	-1.7720429934492754
O	4.681164743550724	-8.500836079915942	-1.4019834364492754
O	1.6384687935507245	-7.279506709915942	0.5290016505507247
O	-0.9932449144492757	-8.283311039915942	-2.038246373449275
O	-1.4739619334492757	-5.649337259915941	-4.760296773449276
O	-2.784373076449276	-5.8853405499159415	-8.301150093449275
O	-5.596132346449276	-3.489471629915942	-9.192627053449275
O	-5.988567286449276	-5.382309269915941	-12.494942783449275
O	-8.418710546449276	-8.315638969915943	-9.318606473449275
O	-5.996567856449276	-8.410092719915943	-6.344077633449276
O	-6.162169876449276	-6.780738739915941	-2.8833142134492755
O	-4.514673826449275	-7.0829425199159415	0.5298896045507246
O	-2.734493036449275	-4.200147379915942	2.003243256550725
O	-0.4527922474492756	-3.399135999915942	4.997796546550725
O	-2.690975696449276	-4.915852659915942	7.681891246550724
O	-2.4991513664492757	-3.357390999915942	11.113623816550726
O	0.8397446835507243	-1.6216025999159416	10.686619816550726
O	2.6013273135507244	-4.485129999915941	12.312293416550725
O	0.7030375835507243	-4.055153099915941	15.577871016550727
O	3.694619923550724	4.700218020084058	-13.348750983449275
O	2.604993633550724	7.796622870084058	-15.332135483449274
