93

O	-3.910354920767796	1.2355796874067795	2.069126848652541
O	-2.177780200767796	-0.8518598655932205	-0.07883175034745904
O	-1.5726706407677964	0.3763051644067795	0.03366510865254102
O	-1.4259042507677964	-1.9924802255932206	-0.13197216734745898
O	-0.19526203676779627	0.48412976040677946	0.06193778865254096
O	-0.11647358076779628	-1.9605090955932205	-0.06500149434745905
O	0.4358492902322037	-0.6692078355932206	0.06127769865254096
O	2.157143719232204	-1.6421553255932206	-1.123819226647459
O	1.7047235892322037	-0.4230915455932206	-0.506519476347459
O	2.294408269232204	-2.382830005593221	0.11407869865254106
O	0.9706948682322036	-2.8400616355932207	0.20102713865254107
O	0.6706902662322036	1.4991177154067796	0.4621321886525409
O	-2.282175070767796	1.7026047844067795	2.391913388652541
O	-2.153202050767796	3.032685454406779	2.421832298652541
O	-1.1213076607677963	0.9535416994067795	2.1802518086525406
O	-0.9958422167677964	3.6489216844067793	2.1117888786525407
O	0.10961526823220372	1.5132124214067795	1.7397189986525408
O	0.09856199023220372	2.7449196544067793	2.0902905886525414
O	3.547452639232204	-1.8120784155932208	0.36816873865254096
O	4.591262589232204	-1.6012173955932205	-0.545437649347459
O	5.941354759232204	-1.3284710855932205	-0.07346600934745906
O	6.4388217092322035	-0.11822512659322049	-0.511473248347459
O	5.325435179232204	0.7052685726067794	-0.250394914347459
O	4.382000439232204	-0.0987188975932205	-1.013191630247459
O	3.032066429232204	-1.9657846055932207	-2.115435561347459
O	3.837447519232204	-3.0802003855932205	-1.951253632347459
O	5.0693963292322035	-3.5387097855932206	-2.569664541347459
O	3.192670439232204	-3.9917844155932203	-1.3464182183474591
O	5.873212019232204	-2.6077521055932205	-3.3690166813474587
O	7.1456736392322036	-2.025619155593221	-2.961501311347459
O	8.334530239232203	-2.5247342355932205	-3.5382107113474595
O	9.241419389232203	-1.4334513655932208	-3.685326541347459
O	8.859748819232204	-3.7222447955932205	-2.986034311347459
O	-3.150239060767796	3.825344154406779	2.750208268652541
O	-7.035299350767796	-4.44266803559322	14.113638838652541
O	-0.4402624927677963	-5.6167022455932205	12.34201653865254
O	5.470240019232204	-5.619272815593221	7.436967568652541
O	4.978613449232204	-4.39991394559322	3.9117273386525415
O	7.784047919232204	-1.7770898755932207	3.902441798652541
O	9.399819649232203	1.4236526424067795	5.1445082186525415
O	7.715039419232204	4.47089159440678	3.5286931686525413
O	8.938507459232204	8.06106432440678	3.7197261386525415
O	6.465606789232204	9.09034262440678	6.3820109586525415
O	6.218557079232204	5.801596804406779	8.236448028652541
O	6.202138949232204	2.0311702044067794	8.087068538652542
O	3.375773909232204	0.2316239614067795	6.267501398652541
O	2.054585339232204	-3.0861874755932206	7.584773948652542
O	-0.3010453687677963	-5.688749835593221	6.178741398652541
O	-3.0368085107677962	-6.70845580559322	8.564848888652541
O	-6.604371750767796	-7.63185981559322	9.36147393865254
O	-5.955317490767796	-3.808686125593221	5.345437058652541
O	-2.722246160767796	-1.8836785455932206	5.0374956186525415
O	-1.7129854907677964	-0.08429885559322048	8.230333308652542
O	0.8180216792322037	2.750793304406779	8.101981388652542
O	2.230251929232204	3.9562848244067794	11.342193738652542
O	-7.493858260767796	5.33454860440678	-2.384719021347459
O	-9.595647850767797	6.177135404406779	0.6032315686525409
O	-8.691246530767797	6.15415172440678	4.2916108486525415
O	-5.985779840767796	2.0823293144067794	8.222320998652542
O	-7.177498640767796	1.5061300524067796	4.633529468652541
O	-8.110978070767796	-1.2944823255932203	2.193767018652541
O	-5.051178640767796	-3.293696355593221	1.248181298652541
O	-3.183571080767796	-7.011552935593221	-3.012821281347459
O	-0.9380688037677963	-6.282792725593221	-6.078889651347459
O	1.3978848592322037	-3.7369907255932207	-4.382944081347459
O	2.531926769232204	-0.4395236855932204	-6.028906241347459
O	2.757782749232204	0.2303452134067795	-9.688240331347458
O	6.5071013692322035	0.9386197924067795	-9.676018091347458
O	7.3517736792322035	-2.5968772355932206	-8.52754774134746
O	4.615497379232204	-4.0284328955932205	-10.704301331347459
O	4.239398889232204	13.34332795440678	-3.410316691347459
O	5.207468489232204	9.05666451440678	-7.875765941347459
O	4.8620872692322035	5.5431393644067795	-9.291557671347459
O	5.6911762292322035	4.3086021344067795	-5.785490591347458
O	2.472415129232204	6.0005615444067795	-4.578441361347459
O	0.18529303323220372	4.519670164406779	-7.256091061347459
O	-1.2564470807677963	1.1675835604067795	-6.227269101347459
O	-2.603839110767796	-1.7805851255932206	-8.13363649134746
O	-6.071567850767796	-2.9642662455932207	-7.127669991347458
O	-6.013892110767796	-5.245722915593221	-10.188417771347458
O	-3.783401580767796	-5.1243142455932205	-13.287584261347458
O	-4.776309910767796	1.4682331984067796	-10.451488601347458
O	-5.2612277007677966	4.083124364406779	-7.724227051347459
O	-3.405396170767796	6.997460144406779	-6.1229263213474585
O	-2.562703200767796	6.893103834406779	-2.423002321347459
O	-0.6591307297677963	8.77576594440678	0.2372276786525409
O	-1.9256366907677964	12.33182775440678	-0.737360229347459
O	3.3565027492322037	15.553134754406779	2.847023128652541
O	0.47940773423220373	-12.00020594559322	-4.577593931347459
O	-1.3932882207677963	-15.05111814559322	-3.3243836813474594
O	2.7901290892322037	-13.09522864559322	-1.145781913847459
O	-0.08073015246779629	-11.43083794559322	0.7547319686525409
O	-2.2673141607677962	-14.15868814559322	2.301740958652541
