31

O	21.555260872727708	33.991909896954624	90.20564001821646
O	23.85567582270837	35.347120602377224	89.71425345318309
O	26.360748204155076	35.71454664573356	88.62644912262682
O	21.224579815847985	32.530783081524376	88.11334161228419
O	20.639138078356645	32.9978104630392	89.27048961294699
O	20.12416949091519	31.993192307801515	87.24091203079236
O	19.008447134363614	31.735175665091056	88.01036252501599
O	19.74673797206787	33.10605785632625	86.29168013859932
O	20.391595186235396	32.83964616495263	85.08823542122201
O	18.25442596458143	32.98511760826746	86.205909660701
O	17.967443513952237	32.16451723195376	85.13614987198872
O	17.900061897064994	32.28961099707001	87.45588575342187
O	13.194856603360899	33.426113219760566	88.74114719414219
O	21.35267836860013	33.94289050071852	91.67697937062628
O	23.649759932916268	35.439739071170315	88.29225006077118
O	27.435935122045585	34.73334980790908	88.59822882065184
O	13.650746368276486	32.72056486167167	87.70566776092745
O	21.146507329637465	35.56092460535369	89.80467975120217
O	23.162296402161367	36.156393301903385	90.92759179053121
O	26.738447268170688	37.26221935191421	88.98814176085777
O	14.940378011600522	32.51779533159643	87.4415072639517
O	25.498855378794627	35.41613167755978	90.0633938955896
O	23.16843706067303	33.78364808295314	89.86397207355839
O	25.50385914655245	35.31035046716576	87.28718276901287
O	15.804402687590015	33.07442240728838	88.32519436890908
O	15.368835330655696	33.80498217990466	89.39450338870843
O	14.02817109400597	34.03633788923322	89.58222917415401
O	13.601628197539956	34.806486712960826	90.6777366534462
O	16.370274214759863	34.19670692779737	90.16116533408682
O	17.484796285699606	33.73002307613768	89.52011642995069
O	17.130765980826453	33.040970548334776	88.40839484888285
