91

O	4.6315862551	3.5581491123333326	2.26829377085
O	1.0433612771	-2.750632637666667	-1.5580015831499998
O	1.3331817021	-2.5124798576666674	-0.2049854701499998
O	-0.9303219249	-2.0311088276666673	-0.2903265631499998
O	1.5993453771000001	2.712147092333333	1.1956982708500004
O	2.2748352751	-0.0011112276666673804	0.8833426908500003
O	6.9045045351	0.6319901323333327	1.2610836708500002
O	5.471472425100001	0.42798795633333264	0.8548343608500003
O	9.8606664651	4.336295822333333	-0.1635887591499997
O	10.7664235851	2.3148693423333326	-0.22242358114999972
O	7.2783983151000005	2.0257396363333324	1.0985627208500004
O	8.7459155351	3.9015942823333325	0.7171444508500003
O	9.6981426951	1.8198019793333327	0.6687608908500003
O	-0.009209251899999882	-1.9992485376666673	-2.10437135915
O	-1.2139219848999998	-2.3699967376666673	-1.5844222391499998
O	0.11205728910000012	-2.543027977666667	0.5393715808500003
O	2.9037296451	2.2484902783333327	1.0044206408500003
O	0.1911344591000001	-1.5761754376666675	1.5374824308500004
O	3.8922817251	3.173336542333333	1.1794303108500004
O	11.0402381851	3.6566910523333327	-0.15154507714999976
O	4.4756064251000005	0.7167463853333327	1.7607880708500003
O	3.2109516651	0.9341284323333328	1.2197213108500002
O	8.5634138051	2.545805432333333	1.00529841085
O	-2.6664525949	-1.8442579676666675	-2.3461741791499997
O	-1.3587534449	-0.007591107666667263	0.7339072508500003
O	-1.6467788349	1.3226822873333326	0.7861206708500003
O	-0.6789836748999999	2.2078007503333326	1.1289050508500003
O	0.6108504657000001	1.7858181793333325	1.0823191408500001
O	0.9933714741000002	0.4704122413333327	0.7831084808500003
O	-0.0675373628999999	-0.29538541766666726	1.06537148085
O	0.16367872810000011	-0.7051720676666673	-2.5629818591499998
O	-6.5469163549	7.238210732333332	-11.27871640915
O	-2.8519692949	7.659417182333332	-11.910677709149999
O	0.2421152001000001	5.958176822333332	-10.53622362915
O	5.3539769951	7.1067609523333335	-7.27203032915
O	6.427940325100001	3.5684980123333325	-6.457638139149999
O	5.7977381151000005	2.326281952333333	-3.08287384915
O	7.267959145100001	-1.1925850376666673	-3.22778646915
O	7.7341153051000004	-4.490531277666667	-4.60946255915
O	5.3251205951000005	-6.852476877666668	-2.9639801591499997
O	5.2145835051	-10.603098257666668	-3.37634058915
O	2.2012187051	-10.580913957666668	-5.705233829149999
O	2.9069889951	-7.306857537666668	-7.473875919149999
O	4.2895496951	-3.7796355876666676	-7.289428549149999
O	2.6215808751000003	-1.1175500176666673	-5.3635988791499996
O	2.2319533551	2.5089593323333323	-6.347208619149999
O	1.2003826241	5.608695942333332	-4.45020989915
O	-1.2647088349	7.693464122333333	-6.427625099149999
O	-4.318840884899999	9.843787662333332	-6.655108419149999
O	-4.5757492649	5.811251262333332	-2.8302430091499997
O	-2.2895476249	2.8491588723333328	-3.00759903915
O	-2.4137544549	1.0004062313333326	-6.357909299149999
O	-1.0785785148999998	-2.6089411076666673	-6.535709219149999
O	-0.4946976448999999	-3.981901817666667	-10.05714579915
O	-0.2536551788999999	-7.741416497666668	-10.26198203915
O	-8.1834571349	-2.6218093176666675	4.920131840850001
O	-10.8454799149	-2.5382126076666673	2.28765966085
O	-10.3546288149	-2.7114137176666673	-1.4735595681499998
O	-11.9705891149	0.34294764133333266	-3.05715454915
O	-6.198122594899999	-3.012562717666667	-7.2045381291499995
O	-6.9856570849	0.34348843433333265	-5.577409589149999
O	-7.259295474899999	1.0040591433333326	-1.8651242291499996
O	-6.9166514348999995	3.8764097023333326	0.5710980108500002
O	-3.3450795949	4.889916222333333	1.10227129085
O	0.3487879661000001	7.374895842333332	5.06461638085
O	2.4909184451	5.673469612333333	7.71708895085
O	3.3786480051	2.6014668023333325	5.7233620508500005
O	3.5463014651	-0.9888899876666675	7.027842600850001
O	4.0086092551000005	-1.8762458576666674	10.683712690850001
O	7.1953196951	-3.895323467666667	10.142770490850001
O	9.059839805100001	-0.8476608476666674	8.961334830850001
O	-0.11978278089999994	-14.360016257666668	4.36126824085
O	4.0208512151	-7.532856527666668	10.002598190850001
O	4.6558364151000005	-6.4896429776666675	6.39807840085
O	0.9636211651000002	-6.953109417666667	5.828911680850001
O	-0.2654676388999999	-4.808507737666668	8.703812440850001
O	-0.4837394348999998	-1.1000605276666673	7.796376530850001
O	-0.4015295349	1.9801440213333326	9.98653639085
O	-3.2682142949	4.424795462333332	9.533647390850001
O	-1.9924922849	6.328534172333333	12.58955809085
O	0.4666803181000001	5.2105728923333325	15.292110490850002
O	-4.2936833749	-5.903625627666667	4.373145660850001
O	-3.3977695949	-8.158707237666668	1.43313291085
O	-5.7786417948999995	-10.973094957666667	2.5067177908500002
O	-4.3993772048999995	-12.476875057666668	-2.74323000915
O	-2.5458262449	-15.672423657666666	-1.7877777991499997
O	5.7481353551000005	10.505275122333332	6.06777851085
O	5.0066324551	14.130773142333332	5.146754070850001
O	7.8123794951	10.906654852333332	2.37964967085
O	4.3420010051	10.491311292333332	0.9073705108500002
O	3.2341179051	13.919163042333333	-0.32193444114999975
