29

O	17.303894483937142	30.232108462936125	85.84545236965566
O	18.04086566798604	31.17882063477997	85.15971117072125
O	19.258847291233348	31.25495535733388	85.79688701711582
O	19.006830175951528	30.94489378780573	87.24173252014661
O	19.35522644912565	31.841745161100807	88.30662357427681
O	19.118001076171613	33.2332014975608	88.46407528458397
O	19.01932621791123	33.346823070819276	87.00595659954413
O	19.80997679832497	32.611508973677125	86.07157792354509
O	18.41901609681044	33.99296237410462	89.42414465048388
O	18.5888922842165	34.56751305389869	90.6264989681345
O	17.796630821811398	35.612086487773055	91.12873068123463
O	16.693542427155915	36.09170241112122	90.49636934843956
O	16.272826617780428	35.24091366989702	89.58456801214237
O	17.2695314512004	34.48535758195265	89.03164304459618
O	15.253706402168183	35.01025847409286	88.72051445217797
O	15.064059294970168	34.18330222141223	87.64582528742221
O	15.76584290376932	33.321356797730374	86.54297747187935
O	16.220620680168196	32.33381343206177	87.5307716508306
O	15.011593692503109	31.923512410110362	87.8107907716862
O	15.394392577899842	32.21602645564089	89.22525383870239
O	16.122309492147963	32.754030564888495	89.9965793414787
O	16.614571124684748	32.35162372774661	88.85247831730479
O	15.194535374665984	33.57950105640148	90.86934808933593
O	15.232263209109878	34.13323463302643	91.95612050027766
O	14.330125730529337	35.05064253639886	92.39368387907686
O	13.644460943190333	35.38649906965661	91.37664877921138
O	13.797653027052013	34.21378455814896	90.6015924843221
O	13.670796918391297	32.722895288649106	87.87982031489597
O	13.868686384609882	34.100287340046805	87.98595317296169
