31

O	18.3823801187309	34.21436519534105	89.51130533701527
O	19.764350917988466	33.888754691826485	89.37060221370717
O	19.797374676120114	33.021981072498825	88.08489897703875
O	21.059954014359008	33.36592133345286	87.55925691037102
O	16.554139158918762	33.79950507441003	91.21354372494375
O	16.702674042328205	34.980411218913936	90.94306659640455
O	16.4810484352223	34.51540368194903	89.5303640479205
O	15.178849159921997	33.83181156683231	89.59347302495885
O	15.830282145989578	32.94879511198688	90.47637328842043
O	17.395993298753897	33.40566172685088	89.08526925832388
O	14.730822553851151	33.42488238235879	88.40283220792347
O	16.987067479130875	32.898871248553284	87.99751511784436
O	15.60216149066876	32.717121496282346	87.4805003559856
O	15.935061243963316	33.67755664737575	92.69757059618455
O	17.652126305481445	35.25723688260035	92.04429457802811
O	18.86094123890178	35.525553074430036	92.40940228593287
O	17.110311534010965	35.942331307372534	93.09068009471076
O	16.259002800365582	33.061592746942466	93.77260196318792
O	14.933615918213837	34.573419163488694	93.06130817072096
O	17.471252554163254	35.961627794998485	94.44290061734465
O	15.874804505143857	33.288485358044824	95.0658229007356
O	14.470332921637114	34.90579082328357	94.29225880350765
O	19.314853056480402	35.18889844994299	93.71790927513975
O	18.485880933172403	35.117408495562245	94.77722373342702
O	15.210369058255997	34.441280504649725	95.36114788233913
O	19.48700359926947	33.06891910400478	90.61094443283056
O	18.812869477806874	31.922208122235887	90.46561853588459
O	20.348681644301095	33.15181154824888	91.59113224905822
O	18.279837606383936	31.491114276638488	91.70074446746057
O	19.80131466832726	32.78111854910473	92.82215714561025
O	18.696206517948916	32.14339110386632	92.81899357223288
