27

O	17.15215221457534	35.73751355863591	93.40225968609332
O	19.649739095387766	33.33925289353382	92.94421203586805
O	19.66255731595452	33.84217936063448	91.55919548987966
O	18.51363305866955	34.22985135389586	90.82404453279104
O	17.834749018046345	33.03688882539816	90.51248125532442
O	16.882648927535907	32.182402912377356	90.06356538723509
O	17.11272459197927	31.847094640930425	88.77556736828245
O	17.21879948504581	33.26669497767131	88.75325730079088
O	17.903418338489985	34.16768906937911	89.63193121163955
O	16.02848668404875	33.41966803862239	87.98137829955787
O	15.268596815043372	32.175632649804015	87.32823437940566
O	16.257094522194787	31.08757830417404	86.93223222315562
O	17.229692916596907	32.00766746787552	86.71888869330253
O	15.859046919243255	32.75521625777843	86.85404529107095
O	15.461186913713632	32.028283340268196	89.6476109878693
O	14.41939825045472	32.9012696734105	89.79597869148402
O	15.177145554362816	34.091839648439816	89.94296441755444
O	15.497763812965836	32.914655838947674	90.87178637617043
O	16.188289612927623	33.602674052563295	92.39778792588152
O	16.531674874819217	34.55264388611242	93.48395846492797
O	15.52389884069372	35.34288901404899	92.71437566024515
O	14.998707002014521	34.7224015940323	91.12785153338974
O	13.606582942621515	34.342674467583066	91.42702002131945
O	13.322328252944049	33.27287256800547	90.54903102609887
O	19.240035099514856	32.57110559808949	89.76487799586003
O	20.236769927319454	33.05032503971791	90.72421182107136
O	20.622022702503106	35.010658014211195	91.84710976142259
