27

O	20.049748524849985	32.87326213138438	92.17854523746882
O	20.20149914381671	32.833603476617775	90.72679181689057
O	18.90992854545842	33.18641151808505	90.24622794822764
O	18.31896101990074	32.649923574892426	89.01427178408994
O	17.511060237529424	31.50716062771738	88.80690791120786
O	16.78227744288801	31.213084322842192	90.04527600773157
O	16.877674190098848	32.46785739348693	90.2244099849566
O	17.958150534526425	32.813351376217675	91.15894666853565
O	16.824596290706147	33.38691258796752	89.20302018332444
O	17.43514193138401	34.69815236764951	89.30934295351376
O	17.715488654147112	34.939984465186775	90.82433918497796
O	16.933202723422433	33.98292472841659	91.69857682649848
O	15.984096286772449	33.43499704596987	90.26926272640227
O	15.628435784952828	34.921133118466294	90.40856560163786
O	16.126809746078564	31.414521392858145	88.49071742673341
O	14.920147656334962	31.65186194748393	88.86618078830858
O	14.168853641777101	31.398482121319518	87.60967927744792
O	14.999026340753996	31.19971204427329	86.36551449712653
O	16.30694122499254	32.05622257061718	86.3667678177699
O	15.835803554186036	33.35372147805515	86.86398248772079
O	14.539510659756187	33.75212049292667	87.48257007742592
O	13.4686672321324	32.662317501034636	87.72525832631868
O	13.246024201518715	33.07719979762683	89.24867147808091
O	13.881132062139933	31.97609397106906	89.73633448035206
O	19.78093417595742	32.64324678936748	88.48356607099102
O	20.63460170820989	32.38256064301058	89.61760716199096
O	20.899481530147092	34.24387488426551	90.822081219427
