88

O	-3.533449468836207	-0.2403625493793107	0.4938676488275861
O	-2.1384047288362065	1.5564180156206895	1.0496717948275862
O	5.206112691163793	-0.29857992237931075	-1.1779777911724139
O	3.9497106511637936	-0.3813642173793107	-1.817877375172414
O	2.649452241163793	0.1481568687206893	-2.139959075172414
O	1.9268280611637931	-0.3263817563793108	-1.051190609172414
O	2.7245113211637935	-0.1578375963793107	0.1821998708275861
O	3.517854651163793	-1.2681206743793105	0.09317636682758607
O	3.590924281163793	-1.6489019843793107	-1.341484341172414
O	4.746109651163794	-1.3737909443793106	0.6896265648275861
O	4.353840401163794	-2.2045790143793105	1.798154764827586
O	3.4834590011637934	-1.3780490643793106	2.602913284827586
O	5.661633191163793	-2.7532282943793107	2.237651124827586
O	5.429558301163794	-3.5609988243793107	3.3319099648275863
O	1.0615795011637932	0.7106918896206893	-0.981463791172414
O	-0.025214120836206666	0.1463872318206893	-0.513382229672414
O	0.5715009711637934	-0.36923145737931073	0.6995686848275862
O	1.0593044511637935	-1.8432767043793108	0.46164494082758606
O	0.07861618716379337	-2.1092123043793105	-0.6052264991724139
O	-1.1311865388362066	-1.2683438243793106	-0.744018015172414
O	-0.8956606438362066	-0.15231262837931067	-1.532840095172414
O	1.0029134011637932	-2.2021306543793107	1.8310258148275862
O	-0.07772806183620662	-1.4543762143793106	2.445186144827586
O	0.43665556116379334	-0.8826479343793107	3.5767943448275865
O	-1.2665038808362066	-0.8758755043793106	2.0781619848275863
O	-1.2100751858362067	0.6581351856206893	2.3321856648275863
O	-2.1674719288362065	0.6723389236206893	3.4956863948275863
O	-3.4662884388362065	0.7393430616206893	2.811709354827586
O	-3.7053679788362066	-0.6440213253793107	2.871719894827586
O	-2.6385973888362066	-1.0731261743793106	1.813237264827586
O	-6.038945558836207	14.43830103562069	1.1417998348275862
O	0.6801669311637933	12.74441283562069	1.869270984827586
O	5.713255081163793	10.58612563562069	-0.876888379172414
O	6.654623651163793	7.862802285620689	1.593117854827586
O	6.167581441163794	4.388862315620689	0.487618936827586
O	7.579716971163792	2.5526094556206895	3.5676215248275858
O	7.612990481163793	1.7007111856206893	7.287567514827586
O	5.020658351163793	-1.0384353943793105	8.124607124827586
O	4.581276881163793	-2.9964104743793105	11.288290254827587
O	1.5977460011637934	-0.9433945243793108	12.447287854827586
O	2.5818830911637933	2.3824134256206895	10.916381754827587
O	4.152419611163793	4.2343006456206895	7.988326894827587
O	2.537964801163793	4.114438415620689	4.583677804827586
O	2.4907038711637934	7.096095645620689	2.2350594048275862
O	1.4791903711637935	7.568703265620689	-1.3836598111724139
O	-0.8472537928362066	10.48046153562069	-1.9675285051724138
O	-3.815944298836207	12.09218023562069	-3.6326002851724137
O	-4.359464808836207	6.64055720562069	-2.617237665172414
O	-2.1328465488362065	5.025836695620689	-0.06548882517241394
O	-2.2068711488362065	6.59718348562069	3.3820522048275863
O	-1.0831246028362065	4.64854505562069	6.485764244827586
O	-0.5222216808362066	6.621407205620689	9.678108754827585
O	-8.667698798836206	-4.441071664379311	-0.39717620217241395
O	-11.216276068836207	-2.0614899743793105	1.0102036048275862
O	-10.653144068836207	0.8933470296206892	3.332042964827586
O	-12.068001868836207	4.050671545620689	1.7574134048275862
O	-6.969733148836207	5.890838895620689	3.3484523048275863
O	-7.369664158836207	3.2806584556206895	0.6167318348275861
O	-6.939862948836207	2.9049594856206893	-3.109081995172414
O	-3.262660808836207	2.7707661556206893	-3.999246285172414
O	0.29482510516379334	0.8579124656206892	-8.345898655172414
O	2.2705660511637933	-2.4343073743793107	-8.594515275172414
O	2.9698094111637934	-2.6611041343793107	-4.8172604751724135
O	3.2131149711637934	-5.955799504379311	-2.784030875172414
O	3.4429129611637936	-9.43236825437931	-4.132044295172414
O	6.566017401163793	-10.34200906437931	-2.161040875172414
O	8.642260861163793	-7.5091984843793105	-3.801506595172414
O	-1.1054211198362065	-11.145038764379311	9.743319554827586
O	1.9665108111637934	-12.87329926437931	4.4761180648275865
O	3.1726778411637935	-12.22399776437931	0.896652564827586
O	4.032959741163793	-8.722776934379311	2.184342074827586
O	0.3058890011637935	-8.23748884437931	2.843621594827586
O	-0.9135956578362066	-9.368831044379311	-0.6480412301724139
O	-0.9421301408362066	-6.48679557437931	-3.1837445551724137
O	-0.7822576493362066	-6.27337525437931	-6.902184165172414
O	-3.5654113488362067	-4.3405995543793106	-8.654963025172414
O	-2.2709808888362066	-5.743941744379311	-11.940834045172414
O	0.05303629216379335	-8.708038864379311	-12.603754745172413
O	-5.6393385088362065	-8.65309445437931	-3.389030745172414
O	-4.869050288836207	-6.234889644379311	2.6735899348275862
O	-4.130613988836206	-5.13006003437931	6.335256514827586
O	-6.623708788836207	-7.47822968437931	7.923295604827587
O	-3.525304038836207	-6.76651252437931	14.295755654827586
O	5.665248771163793	1.6297852256206893	-11.652838545172413
O	5.061443881163793	4.543954435620689	-13.965966545172414
O	7.940278131163794	4.757087595620689	-9.760076515172415
O	4.507502611163793	5.902098195620689	-8.544588165172414
O	3.5662953511637934	8.94453174562069	-10.582121345172414
