34

O	18.868108774539103	34.135639757076206	90.66802167949727
O	17.745332026005464	33.18475054031736	90.62084135481429
O	16.97339923512362	33.549316508778944	91.69863788410525
O	16.129806485792656	32.53316968802297	92.02866829708726
O	15.778620567591432	31.756544634316814	90.96250591501224
O	16.153520328909234	31.772851557150794	89.65946660392248
O	16.97331530292771	32.78689402257819	89.48142954808095
O	17.54847650645338	32.46065458112245	88.34556221757218
O	16.571001372072438	32.092241440729126	87.4731518091898
O	15.881562847181524	33.24595874744144	87.16415770217074
O	15.66724805160325	34.38327007562717	87.97537089651699
O	14.608671975508233	34.35019889533647	88.85566370937174
O	14.601497765929153	34.7346481335382	90.10906014437036
O	13.619050669370603	34.046286939502934	90.86491783621162
O	13.03625513463247	32.90108471784919	90.26372815991519
O	13.181216720900231	32.32739707894384	89.09921731327107
O	12.703345387010275	31.34935497055876	88.14817298437026
O	13.722486231747146	33.39010218836596	88.4758575105981
O	16.70684123744731	34.808443016928166	88.40317992489396
O	15.850860957476403	31.4157016974378	88.3276656677952
O	18.609355312344597	33.30185115138226	87.95589916659283
O	19.62250585175772	32.595719936484954	88.72368067733034
O	20.776961090594856	33.266814437985545	88.10234051562222
O	21.178308669132733	32.633096639983876	86.87609047794416
O	20.55537954605042	31.333374041088987	86.79278107742356
O	19.176385075627415	31.499286739999853	86.43730139041021
O	19.31023204572123	31.30263673110269	84.9931533896798
O	20.149119043317498	32.30053348937963	84.25416271264739
O	21.564766775120226	31.722135277060378	84.21640807138772
O	19.563661818018684	30.132567301854206	84.67755743917154
O	18.50446083501629	32.717625768990935	86.63192663427398
O	13.397557140178808	31.317573777583505	86.93307660128018
O	13.099244339236995	30.143833588541405	87.84755931169092
O	11.44583671776808	31.443443954666932	87.69753127328732
