39

O	15.298991771618658	35.39398998974271	94.5740306542354
O	16.712608018055533	34.30537841751009	91.15720078626417
O	15.711579723287866	34.73800055185084	92.03144416193177
O	16.329700551241874	34.78923909674556	93.31269175502958
O	17.64221410234482	34.99839446079042	93.29084737544542
O	18.42879754030919	35.50438814789854	92.3178405494702
O	17.88813289614088	34.96803078230696	91.18607471343087
O	18.277290971554276	34.03099968651806	94.09924751248101
O	18.41144343603998	34.992744443937056	95.03110199722069
O	19.616478078944066	35.58228917272321	95.05120083603744
O	19.656341797825675	36.4089521118641	96.20226518061904
O	18.95893987321511	35.94665792876844	97.31160442238917
O	17.63448665775113	35.742091031562644	97.07390079533485
O	17.482886931908162	34.91696883757233	96.01778571855093
O	17.05342090840326	35.22717498395825	98.34679123331328
O	13.835750838757473	31.993774383200865	88.39238713549376
O	13.424684190936723	32.636375014387404	89.49619535599874
O	14.422871047860905	33.359813812469795	90.06235357739196
O	15.709095681794246	32.98014577889171	89.86319450145389
O	15.0239943191822	32.179791652535776	87.80764457921983
O	16.064071763274224	32.59302721611916	88.64342627155874
O	17.20557725342013	32.59916150709751	87.96718370478875
O	16.79572922562194	32.67465310343803	86.66045383790788
O	15.686272141706803	31.829875832042603	86.65257642420254
O	18.39221521206528	32.96306583200557	88.6742676704001
O	18.507161814823768	31.57221586647273	89.4353851957245
O	19.38269861387789	30.87534175339107	88.57065762523598
O	20.539624356471094	31.673151487475522	88.24317097748822
O	21.040000290412618	31.466031108743497	86.8813426725995
O	20.487941415716797	32.8723238205043	88.53330219165835
O	16.69311290111257	32.86955776262559	90.81373504693246
O	19.81126880208049	31.504978461981196	86.04109393456278
O	18.95254137952162	30.328029939476988	86.57083383693794
O	18.564656175439985	29.906657810951835	85.29391985135011
O	17.717006444108687	28.87626663376166	85.2333245076353
O	19.862396051044993	29.456369373738696	84.73496998369241
O	15.811203253910435	35.030713548069464	97.9944158981278
O	17.37342711127563	36.031199004119436	99.32951504557606
O	17.67899252768268	34.06724399491208	98.58406740609914
