31

O	18.371799817604867	33.89774658005116	89.37017587888113
O	19.665003853096696	34.248615356194065	89.67025419274688
O	19.109832861341918	34.91627688384085	90.77393938600154
O	18.456547673685755	35.88417207904244	90.0810259716066
O	17.352716360992424	34.7837532713589	89.84004839157909
O	16.357960844573967	35.574580239076546	89.35622763697454
O	17.939357063995097	34.38520459448395	91.55605930352253
O	17.58341822453824	35.35777348294811	92.68389325635297
O	16.341204167519226	34.586919246383935	93.21813691041163
O	18.933398970576842	33.678955223267764	92.22655387171903
O	17.9370013717794	32.650932105575876	90.14465784898242
O	16.64404466152787	32.46170756101057	89.7518874442134
O	15.823421999926916	33.246501738316255	90.29540182167452
O	15.983829949478014	32.70355280005825	88.93423110499066
O	15.348740819582746	32.98099352000576	87.89205861866542
O	14.239032851507258	33.54446858894325	88.31472070781444
O	13.739119196525182	33.81948231425765	89.59756045755157
O	14.781714186021699	33.89666616087422	90.54268978410119
O	14.577574961166858	34.99286422572728	91.65072569868384
O	13.171987815044242	35.292884350087256	91.3775295010347
O	12.773812301124192	34.674951703169846	90.09871272120779
O	16.38104300157922	33.05351619096967	87.03774111828608
O	17.70971425003049	33.10553728971103	87.362088001874
O	18.808954890078773	33.768293024129676	86.42193710456732
O	19.752652376126655	32.65224779863175	86.1429309814571
O	19.608596993610355	32.161151150085345	87.41165037606888
O	18.181695991899563	31.87631734044313	87.24344673520919
O	21.008790526131442	33.374822174293	85.89794990520872
O	16.954619847851006	35.54861956779688	88.24489960307791
O	15.191499085017842	35.93301638717628	88.83324505691881
O	16.188676378929795	36.50794388546352	90.2670057815898
