40

O	19.751816053271362	33.85791332894093	89.76638940804588
O	20.089707037685834	30.815995877569797	81.54615798791829
O	19.223736539843273	32.759853858679065	81.8864030471453
O	14.176691895681019	35.56705462798305	91.99229626133568
O	18.135192636596237	37.51904927780767	93.57936808356766
O	19.020326333578662	36.64315843805672	94.24919206813266
O	17.77104122059777	38.45924526687117	94.63191002146999
O	18.322222395276317	36.16678126306591	95.43165474004716
O	18.222074692330352	34.582699164070846	92.04231523082005
O	18.268786937188203	34.37241802750047	93.3600596167444
O	13.283762223147868	34.29757755908469	90.13850693424064
O	16.063344938238057	33.43538499070024	92.28349630846152
O	16.72441956931028	34.164465376225	88.10797711112811
O	15.453283195828167	32.084703887811926	87.95066025238985
O	19.013401749052512	32.554446256692614	89.8824263772086
O	15.841076681239525	35.513774994387994	95.49085791592135
O	17.841598882347665	31.96037837835236	84.27685604532992
O	20.06410980982807	31.66866195052598	83.66995601468182
O	14.012825499311871	36.3590645783641	92.83954456546306
O	16.79202396517109	37.82619777047448	95.40616309357017
O	19.57388603129135	32.55235999719145	85.67105218268247
O	18.428067443714685	32.13658139478267	85.62313118670889
O	17.039088280502334	34.10531705053307	91.49085435887949
O	16.33770790946855	33.53853311756578	93.67808004918491
O	16.968817973347843	36.505785844333566	95.71096929606739
O	14.362510033832521	34.6640256845853	90.94058936785937
O	17.021991328193383	33.11619495888917	87.22381743732258
O	16.908480439493857	34.76536982057707	93.3048052894723
O	16.92166752533863	32.033213703099165	88.11285468837703
O	15.48351683725482	34.68373047208213	90.16491303195116
O	14.663007958936698	33.13811783547995	88.50743587727062
O	15.566230695733243	34.07078459087837	88.91519068758448
O	18.715008358499883	31.115437053865456	83.51512102944928
O	13.630776823123004	33.18171073768452	89.41982600820978
O	18.00487124039441	33.33171718677388	86.34173486597338
O	16.73514186883674	35.07979616293517	90.54666400630737
O	20.376539886306382	32.00474014660941	82.30542064182926
O	17.978501307516378	32.174447944932744	89.08200546677345
O	16.113782387680576	35.63283360211562	94.17487577382344
O	15.317164950586568	33.293006889904355	95.10112751659783
