93

O	0.5648858881741935	-6.018649453306451	8.806031367343548
O	0.20961013817419338	-5.592670393306451	7.512153387343549
O	-0.7281778048258065	-4.593034183306451	7.2047843773435485
O	-0.9634387858258066	-4.0621113433064515	5.855631607343549
O	0.001236899174193451	-3.9560961733064515	4.847812197343549
O	1.0814982281741936	-4.813164963306451	5.249287077343549
O	1.2650431481741933	-5.3274627733064515	6.604350177343548
O	0.1107800131741935	-3.1062848733064508	3.7123442273435487
O	-0.7885693414258065	-2.311910343306451	3.1138370873435486
O	-0.6655184468258065	-1.6509992233064512	1.9213743573435487
O	0.5979032781741934	-1.317675513306451	1.4191044973435485
O	1.4695568981741935	-2.3213000333064513	1.8235772473435485
O	1.2537228381741934	-3.102100503306451	2.9187567073435483
O	0.48961621817419354	-1.260244393306451	0.0568494383435485
O	1.3836654681741933	-1.367451603306451	-1.0745874226564514
O	2.4978651981741935	-1.579264633306451	-0.41357712865645146
O	1.7602588381741935	-0.3835726133064512	-2.1148997026564516
O	2.073265718174193	0.716281274693549	-1.2679460126564515
O	2.3653320681741934	1.7964673516935488	-1.9158152426564514
O	1.9280698481741934	2.4433483866935486	-3.1364965526564514
O	0.9113179481741934	1.8115743826935489	-3.5885087626564514
O	0.8954707781741934	0.4684553396935489	-3.0331675826564517
O	0.9616221481741934	-0.1605479533064511	-4.104580682656451
O	1.0837896481741933	0.32448745269354895	-0.37052231865645147
O	-0.2499393798258065	0.36241453669354895	-1.0001718256564516
O	-0.2811680168258065	1.6676343816935488	-1.3030024616564515
O	-1.7422204788258067	1.639981467693549	-0.9734582296564515
O	-2.5543911418258065	1.027636312193549	-1.8288134726564516
O	-1.8485553718258063	0.3658972016935489	-2.688429642656452
O	-0.9068597582258066	-0.26834213330645107	-2.0073339526564515
O	-1.9261653018258067	0.8941111406935489	-4.061096692656451
O	-2.0221175118258063	14.860212136693548	4.414906157343548
O	-0.9242987506258066	12.990569436693548	7.519036507343548
O	0.7962834281741934	9.661635526693548	8.09130854734355
O	-0.1263963458258065	4.270248986693549	10.707123857343548
O	2.742921538174193	2.2803204066935487	9.242229727343549
O	2.0917444281741933	-0.027446353306451066	6.601865047343548
O	5.617931398174194	-1.527148073306451	6.002747087343549
O	9.086846408174194	-1.4175694633064513	5.024524977343548
O	9.444527438174195	-1.5544381633064512	1.2709526273435485
O	12.675451038174193	-1.8131882333064513	-0.6713017409564515
O	12.722121538174195	1.866884510693549	-1.6736364806564514
O	11.116675738174195	3.300803026693549	1.4312621273435484
O	8.592235738174194	2.9169457766935487	4.218854367343548
O	4.898936248174194	2.917905436693549	3.352830347343548
O	2.2558488981741935	4.462549546693548	5.517025367343548
O	-1.5090509328258066	4.407927346693549	5.675634767343549
O	-3.0416665718258065	7.913742496693549	6.0263392273435485
O	-5.665547481825806	10.459955236693549	5.178630397343548
O	-7.682893791825806	7.323553926693549	2.5456377773435483
O	-4.192920491825807	7.051791696693549	1.0175508773435484
O	-0.8963089278258065	5.124900836693549	1.1816445173435486
O	2.1399804081741935	7.334419756693549	1.5998260873435486
O	5.600797628174194	6.014680266693549	0.8464958873435484
O	8.560686058174193	8.013850516693548	2.1335609173435484
O	-2.0224465718258067	2.082854438693549	-9.725905492656452
O	-1.7052018708258065	5.799943446693549	-10.31596136265645
O	0.3342854981741935	8.24221331669355	-8.233530612656452
O	-1.9384179518258065	11.064403196693547	-7.005776162656451
O	0.8251358281741935	9.722167496693547	-2.2847882226564513
O	-1.5280760788258065	7.177557566693549	-3.8860743826564517
O	-5.085055131825806	5.878076326693549	-3.2898767426564515
O	-4.928652951825806	3.192495046693549	-0.5707070016564515
O	-7.827414791825806	-1.7123048833064511	1.4050199773435486
O	-7.100848261825806	-5.4866563833064514	0.7896085373435484
O	-3.1744611318258067	-5.044802163306451	0.8167578473435486
O	-0.7069270138258066	-6.702294323306451	-1.6133722036564515
O	-1.5440439178258065	-9.951860363306452	-3.5293650726564514
O	1.3475684381741933	-11.972698063306453	-2.1853206726564514
O	-0.018270794825806513	-11.778126963306452	1.2870662673435485
O	-3.539296521825807	-12.10640476330645	0.14850446834354847
O	10.444843238174194	-4.717634153306451	-10.06561526265645
O	6.585266278174194	-9.332984663306451	-8.11131479265645
O	3.4931845981741936	-10.49522026330645	-6.230746442656452
O	4.485414618174194	-8.014641003306451	-3.4732525726564516
O	3.982443348174193	-5.242697843306451	-6.020082342656451
O	0.49410871817419355	-6.365625953306451	-7.206812782656451
O	-2.2493554118258063	-4.890914683306451	-4.935878932656452
O	-5.839850371825806	-6.030309533306451	-4.226127862656451
O	-8.608820351825807	-3.403899633306451	-4.764686922656452
O	-11.161294261825807	-6.144207143306451	-4.2381327026564515
O	-10.709813401825807	-9.937428563306451	-4.393055332656452
O	2.1619680781741932	-0.612984933306451	-8.446242862656451
O	5.697334108174194	0.620154417693549	-7.729566022656451
O	6.746122518174194	0.876966862693549	-11.385494142656452
O	13.619918238174193	1.220950295693549	-9.57029652265645
O	2.889056558174193	-17.38461286330645	-2.1869672326564515
O	-9.190959931825807	-5.404750143306451	6.520995147343548
O	-11.952103461825807	-3.527959343306451	8.330618327343549
O	-10.407525681825806	-3.710324613306451	11.77844895734355
O	-7.112722681825806	-3.8501285133064513	9.900716157343549
O	-7.238691011825806	-0.5677701033064511	7.884909637343549
O	-9.798187631825806	1.6783528596935489	9.507256357343548
