106

O	-1.857777225530303	0.13155458579242452	3.6734630200000002
O	1.207610623469697	-3.3768717142075753	4.665753680000001
O	0.6049651134696972	-4.0129582042075755	3.5847932300000003
O	0.7533169834696971	-0.19645444420757552	0.33087006000000063
O	0.7782228534696971	-2.0879076642075756	4.900593560000001
O	1.147732283469697	-0.41741157420757546	1.5302499700000007
O	-0.9033594375303029	4.617990225792425	-4.6431011699999996
O	-0.06038913253030298	-1.8621924542075756	2.5299560500000005
O	-0.7660519755303029	1.3261950247924243	1.1511540700000005
O	-0.6678668035303029	3.3883820457924245	-5.2493620299999995
O	-0.498810660530303	4.7712054457924244	-1.1169731489999994
O	-0.922703411530303	4.377770045792424	-3.2988216899999996
O	-0.8539337325303029	2.9765327457924244	-3.0549858599999995
O	0.26197626346969716	-3.188992794207575	2.5520649200000007
O	-0.05328925653030292	0.8593539047924245	0.04945680000000052
O	0.23499326346969718	-1.4030913142075756	3.8447307700000004
O	0.4377995634696972	0.3776397857924245	2.4501918000000007
O	-0.9364642035303029	0.5013443257924244	2.2078365500000006
O	-0.9048792835303029	2.4994829357924244	-1.7722369429999993
O	-0.6541909715303029	-3.166412984207575	0.3310414200000006
O	-0.42794896453030296	-0.5083714142075755	-3.1422051099999995
O	-1.738810932530303	-0.6167375242075754	-2.4501744899999993
O	-0.8422289825303029	-1.6438105542075754	-4.012296929999999
O	-1.6510803065303028	-1.5641036742075756	-1.4460063079999994
O	-0.874932039530303	-2.8066933342075755	-3.1017727199999996
O	-0.418059577530303	-2.4576219742075756	-1.7688416769999993
O	-1.973628336530303	1.4903801448924243	-4.365002519999999
O	-2.3528258765303027	0.8455561137924245	-5.609426249999999
O	-2.089016676530303	-0.9940718342075756	-7.0989175499999995
O	-1.4921281915303028	0.2921205157924245	-7.593421129999999
O	-0.6015803655303029	5.275693215792424	-2.3342435199999994
O	-0.8475289725303029	3.5017386557924244	-0.9202718549999994
O	-1.011875582630303	2.5116154157924244	-4.3215631
O	-0.24145724353030296	1.3989820562924244	-1.3316745549999993
O	-0.607349490530303	-3.683002694207575	1.5947987300000004
O	-0.9098404745303029	-3.5397729042075756	-0.9782198086999994
O	-1.296841364530303	-2.077362524207576	0.5075341800000007
O	-3.468330136530303	-0.9082428142075754	-7.138207879999999
O	0.5594893734696971	-0.10159378420757559	3.7620103200000004
O	-1.591796414530303	1.3307746687924245	-6.650776939999999
O	-7.351472416530303	4.301203035792424	-6.412419329999999
O	-7.230352126530303	0.8915880007924244	-7.942335039999999
O	-7.958457326530303	-2.8718611942075754	-7.768111309999999
O	-4.872464086530303	-4.644687384207575	-6.399218149999999
O	-3.909838736530303	-8.302169394207576	-6.186546499999999
O	-4.592883766530303	-8.611240414207575	-2.4375860499999993
O	-7.394160146530303	-6.0673465642075755	-2.238346049999999
O	-8.872603886530303	-2.769961904207575	-3.4231955399999996
O	-7.082999616530303	0.42718670579242435	-2.4544626199999993
O	-8.909173526530303	3.631702605792424	-1.7581497479999992
O	-7.796379536530303	7.221438065792425	-1.2791324219999993
O	-9.098703286530302	8.786194295792424	1.9125199900000007
O	-8.668064906530303	10.925850925792425	4.989276190000001
O	-4.089654606530303	8.183133505792425	3.45039714
O	-4.407770786530303	5.2194685557924245	1.2022320500000006
O	-6.656629436530303	2.4778389657924245	2.5556035100000005
O	-6.385382056530303	-1.1109742742075757	1.4474396000000005
O	-9.206081746530304	-3.477811114207575	2.0930428800000005
O	-8.366701046530302	-7.170788244207576	1.7975813300000003
O	-10.631860996530303	-9.649351014207577	-0.1011339249999994
O	4.720815673469697	-3.7035657742075756	8.10968091
O	4.409907783469697	-0.9252009242075754	10.59917351
O	7.819666293469696	-1.2937591842075757	12.29282151
O	9.951710393469696	-0.5403764442075756	9.24307021
O	10.176232293469697	1.7816469307924243	2.3869548400000005
O	6.443914183469697	2.4726544057924245	2.9834929300000006
O	5.322334483469697	2.0309988387924243	6.530759190000001
O	1.8933332234696971	0.7555200087924244	7.582378080000001
O	0.32096819346969707	3.3150389257924244	9.89121891
O	-2.712382646530303	1.5188845594924245	11.14423031
O	-5.170500076530303	-1.2693198142075757	10.72973051
O	-9.258883246530303	-6.081673384207575	7.365501860000001
O	-8.316221186530303	-2.541525224207575	6.337397100000001
O	-4.713721016530303	-1.3862951742075758	6.197475450000001
O	-3.946694646530303	2.3286333447924243	6.434131920000001
O	-0.794786296530303	3.8961054857924244	5.097064970000001
O	0.37328012346969697	7.407360795792425	4.105973260000001
O	-0.9124071165303029	8.486559945792424	0.6691094600000006
O	0.3487435734696971	11.644699085792423	-4.179986109999999
O	1.0421232034696972	7.132002795792425	-7.564126229999999
O	2.949094173469697	4.0066453857924245	-8.455455319999999
O	7.845964843469696	-11.925103514207576	-2.5033852199999993
O	6.212392143469697	-9.450488914207575	-4.858799379999999
O	8.595927533469697	-6.639337704207576	-5.864863889999999
O	7.5811478334696965	-4.9916393442075755	-9.16968123
O	7.315277813469697	-1.4373440142075757	-10.52760201
O	3.618144983469697	-1.4921648142075756	-9.5257551
O	4.937752283469697	-1.9489352542075757	-5.948797219999999
O	7.173062613469696	1.0100138547924244	-5.869209769999999
O	5.384851363469697	4.2969974457924245	-5.083266269999999
O	6.448097893469697	7.872131935792424	-5.869985939999999
O	6.568031193469697	10.266111745792424	-2.9038801999999992
O	12.028588493469696	9.983758855792424	-4.0228807699999996
O	10.490457193469696	6.487308595792425	-4.451268819999999
O	9.410856593469697	3.866231485792424	-1.8854635369999992
O	8.791229523469697	0.13457993579242444	-1.7407194209999992
O	5.460691913469697	-1.0237333842075758	-0.4078922609999994
O	3.601685803469697	-4.316730044207575	-0.13212542899999935
O	6.028759883469697	-6.452203914207575	1.3676704200000005
O	4.674161073469697	-9.180891114207576	3.5868811200000006
O	1.2029587934696973	-9.428578314207575	2.1891164100000005
O	2.156032033469697	-12.283053114207576	-0.11930343699999935
O	3.1562800734696967	-14.520112414207576	2.8256995700000007
O	-2.043872225530303	-14.783753614207575	2.3134625900000003
O	-5.756881786530303	13.280476785792423	-5.873011129999999
O	-7.346491186530303	16.252011085792425	-4.072992349999999
