87

O	1.8273039420741388	-2.5893825016551726	-4.61195314417362
O	2.3216359520741388	-3.799630971655173	-4.1641072341736205
O	1.2353437920741386	-4.635199461655173	-4.03348016417362
O	0.06659591507413876	-3.7663583716551727	-3.6779905141736204
O	-0.7203015108258612	-3.959775451655173	-2.49346631417362
O	-0.3311781089258613	-4.155376251655173	-1.1416005811736203
O	0.9582044120741388	-4.661286291655173	-1.6215010241736203
O	1.1415298620741385	-5.455848621655173	-2.7936533841736204
O	-0.5723253179258613	-3.438343261655173	0.048047052826379555
O	-1.4823855849258614	-3.318713641655173	1.0289147158263794
O	-1.2161871719258612	-2.7891342816551727	2.3016019058263795
O	-0.02617850192586124	-2.2348573916551726	2.6528465358263795
O	0.6816773120741387	-1.9360778316551726	1.5842512558263793
O	0.44461010207413876	-2.7571474416551727	0.5167048258263797
O	1.8162258720741384	-1.3073313816551726	1.1894426258263797
O	2.5560614020741386	-1.2779096916551727	0.03767996682637964
O	2.8844105720741386	-2.0177608616551725	-1.3026671971736206
O	1.5600015220741388	-1.7089504016551726	-1.8579858741736204
O	1.7837569820741388	-0.4223562296551727	-1.9137785641736205
O	0.5139471720741388	-0.31285101265517273	-1.1337805671736203
O	-0.3151651629258613	-0.8268932896551727	-0.4536425221736204
O	0.28150911207413876	-1.5534153716551726	-1.3643375341736204
O	-0.3557330409258613	0.032921734344827286	0.7965430658263796
O	-1.1130837689258612	0.22972823434482728	1.7329220558263794
O	-0.7780893678258612	0.8717541683448272	2.8829361658263797
O	0.49006960207413874	0.9669136683448273	2.8792344758263795
O	0.7170674820741386	0.9282778083448272	1.4840933958263793
O	2.5988127320741388	0.4977850283448273	-0.9491344621736204
O	2.8191264220741385	-0.08856655515517273	0.2979769948263796
O	-6.411818057925861	12.917395908344828	-3.5111841541736206
O	-6.256622917925861	10.950391408344826	-6.745530204173621
O	-5.664353047925861	7.282384468344827	-7.543768144173621
O	-1.7494901029258614	3.5864491683448274	-10.52866617417362
O	-2.9005486079258613	0.25827458634482725	-9.24251719417362
O	-0.8074636968258613	-1.4803515716551727	-6.847999094173621
O	-2.929268387925861	-4.745342371655173	-6.690687814173621
O	-6.041339327925861	-6.621672751655173	-5.698606664173621
O	-6.325839347925861	-7.359280661655173	-2.00083870417362
O	-8.59122775792586	-9.465110961655173	0.05939706882637963
O	-10.696697277925862	-6.550001421655173	1.3242063458263797
O	-10.287987097925862	-4.206380581655173	-1.6476778841736204
O	-7.979204547925861	-2.861145611655173	-4.35443483417362
O	-4.980554717925861	-0.8149014596551728	-3.3492639741736205
O	-3.7899132279258616	2.113422338344827	-5.43981760417362
O	-0.7130397923258612	4.290741378344827	-5.497344544173621
O	-1.5132368189258614	8.045305498344828	-5.5749136641736206
O	-0.8933759359258613	11.577515108344826	-4.47956561417362
O	0.043802886074138736	7.679978528344827	-0.5612999699036204
O	-1.3992264129258611	4.070154158344827	-0.8593458551736204
O	-5.122631257925861	4.122100278344827	-1.2163289771736205
O	-7.206469637925861	1.0628143583448273	-0.4854673613736204
O	-10.822013177925863	1.1170230783448274	-1.7985588541736206
O	1.3973978820741384	1.6455115183448275	9.75515404582638
O	-1.0015778899258612	4.413336918344827	10.56658834582638
O	-4.140115807925861	5.366505888344827	8.65117505582638
O	-3.9781333479258616	9.068801678344826	7.66782959582638
O	-8.539837757925861	4.419870538344827	3.2146687358263795
O	-5.502887807925861	6.667573558344827	2.7877566058263796
O	-2.0917802179258613	5.919719898344827	4.291739435826379
O	1.5657377020741388	6.837073158344827	3.67382095582638
O	2.9850402220741388	4.854410148344827	0.7405698958263797
O	8.166701462074139	2.7515445083448276	-1.6264511641736203
O	9.578428322074139	-0.7499300186551727	-1.1243738241736203
O	6.419476292074139	-2.7474116616551725	-1.2022715881736206
O	5.462555582074139	-5.703033961655173	1.1118082858263798
O	7.957058872074138	-7.931658671655173	2.7545279158263796
O	6.835583562074139	-11.190903091655173	1.1294918658263797
O	7.585680092074139	-9.899847441655172	-2.3959124141736203
O	4.337848062074139	-11.508833091655173	5.343509745826379
O	1.9936983120741387	-10.034231181655173	2.7252291358263796
O	0.7496301320741386	-7.593340081655173	5.37039322582638
O	4.187118312074139	-6.397706931655173	6.5685747058263795
O	5.464055362074139	-3.422540321655173	4.51825553582638
O	9.003333502074138	-2.1939446616551725	3.8815694058263794
O	9.674503522074138	1.4809050983448273	4.6234518958263795
O	13.392270122074137	0.7972280213448273	4.006735595826379
O	15.281001622074138	-2.5266101616551726	3.896201115826379
O	-0.4664337679258613	-2.8512301216551728	8.118860795826379
O	-4.1040250479258615	-3.8862264316551727	7.593560775826379
O	-4.932183587925861	-4.599079911655173	11.127848145826379
O	-9.934234377925861	-4.563205201655173	8.51826569582638
O	-10.814048377925863	-8.203390421655174	9.20524417582638
O	11.274147622074139	0.9191270883448271	-6.773010304173621
O	12.357853222074137	4.129407078344827	-8.47715184417362
O	8.576280992074139	1.0245073083448273	-10.09382583417362
O	6.785944602074139	3.6432548183448272	-8.01049718417362
O	7.512430882074139	7.094583268344827	-9.44912266417362
