29

O	12.995831170215386	35.40663358036946	92.17161312713586
O	17.209747641883414	33.92627514661931	89.4506146925973
O	17.047231138716352	31.423574192964725	85.82109787526949
O	13.743801323834646	34.52937360619483	92.47134693745076
O	13.216887166410437	33.727488299527934	88.9493461635144
O	19.14744138207318	31.42981352328376	83.52110672344557
O	15.14587674223524	34.17042156576443	92.28668084829854
O	14.967273404286086	34.95321074745252	89.751550731857
O	14.84269433292393	31.680968508840955	84.80178102407515
O	15.58931897756954	33.352764501537386	91.28098559786712
O	16.902438529391286	31.09075985725675	82.01955821379946
O	16.87250840264965	33.46989742753374	90.75015458880647
O	15.834233026785517	34.186395469183154	89.12806384883456
O	15.398499013868577	33.06272770158795	88.50336863387501
O	16.238289195808647	32.03950963636231	88.04032546201132
O	15.996222144195233	31.57932199843617	86.77746049085387
O	17.248534838300795	32.41037178267079	84.93454567278667
O	18.51795702339049	32.3833038020906	84.16699006203552
O	20.08803572639881	31.4635870191859	82.5745508594116
O	14.797750279951028	31.792246478171506	86.21898090323144
O	15.608670732509694	30.702985554789436	84.21167153677317
O	15.83941238952802	30.721052674506957	82.74545667465449
O	17.492386443804897	30.47355746550294	80.98134366373505
O	13.85966108946264	32.444947594508974	86.9688482770483
O	14.089942896791426	33.15642366692925	88.12073605760762
O	13.633366876445399	34.86518433673067	89.45898529790784
O	17.62888529722805	34.42085308468262	91.50240232300041
O	17.297265235850737	34.80663051160588	92.79808886437618
O	15.933456066188974	35.098844982988666	92.79457217076856
