30

O	18.601179946407225	33.903035682343926	85.69776384043367
O	17.535980049246678	33.613195961076904	86.7779735899838
O	16.30990255675245	33.503847785432505	86.53315341231546
O	15.801076818552481	33.89197266129188	87.78623540416814
O	14.277916310112282	33.98030068715959	87.95287250962234
O	13.831036017995096	33.415402463338005	89.03593151890101
O	14.842232001216075	33.45009333615354	89.90264801930898
O	16.257731233952	33.9715004807391	89.8870568391862
O	16.911533126340775	33.72043937423525	88.79710722529434
O	17.894765064277554	33.663290302845134	87.98673887850853
O	19.037871280711684	33.87795098950074	88.60682138636025
O	19.27302463990167	32.79720422508033	89.3852379246651
O	19.89358271165205	34.286848105871876	87.5670160529806
O	15.13080899895124	32.092332279844655	89.93152892159323
O	15.216569681880006	31.46712979248205	88.57381070920782
O	14.26364695228528	31.508060187436318	87.54664477739429
O	14.793638806504012	31.089760274515786	86.35932215427437
O	16.143258728537905	31.15489942851108	86.14460430088278
O	17.03876227183775	31.175709616836468	87.18774872477334
O	16.54649464955917	31.34741792034253	88.30870440491695
O	18.279584263923027	31.1248475988476	86.52201529279837
O	19.25908623851084	31.06096033927612	87.40565379093765
O	20.628236356031053	31.093727975244413	87.31371589850252
O	20.97817020439696	31.84955370659668	86.11387588773093
O	20.23287239430895	31.407594003534115	85.07971794325765
O	18.798474698461703	31.06206454188186	85.2332558560121
O	22.20391566333416	32.47334833521535	87.01506100758371
O	23.087288565821176	32.99910667219589	85.86856689916243
O	23.262213882823342	31.261342927813395	86.99579128511422
O	22.480778054517742	32.87301588805766	88.61316103796494
