92

O	4.814655438419672	-4.1260942592622945	1.4518083832885242
O	0.2840763324196719	2.024169010737705	0.5332084432885242
O	1.054519584419672	1.3759985707377052	-0.43724801971147575
O	-0.6367894785803281	1.876822320737705	-1.6763108207114756
O	1.7734826484196717	-2.314289069262295	1.9554688132885243
O	2.025593568419672	-1.269844669262295	-0.5522257087114757
O	5.848947558419672	-1.9311441992622946	-2.1535597067114756
O	4.569125118419672	-1.5640700692622949	-1.4853115657114757
O	10.003825058419672	-3.2735230692622945	-2.1492087167114757
O	9.651303528419673	-3.902777239262295	-0.0485813637114757
O	6.410362048419672	-2.9089572292622945	-1.2084678517114757
O	8.550050738419673	-3.078394799262295	-2.4098610967114755
O	8.185212918419673	-3.8523582092622943	-0.19131762471147573
O	-1.0897468115803282	2.256538040737705	0.4604768832885242
O	-1.462900911580328	2.585413260737705	-0.8125365496114757
O	0.3276987092396719	0.9389786287377051	-1.5894864347114757
O	2.9819379284196716	-2.4186705792622947	1.311852963288524
O	-0.17674029458032803	-0.35156847926229484	-1.7133635507114757
O	4.115811158419672	-3.007660829262295	1.880619933288524
O	10.283854608419672	-3.0101404992622944	-0.8537626975114757
O	4.038996738419672	-2.5804616092622945	-0.7074505844114758
O	3.0421382284196716	-1.925209349262295	0.0550061932885243
O	7.801791078419672	-3.006280339262295	-1.2423879427114757
O	-2.623904681580328	3.825515620737705	-0.7773879683114757
O	-1.4726898715803283	-0.8740426292622949	0.16749419728852422
O	-1.605386021580328	-1.267160969262295	1.4286771432885241
O	-0.524852250580328	-1.7131378392622947	2.0522559432885243
O	0.6682536744196719	-1.7363128692622947	1.4082109432885241
O	0.8993003714196719	-1.1151986392622948	0.20029098628852426
O	-0.279544742580328	-0.8337371492622949	-0.40760996971147573
O	-2.102064821580328	1.843647100737705	1.2385623732885245
O	-2.1025505015803283	10.737168890737705	10.688420563288524
O	1.6509567484196719	10.521584120737705	10.405445463288524
O	3.963321548419672	9.022136660737706	7.808117823288525
O	8.225699878419672	4.704662100737705	7.165458663288524
O	8.430584358419672	4.555618650737705	3.3911512832885244
O	6.8139172384196725	1.6479571777377051	1.6782950332885243
O	7.856434868419672	2.7028034307377053	-1.8893965867114757
O	7.9376523584196725	4.573455130737705	-5.018916956711475
O	4.826685248419672	3.8011457807377047	-7.004514886711476
O	4.168613278419672	4.990292230737706	-10.457875226711476
O	1.8491460984196721	7.7736193707377055	-9.329958926711475
O	3.404683238419672	8.667207910737705	-6.041456886711476
O	5.294168128419672	7.421137420737705	-3.0163950067114755
O	3.589141478419672	5.187581640737705	-0.5481525257114758
O	4.251716728419672	5.408995430737705	3.212406773288524
O	3.3847169584196717	3.098963930737705	6.088007223288525
O	1.879765528419672	4.969039760737705	9.020759753288525
O	-0.6166570535803281	5.287875100737705	11.804985763288524
O	-2.477810231580328	2.629211720737705	7.276135893288524
O	-0.6999091015803282	3.095586750737705	4.153898613288524
O	-0.4356074825803281	6.686149660737706	2.819771703288524
O	0.23585200181967192	7.428299900737706	-0.8652594193114758
O	1.366279478419672	10.988601890737705	-1.6455991477114758
O	-9.289512041580327	-2.0116282292622945	-1.4277321117114758
O	-11.147699291580327	0.9919106507377051	-0.25631059171147574
O	-9.795519791580327	4.5046753107377056	0.1755431852885243
O	-10.486945891580328	5.616715060737706	3.7727347032885246
O	-4.534577751580327	9.209176770737706	0.049152973288524304
O	-5.096649351580328	7.0269154707377055	3.127871643288524
O	-6.164776821580328	3.406234620737705	3.1605059232885244
O	-5.939248861580328	0.3246931167377051	5.387600213288524
O	-2.498712361580328	-1.0546215392622948	5.340020313288525
O	0.6106031324196719	-6.160576319262295	6.161692833288525
O	1.666604818419672	-8.763741609262295	3.582029153288524
O	2.569073668419672	-6.369953459262295	0.7620418732885244
O	1.5801435084196718	-6.786407549262295	-2.9066977567114756
O	0.9370039224196719	-10.116738809262294	-4.533685066711476
O	3.627547678419672	-9.933689009262295	-7.1680078167114765
O	6.247752898419672	-10.019796309262295	-4.4483868267114755
O	-3.4831772015803284	-0.3162658392622948	-14.299726036711474
O	-1.044125091580328	-5.753130349262294	-12.497762636711474
O	0.1320338064196719	-8.142084289262295	-9.834783736711476
O	1.8774130784196719	-5.114784489262295	-8.312251736711476
O	-1.5360368615803282	-3.6497307992622945	-7.779732616711476
O	-3.096634521580328	-6.648384789262295	-6.017477386711477
O	-2.423393601580328	-6.6212802992622946	-2.2502952667114755
O	-2.305571131580328	-9.408341909262294	0.2953023332885243
O	-4.504780311580328	-9.007511859262294	3.3507815032885246
O	-3.6690868415803286	-12.590135509262295	4.326398553288524
O	-2.217730311580328	-15.406186409262293	2.2073317532885244
O	-7.5068852915803275	-7.415765029262294	-2.921095976711476
O	-6.047727131580328	-1.4838445692622948	-5.342858926711475
O	-4.858208051580328	1.679042152737705	-7.106235336711476
O	-7.870956691580329	1.7911884107377052	-9.513313246711474
O	-5.477216391580328	6.8121221407377055	-10.313260326711475
O	-4.336527041580328	6.233968590737705	-13.914511636711476
O	6.096282318419672	-8.982654139262294	7.737163253288525
O	6.299343158419672	-8.797870659262294	11.511278463288525
O	9.055101478419672	-5.9577981492622945	8.353768943288525
O	5.9982948984196724	-3.780377829262295	9.043720173288525
O	5.8376994784196725	-3.2024372092622952	12.803858263288525
