39

O	17.36277344392372	35.422481220543304	90.47300416925755
O	18.373330790230987	36.15211904027488	90.99812993722836
O	19.505461046253608	36.26157410316699	90.07600240241075
O	20.85908659957674	36.218050405943785	89.96756444226148
O	16.095631685707556	33.443409352428176	91.49744114083173
O	16.021924547782575	34.57349781478159	91.70573665893498
O	15.048065984421502	34.85526876839147	90.84925778960249
O	14.78581985469975	33.95519284448071	89.89892588887953
O	16.18761425602386	33.38354280743205	89.96283943255355
O	14.499779931642333	33.63880209763265	88.62102516677548
O	15.510058798516763	33.65126497387389	87.66643637245292
O	16.620498872316162	34.36220779100547	88.3690431671541
O	16.879729287271463	34.592809371686656	89.52489752887548
O	15.603704408582606	34.761873045781996	93.2630186448632
O	15.93940620662526	34.26873167170528	94.4193358998314
O	15.373172745466197	34.415885000604824	95.65659211182448
O	14.745758637222153	35.59579560902233	95.890891222956
O	14.236936856371232	36.20683595987741	94.74594018614076
O	14.770313598322904	35.77582214644317	93.5935754654621
O	17.56266610264582	33.65229341855731	91.84667962776415
O	18.101306800235744	36.37403896606686	92.51829022070082
O	17.25207212738895	37.20901821061584	93.08633774766533
O	16.86273522635516	37.38868088315796	94.42635610089532
O	17.562699512227603	36.77827418820535	95.36893405486103
O	18.246257969656014	35.72453419181681	94.91788760762964
O	18.858547591376812	36.053351968844844	93.64612582532908
O	18.094758784787874	33.359432998368774	92.97622057432646
O	19.500909654968737	33.52128610994871	92.80725981195242
O	19.903634865069346	33.84027717304479	91.56646978546615
O	19.491455776370533	33.32813358777814	90.32802529636918
O	18.09954933348249	33.147766574311085	90.58621577741908
O	19.671250387956125	33.47721642451822	88.89825050429913
O	18.776971863040778	33.07224089750557	87.79528235469662
O	19.58723211617132	33.03343834065058	86.475492392488
O	20.910981599900364	32.88793825896614	85.80796969114786
O	21.202052453692282	32.25454799304148	84.5929282335796
O	18.41329552198529	31.916777133427605	88.06313450355037
O	21.84310056518324	33.22219358748273	83.70355471891617
O	22.217099468143743	31.200141643156343	84.64359481915014
