37

O	16.393352009952498	30.887645096644654	86.59525642153419
O	17.442465631854873	30.34844208711398	87.82862463735027
O	17.297701706834836	31.250676635513575	85.71927741049062
O	18.16287403229665	29.73152469780784	83.6355854350139
O	15.291193364567988	29.826966159376088	84.15315326854041
O	17.54470781769185	30.576214974335766	84.44090540240481
O	18.78393780950123	27.808132168506653	81.62176723786817
O	16.76514039172891	31.469783484332684	83.81827400033771
O	14.583842309127112	32.13487727163959	86.71176220651374
O	15.453677664671872	31.05997322134747	84.55198717530001
O	14.201309633465797	33.6845946206599	88.73691952177558
O	15.390180339729854	31.934781387176255	85.70610661261088
O	15.593856449028673	33.95451760021725	86.91648573030098
O	16.52313875538191	32.63080387975594	85.38672334115941
O	19.587484571035116	32.115963981954465	85.66059423730935
O	16.26961125013408	30.98197288046948	88.01958014441439
O	16.761440652283028	31.6831520796589	89.0689519353532
O	16.290824256900994	32.08741331078077	90.41064953020503
O	18.720698090964	28.44933882276856	83.75419930965417
O	17.913894464664583	27.61447504617273	82.73454013434728
O	18.486448946580303	26.662120983631613	80.74669543556665
O	20.1960492725052	27.665294467664253	81.9243427531835
O	15.866067332175918	28.92736135559927	84.95934834668222
O	14.603811090142933	33.207184750251514	87.54563248237028
O	15.095325864191244	34.78032006076114	89.12005913847145
O	16.523375432166894	34.61073143776359	88.78000660855298
O	16.785621474709696	33.77043074947994	87.5992737701417
O	17.90546387431091	33.489243038462725	86.7530513836841
O	18.921732207008983	33.364490597530725	85.73781217619815
O	19.271500733254385	31.887790133958305	86.89754667944159
O	19.786051146985134	31.559599139069434	88.18257823796607
O	19.93128887392505	32.11690645190889	89.46059493409543
O	19.38770894492963	33.33462623074379	90.0723180585909
O	18.775480757498823	33.87939397737737	88.84328240890666
O	18.69548210622005	33.004449604811775	87.79080176546165
O	20.110561465390347	31.265583639903472	84.64775319345453
O	18.244339755172547	29.954623854878896	82.204317953305
