32

O	19.564836962953564	34.89799942723308	87.30495616796307
O	18.197529148918893	34.6637868608342	87.72529642276724
O	18.43878925941454	34.23266130067628	86.48036034459197
O	18.276062959606737	34.50761940253982	89.15791999947972
O	17.755226736725454	33.36131049751426	88.83571615363816
O	16.58775648188491	33.18794903522929	87.85568750005793
O	15.31378507562732	32.92959995133982	88.69330844689641
O	15.20514810544441	32.30622315295957	89.78753977781932
O	16.294488543016225	32.36306499730538	90.63926228945367
O	17.701871654290514	32.7014409346489	89.8841408434814
O	18.013737378939187	33.75970699715693	90.90979501144939
O	17.456524882385278	34.91622830552888	90.24361631712537
O	15.890312503866312	35.16963017652595	90.32675937381948
O	15.170877609072189	35.14220957156847	91.4009648492785
O	13.885797436773018	34.64840511696275	91.39212832631667
O	13.48240778225471	34.95393205707357	90.25274875620903
O	14.628976892506083	34.95113474864869	89.42765971876072
O	14.470474893151671	32.43872066318159	87.83573100027763
O	15.367276208777884	31.620819461609486	87.03064204204287
O	15.18680917005343	31.348500627857092	85.73457420451612
O	16.28136498778594	31.76305041339051	84.92445687516341
O	17.534842737479785	31.534182243019576	85.30709490318517
O	17.7928453060391	31.408358614372297	86.64838137946664
O	16.71588475955539	31.57251694608116	87.30759709779633
O	19.18605179625106	31.53015180355429	86.74785584630145
O	19.738014878040964	31.428789920593612	87.97082828360244
O	20.638891461330353	32.25492736476294	88.73953452807228
O	21.50080246957333	33.031342822883005	87.8756725791808
O	21.347553288997936	32.69505211403971	86.5123691627662
O	20.22767387132862	31.964372840632766	85.86223523939518
O	22.089599736300297	33.94585440536377	88.62325366431975
O	21.405873394945736	34.139011049425	89.86505955554804
