85

O	0.41576187605370374	3.0910245195740744	2.8996069477037034
O	0.36945480205370373	4.934277639574074	5.039229357703704
O	-2.333935641946296	5.062461369574074	5.617021447703704
O	2.733721698053704	3.4401792695740747	1.8577917577037033
O	1.572477288053704	2.6415291195740744	1.7806716577037034
O	3.872759918053704	2.4848753645740747	1.5188806177037033
O	3.4236223380537036	1.8555576195740744	0.3397512587037033
O	3.8608631380537037	1.4175640203740745	2.5895374977037036
O	4.804775318053704	1.7705004965740745	3.537162837703703
O	4.271235048053703	0.1930185295740745	1.7764082377037034
O	5.648663228053703	0.2116975295740744	1.7162641977037034
O	3.7700666080537037	0.5504595905740745	0.4058838367037033
O	2.619452128053704	-3.7615252904259258	-1.8391082422962965
O	-0.24224702694629624	2.0095012125740745	3.6928535777037035
O	0.11874255776370374	4.154668539574074	6.287849877703703
O	-3.618144501946296	5.624110709574074	5.272117067703704
O	3.7867948380537038	-3.131672170425926	-1.8311723622962968
O	-0.8546015789462962	3.969307849574075	2.2662826477037035
O	1.2743096280537038	6.216760089574074	5.555880927703703
O	-2.501950701946296	3.4094920595740743	5.633217707703704
O	3.931032118053704	-2.0321672704259255	-1.1104048222962966
O	-1.1721773119462962	5.318717969574075	4.377578427703703
O	1.2283053280537037	4.0518788495740745	3.9858227277037033
O	-1.5813482719462961	5.548386879574074	7.024525427703703
O	2.872549258053704	-1.5005125104259254	-0.5070087262962967
O	1.6545325480537039	-2.1155262604259253	-0.5364494862962966
O	1.5313960480537039	-3.267726360425926	-1.2469555822962965
O	0.28392584905370377	-3.912077140425926	-1.2717037522962966
O	0.7297263910537037	-1.3106606804259255	-0.018716329496296685
O	1.4485730480537038	-0.3230411404259257	0.5693262797037033
O	2.695505778053704	-0.3480327004259256	0.11776437590370332
O	0.8189236310537038	1.7494578315740745	-15.657029102296297
O	2.560972158053704	3.1988667395740746	-12.613601202296298
O	7.881338828053703	2.9916115195740742	-9.542567432296298
O	6.889967818053703	4.6178694795740745	-6.270749322296297
O	6.430739178053703	2.3284680695740745	-3.2493354022962966
O	5.7024723280537035	4.986439999574074	-0.6692672392962966
O	3.632606068053704	7.903742959574074	0.5681112337037033
O	0.6704169930537038	6.702764429574074	2.4168366077037033
O	-1.7339205019462962	8.735382089574074	4.585996587703703
O	-4.597595521946297	8.677620799574076	2.0436763877037034
O	-2.449878351946296	8.742671609574074	-1.0806739222962967
O	0.7363619410537037	7.600174129574074	-2.8028924222962965
O	1.2118833080537037	3.859103769574075	-3.5003105922962967
O	2.986439418053704	2.840501089574074	-6.719526042296296
O	4.306854878053703	-0.4797975904259255	-7.948657162296296
O	3.160945268053704	-1.3258370404259254	-11.438796602296298
O	0.17298601815370374	-1.9573522704259256	-6.357217742296297
O	-1.646256271946296	1.1804125845740745	-7.3331268822962965
O	-2.772908811946296	3.7046466895740746	-4.749998572296296
O	-3.7483723019462962	7.160576259574074	-6.058113112296296
O	-5.846318951946297	9.238661429574075	-3.667593982296297
O	-5.069894771946297	12.878677469574075	-2.8275017122962964
O	-6.109756191946297	-8.038474480425926	0.8511579397037033
O	-8.699560831946295	-7.646903500425926	-1.8399839122962967
O	-9.178927441946296	-4.670653710425926	-4.155183122296297
O	-7.178704121946296	1.6861176085740743	-6.538127662296296
O	-5.5560057019462965	-1.4510830504259256	-7.981265762296297
O	-4.677110471946297	-4.487750770425926	-5.909574972296297
O	1.3921512280537038	-6.456604320425926	-5.200460282296297
O	6.524904108053703	-8.464800940425924	-2.9603082822962965
O	7.7387166180537035	-8.528393030425924	0.6449040607037033
O	6.3118473280537035	-5.135139240425926	1.5730977077037034
O	4.657471568053704	-4.167270440425926	4.837854337703703
O	5.165975698053703	-6.087708690425925	8.085975207703703
O	6.471036368053704	-3.0532900004259256	9.975169217703703
O	9.454402808053704	-2.617828350425926	7.655396307703703
O	-6.657419601946296	2.1739154915740744	10.734100897703703
O	-1.3308708119462962	-0.9632855604259254	12.297618497703702
O	1.7785236880537039	-2.9440450904259254	11.365400697703702
O	2.209614538053704	-0.5541238604259255	8.402540707703702
O	-1.1407714819462962	-1.6912672104259256	7.088176157703703
O	-0.34048117794629623	-5.482597560425925	7.345148907703703
O	1.4763148280537037	-6.770112060425926	4.237799387703704
O	3.7327017980537036	-9.773126830425925	3.7374627777037035
O	-2.539948101946296	-9.935702930425926	5.129856487703703
O	-5.023962341946296	-3.985520730425926	3.847448787703703
O	-6.380506831946296	-0.41302015042592566	3.7104256477037034
O	-9.607367811946295	-1.0922897004259255	5.518491777703703
O	-12.532099161946295	1.1659885245740744	4.647486487703703
O	-10.422045561946296	4.028315309574074	3.263082757703703
O	-10.648230261946296	5.858910409574074	6.589230447703703
O	7.2606728080537035	3.577900079574074	17.321016897703704
O	13.934711038053704	-4.430283130425925	-4.795951132296296
O	10.616961138053703	-4.984534130425926	-6.605649342296297
