99

O	0.7813385097457628	0.6390669030237287	-1.0897830874830514
O	2.1271709297457626	0.8368327904237287	-1.2111608954830515
O	2.672179699745763	0.7732095620237287	-2.5789738994830516
O	3.5404962697457627	0.28910644942372876	-3.4799165494830513
O	-1.1543715562542372	-0.7712682835762713	-0.8310720552830515
O	-2.058920180254237	0.20346940342372877	-0.14482017248305146
O	-3.0806345102542374	0.30222296242372876	-1.0008670694830515
O	-2.7581016802542373	0.16766915942372873	-2.3548906194830517
O	-1.2564180782542373	0.24745724642372874	-2.4399899694830514
O	-0.35150070125423727	0.1342846044237287	-1.6632772674830516
O	-0.46818576305423726	-1.0220833135762715	0.5325560205169486
O	-0.022969799254237255	0.03235453942372879	0.6861335905169486
O	-1.0658992412542374	0.7960092656237288	0.4873676405169485
O	0.9502594997457627	-1.3255567835762712	0.03353648451694857
O	0.5682910597457627	0.1501265344237287	2.1943372405169486
O	2.823096729745763	0.8544358524237288	0.1924670965169486
O	3.826215129745763	0.0570247064237287	0.7181120805169485
O	3.8825758597457627	-0.2880758215762712	2.1239333505169484
O	4.112643249745763	0.8202454764237288	2.8256697505169486
O	3.308370299745763	1.809591496423729	2.4339479505169486
O	2.7519779297457627	1.7722893064237288	1.1341491605169485
O	1.7689402297457626	-2.0663845035762716	0.6710913505169485
O	2.8434612497457628	-2.3347188235762713	-0.22028828548305146
O	2.684825729745763	-1.8644442735762712	-1.4599736904830514
O	1.541915419745763	-1.9357662135762714	-2.2998364194830514
O	0.5308992497457627	-1.7682672735762712	-1.2945232554830515
O	0.5396600297457628	1.343992094423729	2.8350581905169485
O	0.9075217297457627	1.7335889764237287	4.059228560516949
O	1.7063120297457628	0.8055490513237288	4.739041650516949
O	1.5560144197457628	-0.4693597035762712	4.305294710516948
O	1.2441865997457628	-0.6272215935762712	2.9842974105169486
O	1.2324403097457628	-1.7511774035762713	-3.6566116394830512
O	0.11117735174576271	-1.5267459635762712	-4.532356559483052
O	-0.7681546132542373	-2.3005540435762715	-4.198468329483052
O	0.2850929927457627	-1.5162212335762715	-6.029254499483052
O	0.23681901474576272	-2.8660427035762712	-6.673269649483052
O	-0.5522786758192373	-2.6407611135762714	-7.931883149483051
O	0.1518179457457628	-3.0268420135762715	-9.126068279483052
O	-0.8664487092542372	-3.656777383576271	-9.964669529483052
O	0.6608336897457627	-1.9177653835762714	-9.890185479483051
O	-6.715213550254237	-8.69003434357627	11.839038130516949
O	-4.506952730254238	-9.89833520357627	-2.400252239483051
O	-3.864541490254237	-6.377707753576272	-3.5909638594830513
O	-0.48817333695423726	-6.877829263576271	-5.164702249483051
O	3.0868168197457626	-8.15470647357627	-5.192473839483052
O	5.379672519745763	-5.333410703576272	-4.030858719483051
O	9.130344789745763	-5.050256253576271	-4.070290649483051
O	9.530481559745763	-5.631001853576271	-0.27780352048305146
O	6.584777499745763	-7.996597943576272	0.1640518895169486
O	2.9879130697457628	-8.97075013357627	-0.8071386974830514
O	0.09497405574576279	-6.686309283576271	0.1435647195169486
O	-3.3275572502542374	-7.862482893576272	1.1559717705169485
O	-6.626478980254237	-6.051735673576271	1.6485694805169486
O	-8.216634810254238	-6.872214673576272	4.977078460516948
O	-6.662644750254238	-2.0292825535762713	6.1583339605169485
O	-3.7524608602542373	-2.864448803576271	3.7960620205169486
O	-1.5417321162542372	-5.642004383576271	5.210012180516948
O	1.9892197297457628	-6.101149573576271	3.821522090516949
O	3.8926660297457625	-9.19088202357627	4.636828300516948
O	7.654990999745762	-8.94469703357627	4.184197700516949
O	9.653168259745762	-11.61262860357627	2.2855174805169485
O	0.5828075097457628	7.412266436423729	4.8588202005169485
O	1.1346011697457627	6.216365466423729	8.328455000516948
O	1.876211379745763	2.6952261964237287	9.46373403051695
O	-0.8083779932542372	1.8281733764237287	12.12292383051695
O	2.7913139597457626	-4.128155623576271	8.55972119051695
O	-0.6434587910542372	-2.6549876935762713	8.832526420516949
O	-1.9121916202542373	0.5637893924237287	7.446779720516949
O	-5.246918970254237	2.256707716423729	6.496450210516949
O	-6.606778540254237	1.0076904184237288	3.1692058505169487
O	-9.729463110254237	2.499004656423729	-1.7270947384830513
O	-8.576917860254238	4.055748936423729	-5.035936649483052
O	-5.140758410254238	2.084440026423729	-5.226805439483051
O	-2.0059085902542373	3.6896570164237286	-6.439650059483052
O	-1.6597396802542372	6.788938416423728	-8.536957389483051
O	0.25233351674576276	4.978983256423729	-11.313443969483052
O	-2.612124170254237	2.563793056423729	-11.99151206948305
O	11.890013959745762	4.630354986423729	-3.2253200994830515
O	7.637719499745763	6.512390806423729	-7.596622589483051
O	4.0363794697457624	6.865158226423729	-8.857577479483052
O	3.5094295797457624	3.2657648764237286	-7.549995109483051
O	4.353493029745763	4.842704426423729	-4.245991989483052
O	1.730063789745763	7.562170126423728	-4.160576419483052
O	-1.8043264902542373	6.402922316423728	-3.1942622694830516
O	-5.198161540254238	7.817724926423729	-3.8911804894830513
O	-7.389710240254237	8.466998426423729	-0.8321159559830514
O	-9.810304370254237	10.30927474642373	-3.1597428894830513
O	-3.1107137502542375	11.66926939642373	-2.7132938994830518
O	-0.5637316917542372	10.39711774642373	-0.15929653248305142
O	3.034116969745763	9.13426586642373	-0.1006781704830515
O	3.751683629745763	5.692833956423729	1.2914595905169484
O	6.589989919745762	3.0185446864237284	1.5784874105169484
O	9.095563919745764	5.258710616423729	3.0287197505169487
O	11.735773559745763	3.7172472964237286	5.259271920516948
O	11.244927059745763	0.15677903742372878	4.075383020516949
O	14.225781259745762	0.5142148984237287	1.7053620505169484
O	-13.134244040254238	-3.671787293576271	-6.690238289483052
O	-12.319380640254238	-3.3068436035762714	-2.9855647694830516
O	-15.481628140254237	-4.274992093576271	-1.0697073394830514
