35

O	14.640654923843233	33.44845368930802	89.24443521229135
O	15.340203832516458	33.62266121386772	90.49173522727745
O	14.119520714197616	34.21074962746489	90.9695533894682
O	14.058407528113133	35.300634632097456	91.88233701904676
O	15.4318928521021	36.03076180260108	91.6539996519601
O	15.29806367885985	35.17626395907813	92.79311399143221
O	14.652884063441583	30.77797983618216	87.30988507374182
O	13.519744003485219	30.627981607079853	85.32565577318023
O	18.306523407483613	29.938848965016966	85.75709949375144
O	19.74710081093106	29.44175398349983	85.506495240351
O	20.93097595107367	31.060482846980374	85.63612582311018
O	19.5550974405874	31.724177183275515	85.79443035244722
O	18.60665719076572	31.07296772709418	86.63957346272532
O	15.081706083757718	33.88433018852217	88.07440587707866
O	13.051035516487435	33.76267041890764	90.47320859420415
O	13.392571170890179	33.322357754171044	89.21234254618027
O	13.479770535420165	31.306342510941697	86.63159822158232
O	20.67474573675189	29.931962006363026	86.48590806376576
O	14.233704340224884	30.756718715785155	88.46204142855595
O	20.531380433756443	30.526479749677264	87.6671004939787
O	20.66692615465474	31.609742627255855	88.63369706905327
O	19.689956520719385	31.560462463380112	89.53073838927176
O	19.425592548953297	32.57853806781903	90.39046810361965
O	19.83961594847349	33.90447656521055	90.35572372630081
O	20.479845247929692	33.92767436139025	89.0497681261924
O	20.75755354290012	32.83743904198334	88.15545846084261
O	21.679039138565585	34.64868159975863	91.41494125678511
O	19.19473141665969	34.83660891883765	92.01055642275708
O	19.968495611580277	34.68741739140001	91.73824832714546
O	16.84361007753093	31.888976086680035	88.52232334391019
O	17.846377925841946	31.884402780932398	87.48226098340102
O	17.584427771189194	33.1864712404491	87.7732021793828
O	16.291398137357	33.4210224452543	87.66493405968585
O	15.91399445475861	32.54988930761801	86.72545740984978
O	15.78590475345869	31.719426662170157	87.76820629334804
