90

O	-1.0538819638363637	-4.549599577663637	3.9595272685600005
O	-1.9208187160363637	-4.972145077663637	2.96368493856
O	-1.4078075800363636	-4.9883462076636365	1.7070557185600006
O	-2.6045149390363638	-3.703321037663637	2.64442641856
O	-2.9384722890363637	-3.122079047663637	3.854854648560001
O	-1.5919161770363637	-2.4589974176636367	3.878934878560001
O	-1.4557800120363638	-1.9713964276636367	2.5901665085600003
O	-2.1058752490363637	-2.880907237663637	1.6769005885600006
O	-1.0687281801363637	-0.9274284186636366	1.8472042385600005
O	-1.2406095850363636	0.07436001833636342	1.2083314015600006
O	-0.012738249036363669	0.6852227463363634	0.9141558265600005
O	0.038005500963636196	0.8778939743363634	-0.47849986543999945
O	0.04887532096363634	-0.5164371586636366	-0.6968919214399996
O	0.4315257509636363	-1.4876113176636365	0.16149421256000052
O	1.359809950963636	-1.7218517776636366	1.2085071185600005
O	1.2303643409636362	-2.7657558276636367	2.2426476085600004
O	0.8815351609636364	-3.989389067663637	1.7842425985600006
O	1.0576819109636362	-3.9334618176636367	0.37960555226000053
O	0.24874017096363632	-2.8705939876636366	-0.005142872439999502
O	1.5370532509636363	-5.1746548476636365	2.1978627485600004
O	1.2855597609636362	-6.391101017663637	1.6454250385600004
O	1.1695763909636363	-7.699999007663637	2.3256438885600006
O	0.4177754009636363	-7.441878157663637	3.56064029856
O	0.047039010963636274	-8.632355947663637	4.258638218560001
O	1.4230799009636361	-6.660965847663637	4.2190670185600005
O	1.7754301809636361	-5.390898217663636	3.5292734185600008
O	-1.1011577327863638	1.7057389623363635	-0.7226415214399995
O	-1.6534759570363637	2.8500088223363633	-0.3035755064399994
O	-2.7062175590363635	2.5241784023363634	0.6849594485600006
O	-3.1340926690363635	1.2162161023363633	0.44068622776000055
O	-3.9125693590363637	0.36687802733636343	1.1949168425600005
O	-3.806964379036364	-0.35693967366363655	2.4857063885600006
O	-3.8109803590363636	-1.0815578876636365	0.6570856305600006
O	-1.9848574580363638	0.7069518073363634	-0.23409362543999945
O	-1.7509060830363636	-0.5610464546636366	0.024240147560000536
O	-2.7187589290363636	-2.7494154676636366	-15.06004816144
O	-3.318582229036364	-4.603983867663636	-11.835389161439998
O	-0.48917658403636366	-8.339260487663637	-7.97841396144
O	-2.8555639790363636	-8.133120077663637	-4.96493480144
O	-1.7797129440363637	-6.093498777663637	-2.01920379144
O	-4.860946719036363	-6.817513647663636	0.24860005256000053
O	-8.493239279036363	-6.517100727663637	1.2251435665600006
O	-9.368737769036365	-3.117902427663637	2.6426481285600003
O	-12.673763539036365	-1.9126323076636367	4.1584854385600005
O	-13.839178139036363	-0.11720446516363658	1.0578756505600007
O	-12.217441539036365	-2.4099301876636368	-1.5038057814399994
O	-9.256036339036363	-4.5559646976636365	-2.5551981114399993
O	-5.792444089036364	-3.013074217663637	-3.0264953214399997
O	-3.563048749036364	-4.073476277663636	-5.88436227144
O	0.016916390963636285	-3.2889081476636366	-6.79632375144
O	0.5243166509636363	-2.275433017663637	-10.429502761439998
O	2.1384748109636362	-0.1589724006636366	-13.049084161439998
O	4.496266640963636	1.9369368023363633	-9.76750886144
O	1.0736232209636363	2.4219424723363634	-8.19258210144
O	-1.4089555270363636	1.0251724723363633	-5.74756212144
O	-4.826815659036363	0.43801727833636345	-7.16663100144
O	-7.859823669036364	0.13683426433636342	-4.97441546144
O	-1.2036909350363636	10.973889282336364	-0.06438242443999947
O	-2.635766759036364	12.349605382336364	-3.2905861314399996
O	-2.2797966790363637	6.453993072336363	-6.3120659114399995
O	1.4799195209636364	6.293162562336363	-5.858653021439999
O	2.6434579409636365	2.971774142336363	-4.3334632514399996
O	7.083848120963636	0.7196392173363634	-1.1639348714399995
O	7.288906690963636	0.3787719633363634	2.6353156685600005
O	3.512701740963636	-0.38698812966363655	3.1744699485600005
O	1.3999083709636362	0.7330662023363634	6.09990195856
O	2.6936927209636363	1.9501468223363634	9.376870808560001
O	0.7485098609636363	-0.5246973176636366	11.51257163856
O	2.361157460963636	-3.532129687663637	9.765854988560001
O	5.643549120963637	-1.6910580476636365	9.740285688560002
O	5.805174390963637	-1.1761454176636366	13.520493238560002
O	-2.3313102590363637	3.188160572336363	11.780109438560002
O	-3.4963044790363638	0.9814761823363634	8.84945791856
O	-4.278385719036364	4.319349472336363	7.07379426856
O	-0.8126529180363637	5.913140042336363	7.573724938560001
O	1.6896408909636365	4.703207022336363	4.909823498560001
O	5.445495600963636	4.651177002336363	4.912229588560001
O	7.171003770963636	6.431055292336363	1.9957823985600005
O	10.468505760963637	5.841171452336363	3.809838128560001
O	11.132778560963636	4.939253532336363	7.4787257485600005
O	-4.272035449036364	8.240054792336363	3.0833193785600006
O	-7.867034639036364	7.023517722336363	2.4868933785600005
O	-9.549142779036362	10.335998582336364	3.56309841856
O	0.7699844509636362	-2.3810632876636366	16.78115133856
O	10.063430860963635	-4.575779647663637	0.4319316667600005
O	12.442189760963636	-5.298021637663637	-2.4197685614399997
O	11.486099460963636	-8.935095387663637	-2.8566284714399997
O	8.096208570963636	-7.867861437663636	-1.4464770514399994
O	7.123521990963636	-5.2045153276636364	-4.01880013144
O	9.249062960963638	-5.599767077663636	-7.17217547144
