91

O	4.85570854107	-3.0677209838333335	-0.5732953743999998
O	-3.72183456893	1.5387005061666663	0.22820281960000022
O	-3.21912035893	0.3445694591666662	0.7459867166000002
O	-1.92359367893	-0.07520672183333377	-0.9494976093999998
O	2.29516680107	-1.1173447538333336	-1.0089151853999998
O	0.17880232106999988	-2.0976078938333336	0.2911408336000002
O	2.13736596107	-2.525539583833334	2.5162006266000003
O	1.3498263110699997	-3.674511893833334	2.0903271066
O	3.0483969110699998	-5.613104053833334	5.0072843166
O	4.88961377107	-6.1319469138333345	3.8834509166000006
O	3.41959009107	-3.2708772838333338	2.4346265866000003
O	2.63067347107	-4.536260983833334	4.110856496599999
O	4.69188152107	-5.105573793833334	2.8371014066000004
O	-3.39497368893	1.732902286166666	-1.0505385044
O	-2.44857927893	1.0220296631666663	-1.6159288963999998
O	-2.27588159893	-0.4229411088333338	0.40025379660000027
O	2.48715426107	-2.2702464838333336	-0.2549134573999998
O	-1.3675829989300001	-0.4131452768333338	1.4705776766000005
O	3.48563588107	-3.0887700538333336	-0.7188588323999998
O	3.69041046107	-6.596350813833334	4.3182977266
O	1.6942230010699997	-3.9908946438333337	0.8200829266000002
O	1.29904830107	-2.8429446838333337	0.09110951860000016
O	3.41925147107	-4.584260913833334	2.9520256166000003
O	-1.7459565489300002	2.0575593661666662	-2.8443102733999996
O	-0.44343143093000015	1.3949496561666663	0.06359389960000017
O	0.4684808120699998	1.8119722961666662	-0.8783854243999998
O	1.06726552107	0.8630385261666662	-1.5872444143999997
O	1.2356635210699998	-0.2760825148333338	-0.8668701503999998
O	0.24212293806999985	-0.7830490448333338	-0.08434296639999983
O	-0.32718210193000014	0.17792889186666622	0.6901599566000002
O	-4.21060942893	2.4358996761666663	-1.8108849133999998
O	-6.75618160893	-2.4465107238333337	-14.5195577534
O	-5.02548884893	-7.3015359338333345	-9.8885736734
O	-0.49419541693000013	-9.949908333833335	-6.8085727434
O	-1.82542396893	-9.741711893833335	-3.2616003933999997
O	-0.2764919951300001	-7.215893893833334	-0.9700762773999998
O	-2.09758466893	-7.977039013833334	2.2540281666000004
O	-5.24827626893	-8.333924973833334	4.2204877066
O	-6.26465193893	-4.967989693833334	5.5853857966
O	-8.982907038930001	-4.392549443833334	8.1323124366
O	-11.586924418930002	-3.1915595638333336	5.6235313366
O	-10.515695918930001	-5.347906363833334	2.6984980066000004
O	-7.70259777893	-6.986407383833334	0.8083333166000001
O	-5.11717705893	-4.860218173833334	-0.9699498183999998
O	-3.62376170893	-5.984256993833334	-4.2809833034
O	-0.7199400139300002	-4.774952303833334	-6.3511035134
O	-1.4723523489300003	-4.202119463833334	-9.9752532334
O	-1.1499261309300002	-2.2425437238333337	-13.1634355534
O	-1.15626635393	0.8166565291666662	-8.5146199734
O	-2.53650538893	-0.6782373818333338	-5.3509029234000005
O	-6.14169091893	-1.9217426838333336	-5.5296988934
O	-8.16521877893	-2.5553803138333335	-2.3333180834
O	-11.25843361893	-4.5835844738333344	-2.5922446534
O	-2.27842582893	9.676068756166666	-0.36489941239999985
O	-4.86958624893	10.472553566166665	-2.9931292933999996
O	-7.47200222893	8.131300826166667	-4.5213686234
O	-7.45100507893	2.4083347661666665	-7.1650106034
O	-4.44973495893	4.600767606166666	-6.0907457534
O	-0.6831421449300001	5.017600336166666	-6.7144045234
O	1.36102191107	2.1469621161666663	-5.3675611134
O	6.82416702107	0.6855456241666662	-3.4416444133999997
O	8.397150421069998	0.8024646331666662	0.03908659360000022
O	5.33023269107	-0.5568557418333338	1.9120119366000004
O	3.9134793410700004	0.9127337261666663	5.1687317266
O	5.98966701107	2.598845216166666	7.767925636599999
O	5.31111254107	0.10821878716666622	10.540893346599999
O	6.99377136107	-2.7151311238333338	8.6156937066
O	9.65985092107	-0.38619881783333376	7.3716245566
O	-7.84419635893	4.878024226166666	11.9036570466
O	-1.7064592789300002	4.026554316166666	12.8015849466
O	1.80704939107	3.296768716166666	11.5916445466
O	0.23108287006999984	0.5669122171666663	9.4394875466
O	-1.66934890893	3.371861836166666	7.659117956599999
O	1.3504835110699998	5.607379796166666	6.9611282966
O	3.13465678107	4.677172586166666	3.7590181566000003
O	6.64553919107	5.089677446166666	2.4606849866000005
O	6.95634651107	6.722569126166666	-0.9648752393999998
O	10.710219081069999	6.915202296166666	-0.3434390723999998
O	12.67638808107	6.656298456166666	2.9237429466000004
O	6.00475302107	9.313995976166666	4.0212075966
O	2.24682411107	9.725079086166666	3.4604959166000007
O	-1.03813330993	9.016683836166665	5.2596076266
O	-3.63193289893	6.793949076166666	3.6913790166000005
O	-6.89106427893	4.945600116166666	4.3779036666
O	-8.721616168930002	8.015721616166667	5.9046500066
O	11.24924608107	-3.7864448538333337	-2.7221207333999997
O	12.69158488107	-4.306988683833334	-6.2197730134
O	12.42282248107	-8.071311343833335	-6.2377441834
O	9.520373521069999	-7.500832383833334	-3.7981418833999996
O	7.19165650107	-5.341449413833334	-5.9308856434
O	8.20486065107	-5.676318123833334	-9.5682202334
