30

O	19.623210580569967	33.00263928195813	85.63018925570036
O	19.71322714511726	33.90502482089689	86.87779868000719
O	18.370323906133375	34.10223388438959	87.1146812050211
O	17.72182407012864	32.90853728661019	86.78119457614062
O	18.14612211218172	32.44786318468098	85.5174263446621
O	16.43959378650032	32.77703866697181	87.18472019941026
O	15.422093651426684	32.675377180225276	88.01583159410265
O	15.247823225052452	33.19027180501938	89.34847810061561
O	15.021982381658527	34.58054411363852	89.5590507620691
O	16.177687647367662	34.832270271419326	88.70660662125674
O	16.49309040696206	33.99945383552942	87.76984319533685
O	17.228076678434878	35.606409830433435	89.09943037643956
O	16.376160442367908	36.54044120098052	89.95087061128262
O	15.18601735344602	35.6883967183331	90.34810723471121
O	18.12964605865039	36.55681770452511	88.98446766051262
O	16.619683689430875	32.97978944331994	89.5741614207806
O	17.08330361867743	33.88706168345051	90.4577080720024
O	18.61605326174918	34.000943367676044	90.01599418349802
O	19.507866350535483	34.47340638424558	90.92341919450156
O	18.574247863076337	35.07883095517718	91.74170123239367
O	17.277451124702143	34.41390688562439	91.57136194253155
O	16.528215465507294	34.84963366358012	92.55251469196926
O	17.518664851569064	34.99131573476972	93.57947866424644
O	20.60519814681989	35.010312370066224	90.27079797841532
O	20.025837912865	31.92154854025328	86.36773115601495
O	19.140333506037752	31.885269780791933	87.58844879186687
O	19.710087830599136	32.58595857235302	88.74835590027568
O	18.41077598334532	31.897500386186564	89.60136560635638
O	20.14791166281016	32.405372174565926	88.33767242277744
O	20.838057250411005	34.31813882553449	87.26837625650592
