94

O	-2.337069270288136	2.643657710218644	2.6257331267701693
O	-2.668255830288136	-0.6551120097813561	-1.9653449532298304
O	-3.220317410288136	2.528632540218644	3.897735056770169
O	1.625585849711864	0.8212799492186439	1.7198043167701695
O	-4.249913580288136	1.460741447918644	3.2344922767701694
O	-0.8348404832881359	1.4892386474186439	2.9729947967701693
O	-3.778695470288136	1.001211369218644	1.7249946167701695
O	0.973055189711864	5.0726616502186435	4.184454836770169
O	0.7437223097118641	1.2695713692186439	4.080636626770169
O	-2.4917872102881358	0.472088810218644	2.305820576770169
O	-4.218224730288136	-0.8386207497813563	-0.27071445022983043
O	-1.722475910288136	0.13138265021864393	1.3276284067701696
O	2.005991679711864	3.2609076602186438	1.8654954567701696
O	-1.6854479602881358	-0.686367069781356	0.11389128877016955
O	-3.055042360288136	-0.7505863897813563	-0.6089248672298304
O	-1.462197623288136	-0.5443150697813559	-1.7319491332298305
O	-1.2632348342881359	0.4393641002186439	-0.40743869922983045
O	0.2213645987118641	0.07036026021864394	-0.07728132572983044
O	1.419362469711864	-0.4183170497813562	-0.2505950482298305
O	1.8839581097118643	-0.589646279781356	-1.5948648432298305
O	3.109123829711864	-1.258232709781356	-1.5693367632298305
O	4.001942559711864	-0.6607172297813562	-0.6850220752298304
O	3.376534879711864	-0.1881118697813562	0.5745050037701696
O	2.267577779711864	0.4075038602186438	0.5992508557701696
O	0.4636135797118641	0.2670666902186438	1.3396903767701696
O	-0.5960573974681359	0.3991452102186439	2.1189463267701694
O	-2.031279120288136	1.339923489218644	3.1937719767701696
O	1.6503836097118643	1.4433332749186438	3.012012596770169
O	1.215419399711864	2.889029250218644	2.9214020167701693
O	0.7897201597118642	3.7333457302186437	3.9796273767701695
O	-0.6987167272881359	3.453446350218644	4.232930416770169
O	-0.4592499862881359	1.996898034218644	4.298155066770169
O	2.5848422297118643	0.8834972382186439	3.9727432167701693
O	1.1146770097118641	3.014455500218644	0.8071663777701695
O	0.8112121297118642	5.659512710218644	5.494588216770169
O	-4.044315680288136	-15.580438519781357	-0.7269791422298304
O	-3.587529530288136	-5.279144469781356	9.24428825677017
O	-3.507434670288136	-2.037191329781356	7.33269221677017
O	-0.3745042102881359	-0.35953375978135615	8.67129311677017
O	3.232364399711864	-0.5102638097813559	9.60503292677017
O	5.3625589697118645	0.6911733372186439	6.734794446770169
O	9.005663969711865	1.576986724618644	6.645763886770169
O	9.953446889711865	-1.595048749781356	4.725872846770169
O	7.361997669711863	-3.951431139781356	6.20630543677017
O	3.8154455597118644	-4.391153619781356	7.4808928267701695
O	0.9271067197118641	-4.042034649781357	5.011296256770169
O	-2.1204190202881357	-6.293306099781356	5.33278440677017
O	-5.522731200288137	-6.236954049781357	3.6342786867701693
O	-6.589736730288136	-9.531746519781356	2.180220736770169
O	-5.542380360288137	-7.046081349781355	-2.298551893229831
O	-2.926296160288136	-5.289859259781355	-0.13075725646983044
O	-0.1487343962881359	-7.5500024097813565	1.0050829367701697
O	3.124415699711864	-6.140726659781356	2.2152778567701694
O	5.421711249711864	-8.544755219781356	4.131302986770169
O	9.033119079711865	-7.434193519781356	4.328284066770169
O	11.047069489711864	-7.383883259781356	7.566183136770169
O	0.28845758371186414	1.031117237218644	-8.86668235322983
O	1.332541109711864	-2.2842298397813563	-10.20978780322983
O	2.618574149711864	-5.281365589781355	-8.28374543322983
O	0.4385689497118641	-8.303117399781355	-9.14040053322983
O	4.276776459711865	-8.580182219781356	-2.2593470232298305
O	0.6806794997118641	-8.582029319781356	-3.5261513332298304
O	-1.050767293288136	-5.666455799781357	-5.20154862322983
O	-4.591592360288136	-4.427660739781356	-5.860442213229831
O	-6.043638570288136	-2.8543452697813563	-2.7563916132298307
O	-9.971051610288136	1.212957608218644	-0.8526812312298304
O	-9.396257460288135	4.860219760218644	-0.062107686429830444
O	-5.7446376002881365	4.451108610218644	1.4680101867701696
O	-3.0886188502881358	6.821885920218644	1.1318214167701697
O	-3.4645260302881358	10.415843890218644	0.11724738877016957
O	-1.788245270288136	11.794745780218644	3.2495189167701692
O	-4.406517040288136	10.320017550218644	5.566091496770169
O	10.671000389711864	7.415934310218644	-1.4726964532298303
O	5.752773429711864	11.127329800218645	-0.28588862522983044
O	2.0397672697118643	11.677961080218644	0.2648648367701696
O	2.090346609711864	8.461759470218643	2.2815875267701693
O	3.105971969711864	6.707880420218643	-0.9032843092298304
O	0.3628187817118641	8.021787430218644	-3.1254926032298305
O	-2.8082481902881358	5.971337860218643	-2.9007299632298307
O	-6.399439370288135	6.942601540218645	-3.673565703229831
O	-8.267565200288136	4.649844900218644	-6.12741681322983
O	-11.137382310288135	7.156679200218644	-6.053368553229831
O	-4.629353230288135	8.826386700218643	-7.33373664322983
O	-1.672870630288136	6.497523770218644	-7.933266203229831
O	1.960660229711864	6.192882540218644	-6.93751203322983
O	3.059996039711864	3.043311540218644	-5.062234853229831
O	6.1573627097118635	1.795456094218644	-3.2967655332298307
O	8.712590959711864	2.6024313402186436	-5.9677363832298305
O	11.801030289711864	0.424972310218644	-6.147830563229831
O	11.577327689711865	-0.9604472797813561	-2.6142641932298307
O	14.115550189711865	1.584134526918644	-1.3778699932298304
O	-13.432974010288136	0.4720755302186439	6.997562536770169
O	-12.150947710288136	-1.9974463597813559	4.35856752677017
O	-14.918979310288135	-4.613318569781356	3.902314696770169
