89

O	1.8852665781355928	1.3326236967118645	-3.750338763186441
O	0.7465876081355931	-0.4635852102881355	-0.5428627672864411
O	-0.614701560864407	-0.42335746028813537	-0.8020340261864412
O	1.379086018135593	0.4046686727118646	-1.3689660851864411
O	-0.42225972986440696	-0.47368865028813545	-2.206040983186441
O	1.8567624681355932	-0.10708592028813535	-2.734211153186441
O	0.706580538135593	-1.1104979002881354	-2.809096633186441
O	-1.469827534864407	-0.4981885302881355	0.2064502368135589
O	-1.596126171864407	0.14567514371186452	1.3953118568135587
O	-0.890480322364407	1.1769908700118645	2.055878956813559
O	-2.760683681864407	0.04197181971186459	2.280613236813559
O	-1.559759634864407	2.3667508997118647	2.168194596813559
O	-3.233236461864407	1.1874132106118644	3.110880356813559
O	-2.411447921864407	2.3307804297118646	3.3901484768135592
O	-2.580969131864407	-0.8241153702881354	3.4065410868135593
O	-1.225470303864407	-0.5513979502881354	3.661683916813559
O	-1.7506056308644071	3.5636727697118644	1.6095274668135588
O	-0.501756636864407	4.150266829711865	1.230863276813559
O	0.12328263813559304	4.000038719711864	2.338771246813559
O	-0.307391929864407	5.311026999711864	0.42640599681355884
O	1.015347238135593	4.789603289711865	-0.3171616981864411
O	0.520973628135593	1.4194063867118645	-1.8386810031864411
O	-0.651790215864407	2.2244710097118645	-1.737534653186441
O	1.429699058135593	2.3972310797118643	-1.3985162391864412
O	-0.703598551864407	2.2343342897118648	-0.46451895818644107
O	0.621472468135593	2.742796819711865	-0.2773251681864411
O	2.773913138135593	2.2186813797118647	-1.100010357186441
O	3.004626898135593	2.787053239711865	0.22677221281355886
O	1.204771688135593	1.5642535387118646	0.635803346813559
O	2.256856598135593	2.0857878597118646	1.301782206813559
O	12.813906078135593	-9.091174540288135	3.345429286813559
O	11.522758678135592	-7.778811670288135	6.656668056813559
O	9.298301678135592	-4.880740610288135	7.658769926813558
O	3.879882638135593	-3.687808330288135	10.34011283681356
O	3.4587406181355926	-0.05182046028813536	9.372059406813559
O	0.9388183581355931	0.7539627067118646	6.7178682068135585
O	1.260859238135593	4.587344069711865	6.809369536813558
O	3.2446603081355927	7.812443069711865	6.333420096813558
O	3.403611108135593	8.854786679711864	2.652745606813559
O	4.613544028135593	12.062919359711865	1.041788146813559
O	7.908229278135593	10.579874779711865	-0.0715653091864411
O	8.409470508135593	8.076306139711864	2.745892766813559
O	6.921636598135594	5.6013664797118645	5.215033086813558
O	5.403612238135594	2.434895049711865	3.9574117568135594
O	5.399148108135593	-0.8957632202881356	5.623749866813559
O	3.6792840781355927	-4.216185980288135	5.1422659168135585
O	6.0744821181355935	-7.136781020288135	5.068973736813558
O	7.220676378135593	-10.433373940288135	3.6965965968135595
O	4.949056428135593	-6.967219570288135	-0.0349856921864411
O	4.706061158135594	-3.298354050288135	0.6989002068135589
O	8.055795678135592	-1.6953446702881354	1.514276486813559
O	8.503734888135593	2.0773650657118647	1.1858099068135588
O	11.541327078135593	3.6313751597118644	2.870790976813559
O	1.869730988135593	-1.4039049202881355	-10.202105133186441
O	5.371305498135593	-2.7005723602881355	-10.87701606318644
O	9.718220078135593	-3.3132098802881353	-2.644469873186441
O	6.466061678135594	-3.9989215502881352	-4.4818794431864415
O	3.5439958081355933	-6.399740170288135	-4.320826963186441
O	1.1916837481355929	-5.645886840288135	-1.429632907186441
O	-4.516208111864406	-6.404300990288135	0.21751125781355896
O	-7.461465851864407	-4.012307250288135	-0.3192620521864411
O	-5.202049711864406	-0.6929503502881356	0.16329205981355888
O	-5.844948641864407	2.4901108197118647	-1.777219793186441
O	-8.970658411864408	3.427254689711865	-3.640445973186441
O	-9.570975511864408	6.669343279711865	-1.7670115331864409
O	-10.026457591864407	4.843584919711865	1.563045696813559
O	-11.883229121864407	2.0743485567118647	-0.1724662731864411
O	1.2825220281355931	12.767361059711865	-8.478532053186441
O	-4.690954961864406	11.003184089711866	-7.145514923186441
O	-7.199762901864407	8.482605209711865	-5.687560013186442
O	-4.679400731864407	7.974010469711865	-2.934784613186441
O	-2.239845891864407	6.657256999711865	-5.613713123186441
O	-4.7018281118644065	4.168493829711864	-7.201849403186442
O	-4.792386391864407	0.7730626467118645	-5.443313813186442
O	-7.280658301864406	-2.046377810288136	-5.154212123186442
O	-6.024867741864407	-5.540110260288135	-6.113217963186441
O	-9.633905051864408	-6.686075600288135	-5.8878789531864415
O	-12.868511521864407	-4.629140530288136	-5.883142013186442
O	-3.969064761864407	-0.20196634028813554	-10.42430051318644
O	1.246326888135593	3.3926985497118647	-8.434691503186441
O	3.889966668135593	5.881066249711865	-7.124124563186442
O	4.755205508135592	7.236159289711865	-10.58254594318644
O	-13.692864221864408	10.422433649711865	-1.139267221186441
O	-8.620187441864408	-6.868456100288135	4.990217996813558
O	-8.185751841864407	-10.364470440288136	6.352714556813559
O	-7.860476381864407	-9.420854540288135	9.99722483681356
O	-6.497764681864407	-6.123948570288135	8.64840193681356
O	-3.489389471864407	-7.315722460288136	6.637025246813558
O	-2.639002791864407	-10.833317840288135	7.770169746813559
