31

O	21.535934854182965	33.614163303818586	90.87823469409133
O	23.726336813226926	35.169142310902544	90.39365367207861
O	24.937593495743158	37.00803331467247	91.91441951668679
O	21.34748405381859	32.19713354897775	88.79613194264053
O	20.59835529044119	32.68979043021086	89.87709667448752
O	20.371956644750888	32.053155122906176	87.67763937033975
O	19.146696848833013	31.701828667482005	88.28344155377711
O	20.168902011137217	33.438388459078844	87.07182152293778
O	20.9284597353385	33.47655118417428	85.91919436543216
O	18.659636845226746	33.460540673004616	86.7979189151121
O	18.487041321525002	32.93087888656673	85.53936026408584
O	18.198594994791627	32.59531891568743	87.91984401092559
O	13.33513440098601	33.646203828061324	88.72966223951087
O	21.716991125960124	33.10783200644471	92.25623243901552
O	22.65665347501985	36.12748856162885	90.68080777492585
O	25.743239060206868	37.36971073432351	93.03069882774169
O	13.909681431831729	32.934668105396185	87.7578231489395
O	20.83485929570282	35.096707195391474	91.0175388995752
O	24.863239897338993	35.35377574651893	89.24363399224212
O	25.73119001708447	37.23523966978418	90.4917955105414
O	15.236046242350989	32.87918369396502	87.63743437753206
O	24.645569140283143	35.32113648706318	91.8474705195146
O	23.004409170502207	33.748488771476	90.15740502199486
O	23.373639484984565	37.50950292040312	92.14029399208736
O	16.012055172211415	33.30853655576719	88.63636287895265
O	15.390810991188431	33.89046615028458	89.70732393759168
O	14.047764709849687	34.15094537006407	89.73577483732832
O	13.431808705226256	34.69110426416046	90.88072059735332
O	16.286735969234453	34.12469220514915	90.63539830392031
O	17.48806792937499	33.7788450748635	90.07594319467157
O	17.34261178966324	33.20177791578421	88.88243253963408
