100

O	3.4173031718304916	3.267109537177049	-3.275503703934427
O	3.6377402918304913	3.5306819671770495	-1.8390911519344266
O	2.7484856418304915	2.6152292771770496	-1.0924129881344267
O	2.4415116418304916	3.4464829971770494	0.11455699606557324
O	1.7518396118304917	1.8013211261770494	-1.2626424599344266
O	0.6585462278304915	1.2947974331770493	-0.8563227989344266
O	-0.7480229781695085	1.0369388411770495	-1.6893413559344266
O	-1.4147424481695083	0.23258043717704946	-0.5726795249344268
O	-1.0159906181695084	-0.9321253428229506	-0.6671351379344267
O	0.18993610683049159	-0.6989836128229507	-0.0012637239344266415
O	1.0045326248304915	-0.07535021282295062	-1.1181533678344266
O	0.8203504358304916	0.4418852071770494	-2.3239191339344267
O	1.5851601818304917	1.5664665614770494	-2.5543806739344266
O	0.08456875283049159	0.3294131671770495	-3.6014581339344267
O	1.0929878618304916	-0.07336666282295057	-4.420037853934426
O	1.8795536618304918	1.0925885621770495	-4.799122953934427
O	0.4828745358304916	1.5132022837370493	-4.475176763934426
O	1.5249267518304916	0.9018781201770494	-6.381415763934427
O	0.02260769873049159	0.5511639241770494	-6.712088683934427
O	1.6600913418304917	1.8262821161770495	-7.534939713934426
O	2.1148958618304916	-0.016213982822950612	-7.154440263934427
O	-1.0941893081695084	0.24958396717704945	0.8658007460655732
O	0.056309080730491595	-0.17181167282295062	1.635373996065573
O	0.6515662798304915	-1.1614383528229504	2.347605356065573
O	1.2239188418304916	-0.9306582928229505	3.599390756065573
O	2.1611780518304915	0.05921667717704948	3.511047146065573
O	1.9785574618304917	0.9369495391770494	2.5458629560655734
O	0.9086981858304916	0.8965863511770494	1.767779196065573
O	3.2036120518304916	0.8838479471770494	1.7159183260655735
O	4.268342231830491	1.6005785889770494	1.9068503860655732
O	4.795381641830492	1.3181914551770495	0.7718841260655733
O	4.059696281830491	0.7421715541770494	-0.20595663693442667
O	3.4519739318304916	-0.0204126828229505	0.6709022560655733
O	4.587673161830492	0.47790507717704944	-1.7779855139344267
O	5.611413031830492	1.4828361193770494	-2.0440295789344267
O	5.613941591830492	1.4793447949770495	-2.046414087934427
O	3.8506846618304915	0.3915048571770494	-3.3348993839344265
O	4.405933061830491	0.9035260321770494	-4.659983193934426
O	3.9974962318304916	-0.3930151428229507	-4.491878123934427
O	-7.467225708169509	10.662261867177051	9.519675256065574
O	-5.825970458169508	11.77458464717705	2.8726333060655733
O	-3.3496261281695086	9.70817113717705	-4.106872133934427
O	-2.2813419481695085	6.177189217177049	-4.679930433934427
O	1.3730740918304916	7.002454487177049	-5.884735663934427
O	4.983797071830492	8.30842768717705	-5.609672553934427
O	7.366879671830492	5.9544542671770495	-3.7176959339344267
O	11.088351841830491	5.9292525271770495	-3.2435006739344265
O	10.77680704183049	7.19305799717705	0.3193278460655733
O	7.578363371830491	9.182170797177049	0.03187107606557338
O	4.1284403118304915	9.69295769717705	-1.4586969409344266
O	1.3609291818304916	7.215701637177049	-0.5391884909344267
O	-2.2772783881695084	8.14103987717705	-0.19201190293442671
O	-5.530420548169508	6.192171027177049	0.17528183606557324
O	-7.706846888169508	7.46242734717705	3.0214621060655733
O	-10.021819058169509	6.907430427177049	5.944293056065574
O	-9.733365438169509	2.429220598177049	5.106365326065573
O	-5.948297688169508	3.0800579971770494	5.2572982860655735
O	-2.8137958981695084	3.8322275271770496	3.1847012260655734
O	-0.9007097341695084	6.82400762717705	4.303438476065573
O	2.7195043318304912	7.2364010771770495	3.2915014460655736
O	4.143340711830492	10.72470831717705	3.864888146065573
O	2.1751416918304916	-5.67403347282295	7.066015906065573
O	1.9757985018304918	-3.8345359128229504	10.353356456065574
O	2.1928056518304913	-0.07214018282295065	10.896410356065573
O	-0.9439488911695084	1.0884112121770495	12.818600056065574
O	-0.6281472141695085	4.90830888717705	8.655748946065573
O	-1.3520222681695084	1.2852493551770494	7.877949036065575
O	-4.320059758169508	-0.8982188528229504	6.744541126065574
O	-5.000140398169509	-0.41075390282295055	3.0536988360655735
O	-7.510266438169508	-3.2380182728229503	-1.7166504909344267
O	-5.733108728169508	-5.35329934282295	-4.400207683934427
O	-2.5346644381695085	-3.1588718828229503	-4.591094183934427
O	1.0725983318304917	-4.685286952822951	-4.851255933934427
O	1.9809573918304917	-7.95974835282295	-6.240543593934426
O	4.2055778318304915	-6.77622294282295	-9.064916953934427
O	1.2775464418304916	-4.819250512822951	-10.712272673934427
O	-1.0799378981695082	-7.629511712822951	-9.901247733934426
O	14.376484141830492	-3.24418434282295	0.10483934606557321
O	11.052728441830492	-6.8180980428229505	-4.030371203934427
O	7.694737681830492	-7.741162802822951	-5.661050813934427
O	6.836862621830491	-3.9856428528229504	-5.4376412439344275
O	7.014068661830492	-4.295290242822951	-1.6857135649344266
O	4.704096191830492	-7.283123402822951	-1.4213092069344266
O	1.0164266908304915	-6.316916852822951	-1.2000634719344268
O	-2.1393738581695088	-8.32450702282295	-2.040132777934427
O	-4.7600211781695085	-8.656274052822951	0.7079321460655734
O	-6.606480618169509	-11.118513652822951	-1.4769125079344267
O	-5.394398768169508	-13.11517085282295	-4.486637243934426
O	0.03316108617049159	-11.66152055282295	0.13108424606557323
O	2.0921605418304914	-9.667815252822951	2.6530699560655733
O	5.468384081830491	-7.85542579282295	2.934974986065573
O	5.655076551830492	-4.06822946282295	3.5199889660655734
O	8.18462198183049	-1.2102154828229508	3.6836783260655737
O	10.707240941830491	-2.88811495282295	5.863877176065573
O	15.596899041830492	2.0456865801770494	4.142704426065574
O	-10.340978858169509	-2.6615499128229505	-7.314049203934427
O	-13.947460358169508	-1.8469526828229506	-6.464619033934426
O	-10.526315358169509	1.4893905603770494	-8.289101653934427
O	-10.352232958169509	1.9394758091770494	-4.488220223934427
O	-13.80660625816951	2.8817023171770497	-3.1948915539344265
