26

O	33.010516262105796	0.3223768545856047	24.92953859807935
O	31.997885482124282	-1.5405307682133456	28.199503197459595
O	25.07130398994113	-1.4917542482618082	27.16775390746205
O	32.599298286755065	-0.5689237915260463	25.93519345659371
O	31.863081335862432	-1.6498260222262056	25.364849667746704
O	30.903577066747264	-2.172766788977051	26.36825505350757
O	30.359051578244916	-0.927788601179778	26.919867620307564
O	29.065262045479507	-1.2321959921720842	27.52734460697103
O	28.405401286302123	-2.3265833356359984	27.067101741852536
O	27.201104901802598	-1.989458070611132	26.428037166645762
O	26.398439953296737	-1.2311732602185914	27.302593598998076
O	27.088179729457924	-0.02373735768828117	27.414362222134226
O	28.431669548154208	-0.06604260609452112	27.76555199708787
O	29.105735098498453	0.884566265278123	28.64719688528589
O	30.43767584886148	1.3179788018867873	28.17906388832902
O	30.95860316591549	0.2518904875181698	27.422927668340954
O	32.25292814091688	0.4409991755341376	27.033783364705243
O	33.4948384861823	1.082562198111074	27.45072842152033
O	34.122329820141466	-0.3225388381697334	27.542739095258685
O	32.69856499815902	-0.8932417543096707	27.256097846240007
O	32.43813825057482	-1.0879167852327205	29.409651643650946
O	31.9436281047046	-0.3773071980905273	30.418314919823157
O	32.576392949164216	0.8366382021469616	30.728825847059987
O	33.96199633318424	0.7717873607438652	30.6422973054382
O	34.61504047732692	-0.3571175802281865	30.285807930816844
O	33.82595967243978	-1.271323587896622	29.59689489515141
