21

O	34.49237354120297	1.264022953415244	27.340199955042166
O	33.20952286735458	1.0638029210310647	27.812407930323143
O	32.82281374350714	-0.06034229240115463	28.540384789827634
O	31.5406666248814	-0.4503003183223823	28.793150411098463
O	30.96256168961767	-0.16384694077396866	27.6320218009424
O	29.751220276203757	-0.997591855924176	27.445553855588372
O	29.042490512713123	-0.6756089409572414	26.34132080555415
O	27.795008645089155	-0.26570724836349546	26.80174283920372
O	26.498864533468453	0.15304777083615234	26.503647473979452
O	25.504141706214767	-0.8080141689921556	26.282815532599493
O	25.68097160550547	-1.9933139831992472	26.927974145073424
O	25.61872920637403	-3.2623408528811417	26.17647520507581
O	26.64082151783215	-1.8448329236621208	27.96847074786744
O	27.704700026313873	-1.0997722570670476	27.870450376136915
O	28.856349095690884	-0.8975707560357813	28.4504694151833
O	29.09096638198784	-0.14060379249023508	29.74780833925441
O	30.744331710124527	1.1774952984269407	27.54758924381929
O	32.01248847462738	1.5458933478017995	27.272136982033697
O	29.93179586870801	-0.46304134057684815	30.789814191282428
O	29.74922214667882	1.168897202560439	29.693280521013993
O	28.174040182846863	0.6301711354610795	30.367963196585126
