87

O	-2.463520096321213	-2.0520504205606063	0.9156081831696983
O	-3.116588696321213	-1.580517220560606	-0.3156945358303018
O	-4.090963776321213	-0.6167759505606061	0.3618258631696982
O	-3.084664836321213	0.39826645643939396	0.8913569631696983
O	-2.209982706321213	0.019907036439393955	1.957227173169698
O	-0.8845671733212128	0.20365941843939395	1.671121303169698
O	0.15130888367878703	-0.6674926705606061	1.8632400131696982
O	-0.7232846193212129	1.476932781439394	1.2045858531696982
O	-1.407731393321213	1.770417749439394	0.07612413816969818
O	-2.585760926321213	1.090602538439394	-0.2078854555303018
O	-2.765068026321213	0.39329272643939395	-1.428156656830302
O	-2.2934678663212127	-0.9528747805606061	-1.2375078328303017
O	-0.9609500483212129	-0.9494530305606061	-1.7327532668303018
O	-0.9222908123212129	-1.071728920560606	-3.0819022768303017
O	-0.00503446632121296	-0.546701820560606	-3.9450126368303016
O	1.1275689336787873	-0.019911090560606026	-3.401884626830302
O	2.1041175436787873	0.42556382243939395	-4.256270316830301
O	0.8461281836787871	0.617809434639394	-2.1930282768303018
O	0.18013823367878712	-0.25841760756060606	-1.3311967168303018
O	-4.429895506321213	-1.172098300560606	1.6960268631696982
O	-3.3245595063212128	-1.9925314805606062	2.141128623169698
O	5.319840793678787	3.080643669439394	-11.375929376830303
O	4.198683593678787	6.609121299439394	-10.682131076830302
O	1.108621933678787	7.888272719439394	-8.961740736830302
O	-5.4672021263212125	9.274510939439393	-1.0031730828303018
O	-7.276420966321213	5.905695939439394	-1.2150530738303018
O	-8.193862986321212	6.631679749439394	-4.8195768568303015
O	-4.544337406321213	7.515748529439394	-5.451189866830301
O	-3.376490586321213	4.299281049439394	-3.6988016668303016
O	-6.134082316321213	2.164854929439394	-5.238912546830302
O	-5.330261936321213	3.360887009439394	-8.694181086830303
O	-1.620782070321213	2.7351315694393943	-8.150189776830302
O	-2.363179616321213	-0.794528600560606	-6.969633186830301
O	-4.501934296321213	-1.682890720560606	-9.861194636830302
O	-1.7769877233212128	-0.701151200560606	-12.346280376830302
O	0.8384933836787871	-2.7447564105606057	-10.467798376830302
O	-1.3429887453212128	-5.814726300560606	-10.852295976830302
O	2.886581373678787	-5.883137510560606	-14.146470676830303
O	2.710020443678787	-8.471432700560607	-11.365155076830302
O	-0.6249747343212129	-13.729200770560606	-2.8242317268303014
O	-1.1894165741212128	-10.469717070560607	-4.740112036830301
O	-1.5211482613212128	-8.199439790560607	-1.6570732168303017
O	1.526786523678787	-9.821571070560607	0.06984549816969823
O	3.4970053636787872	-9.288590530560606	-3.1903425468303017
O	2.452366223678787	-5.608294510560606	-3.4387754668303017
O	3.3348408136787873	-5.159236730560606	0.2011220101696982
O	6.7388140136787875	-6.710530580560606	0.1406404811696982
O	7.535220703678788	-4.522424500560605	-2.8560897168303017
O	6.375366583678787	-1.3587847005606062	-0.9808765728303018
O	8.464430803678788	-2.259432040560606	2.0554674231696985
O	10.720688723678787	2.243989049439394	1.3672738731696983
O	6.549366603678787	4.612397119439394	2.7745403031696982
O	7.468655463678787	5.031574999439394	-0.8859482638303018
O	4.2679940536787875	4.087488199439394	-2.6722029768303015
O	5.687716713678787	5.745501549439394	-5.760516386830302
O	8.672245443678786	8.034835579439394	-6.399508426830302
O	6.199755123678787	10.922338029439393	-6.460229946830301
O	4.248469123678787	9.636384219439392	-3.4678199068303015
O	6.278583943678787	9.339897039439393	-0.2842841700303018
O	4.048297233678787	9.173314389439394	2.7746768431696984
O	-2.001828298321213	7.640222899439395	6.928177053169699
O	-6.2062324963212125	10.636178709439394	6.862987383169698
O	-8.091716716321212	7.404925399439394	6.168322363169699
O	-7.997695996321213	2.5862523894393936	10.220136523169698
O	-5.073566606321213	2.998259619439394	7.801438113169698
O	-2.273241686321213	4.226631209439394	10.120489323169698
O	-2.438302186321213	0.7739829114393939	11.700311023169698
O	-1.4227794853212128	-0.804454910560606	8.394018733169698
O	1.1583377036787872	1.960715029439394	7.835468753169699
O	2.681507283678787	1.260663534439394	11.222174123169697
O	3.1095545336787875	-2.435193390560606	10.351602123169698
O	4.583508653678787	-1.7678675905606063	6.9225666531696985
O	7.0194524136787875	0.859908837439394	8.271983733169698
O	8.159521023678789	-1.547229260560606	10.964977423169698
O	10.773406723678786	-1.7891660005606063	6.306598353169698
O	12.806781023678788	-1.052048270560606	9.442679973169698
O	-0.3231470513212129	-7.347060290560607	7.103167533169699
O	-1.946150682321213	-8.707297720560607	3.9632285131696987
O	-4.743674266321213	-10.326562370560607	5.997979573169698
O	-5.255166706321213	-7.217684020560606	8.031123773169698
O	-5.0874040963212135	-5.283755070560606	4.793754123169698
O	-7.840890876321213	-7.325944610560605	3.1608171531696985
O	-9.917637366321213	-6.815589750560606	6.282959083169699
O	-9.511688426321214	-3.029364410560606	6.002161443169698
O	-10.070703796321212	-3.0092034905606058	2.2192336931696985
O	-14.545713376321213	2.256476799439394	-1.9608244468303018
O	-11.409303876321214	0.780501981439394	-3.5733797068303015
