17

O	33.46959767033376	-0.2399745981691085	26.841463302818152
O	32.224873566386215	-0.6422547434962433	26.34352552266123
O	31.367295946220484	0.3176462892572225	25.763862921992136
O	30.04770545570992	-0.1011513838815481	25.818016035636305
O	29.828563905133844	-1.3935137044659198	26.17609112863598
O	29.335300306866362	-1.8363691042704553	27.5225958900427
O	30.44513243833262	-1.8158073220298165	28.350536906293186
O	30.850202804100434	-1.0583776167931664	29.356637294097876
O	32.115745197033455	-0.32096842560434413	29.663519540544403
O	32.19126487002769	0.9517905394835673	29.31751299421151
O	31.053802109798564	1.221702623163156	28.553824469550438
O	29.715410907717676	-0.27231568328967737	29.668263379305596
O	29.557605515880038	0.788085136924947	30.45595801648886
O	28.41953181179267	-0.6238416315679062	29.223035511957377
O	28.366757332150748	-0.9708380070352782	27.86682485946507
O	30.758172553105442	-2.2392183492553612	25.715859693726387
O	31.998310571808993	-1.7413117101602131	25.57435735352625
