20

O	28.556649845063433	-2.28391853247357	27.97331901622158
O	27.879195693631853	-2.105540299325702	26.727674316386672
O	26.81575639724184	-1.2212891890641844	27.044334415548956
O	26.00576901818039	-1.387749810701493	25.914330191540074
O	27.328509025568486	0.029356184209601288	27.46977259514497
O	28.562185609437776	0.11549740686549981	28.03713352132225
O	29.316191361349485	1.274930431767535	28.50615151705124
O	30.508645285200636	1.420285383203785	27.678996145207005
O	30.948536494046373	0.058958790305598086	27.29829356243832
O	30.632666502537333	-1.0425519683736382	28.30582236993108
O	29.173011892120215	-1.0951907865685675	28.34997050194867
O	31.057452824210692	-2.23909977795249	27.446433822165847
O	32.469413777916564	-2.402333256565035	27.81536676907568
O	33.15599548262053	-1.1436097678575012	27.409005973507696
O	32.373771207856585	0.0925208216144629	27.429819149242004
O	32.70388874165467	0.8346874852048827	28.62007802222357
O	34.10065099677756	0.5190588217885131	28.846420201513325
O	34.398511448767294	-0.7297422829374689	28.069937357512366
O	35.4163934348185	-0.6168188081997747	27.150010279136044
O	33.34557844103872	-1.2894458041165022	25.930114200892696
