25

O	33.36416716507741	-1.4476914636056812	23.707697457562876
O	32.16872278328371	-1.756530671501142	24.31193618064323
O	31.723104325173484	-2.86180300231326	24.948297714774927
O	30.823449287825934	-2.8162289021073796	26.05097520847529
O	30.684247068817527	-1.653772127948755	26.62880727602606
O	30.41696512585057	-1.6013040849404392	28.034175459552607
O	29.06620033392946	-1.0362223652263358	27.98441755492319
O	28.61280928028113	-0.37112408780269973	26.9108420450022
O	28.105211296545153	-1.2156444577008667	25.87628626644389
O	27.3227198716059	-2.1923574796602217	26.30127571018056
O	25.960781298992437	-2.0738297750600285	26.228026052955048
O	28.022681669752078	-2.9126376188703462	27.185254771400732
O	28.49828777731898	-2.230759265823411	28.312232389806372
O	30.909089921234543	-1.3616883352101343	29.17891329918762
O	31.0017125083213	-0.0837757290602423	29.962090688289795
O	30.06623066521916	0.777335102547674	29.075383384960105
O	31.09032619742629	0.5413623524169886	27.964547691638685
O	31.47987456483286	-0.7567487184912901	27.925229844444345
O	32.748038495796266	-1.2626799490387586	27.54287494827901
O	33.66166445289533	-0.3722749558420326	26.954529458150205
O	33.56357998918962	0.7094621689885905	27.768681334359236
O	32.27420488686369	1.2027029033292895	28.001466655119916
O	30.596677243055385	-0.6442839771086335	25.721771612702334
O	31.37207515225116	-0.6952174617798417	24.612836937976677
O	35.24737827268399	0.985774769684312	28.671346178195186
