87

O	-0.36634160900923163	2.675132495503077	-3.901635147
O	2.1926176969907685	1.3140802325030767	-1.6975370090000002
O	-2.0833696830092316	-2.1895844244969234	-3.127803317
O	-2.4076002930092315	-0.8054895744969234	-3.216009397
O	-1.4788587730092315	0.1223624585030767	-3.690561847
O	-0.9860967869092316	1.2253286465030766	-3.050955197
O	-2.7450797030092318	-0.5374141844969232	-1.939686977
O	-2.6859369730092313	0.7608099185030768	-1.5291050620000002
O	-1.4414409970092317	1.3582657095030768	-1.8195387770000002
O	-1.0449119843092316	2.4525542555030766	-1.194607419
O	-1.5048295610092315	3.560110235503077	-0.5876933930000001
O	-0.4922723630092316	3.3329542155030767	0.5530202129999999
O	0.24133528699076834	2.3567821355030767	0.0709301699999999
O	0.4810729169907684	2.984086265503077	-1.508000521
O	0.8082037569907685	4.4524592755030765	-1.480906531
O	0.5225955169907683	0.9768774095030768	0.3109250029999999
O	1.0011591769907686	0.42285256550307676	-0.8293751257000002
O	0.6460114969907684	-0.7961631244969233	-1.2715999880000002
O	-0.33579334900923163	-1.4258422144969232	-0.6383974960000001
O	-0.6649309840092316	-2.6739518344969233	-0.8817026490000002
O	-0.7504177990092316	-0.9556451544969232	0.5524803429999998
O	-0.6800533610092316	0.3505511315030767	0.7483635929999999
O	-13.522094903009231	-3.655390784496923	-0.6589524890000001
O	-12.638017403009231	-0.27453049449692324	0.7821683229999998
O	-6.352947113009231	6.669155735503077	5.343476793
O	-4.360660223009232	7.773727925503077	2.294419323
O	-7.518851103009231	8.641117885503077	0.4344578929999998
O	-8.958128133009232	5.274385225503077	1.476125873
O	-5.814590873009232	3.5119952455030767	0.33191921299999994
O	-5.372787263009231	5.597931905503077	-2.840553217
O	-8.986206123009232	5.0375500355030765	-3.881467447
O	-8.686131883009232	1.2994790925030768	-3.3038036770000003
O	-5.450129913009231	1.1177005055030766	-5.372411847
O	-7.000435053009232	3.030275025503077	-8.306087917
O	-9.83084876300923	0.47037921250307674	-8.543019857
O	-7.358536503009232	-2.4531440644969233	-8.422378387
O	-5.580491583009232	-1.0277088944969233	-11.450826976999998
O	-4.792646253009232	-5.594824874496923	-12.968124277000001
O	5.502247816990769	-3.1599522844969234	-12.482952876999999
O	2.0956140069907683	-1.961988234496923	-11.242866777
O	3.213043606990768	-1.032819534496923	-7.677107787
O	5.255144546990769	-4.307004834496923	-7.305085007
O	2.1420605769907684	-6.221823524496923	-8.468024307
O	-0.09791093900923153	-4.458282674496923	-6.047045187
O	2.4900096269907683	-5.177855754496923	-3.289355917
O	2.8627994469907683	-8.799390884496923	-3.840086147
O	-0.9320665454092316	-9.089148374496924	-3.8035610870000003
O	-1.2287088100092316	-7.218899924496924	-0.46369247800000013
O	1.4834088369907685	-9.433468274496922	1.125152843
O	-2.0366803330092313	-10.570405774496923	4.622263343
O	-1.8752879850092317	-5.887821254496923	6.460198223
O	-5.138622383009231	-6.845338104496923	4.724630633
O	-5.688461373009231	-4.012972474496923	2.3146269729999998
O	-9.251445533009232	-5.122924704496923	1.948449293
O	-12.957718603009232	-4.459725304496923	5.644852373
O	-9.58797337300923	-2.7505563044969232	6.041209093
O	-7.1072628730092315	-4.669200724496923	8.165648012999998
O	-4.319834453009232	-2.3869969344969233	9.384805423
O	0.5073981069907685	3.2511003155030767	9.500258122999998
O	-0.8659680740092316	7.999475185503077	10.976492322999999
O	0.7262169769907685	9.118225645503077	7.713749022999999
O	6.771124246990768	8.062968065503076	6.463514903
O	4.305344456990769	5.205336325503077	5.900515103
O	5.153461046990769	2.8850868655030766	8.874287543000001
O	8.477715436990769	2.3177292355030765	7.125246183
O	6.693691906990768	0.8360832658030768	4.1038306229999995
O	4.311479166990768	-1.0651710344969234	6.409587283
O	7.245637116990769	-2.567819044496923	8.255497553000001
O	8.756435226990769	-3.870662154496923	4.9969872429999995
O	5.468663826990769	-5.276637444496923	3.726221413
O	4.687195746990769	-7.000929894496923	7.050120093
O	8.136181426990769	-8.554576184496923	7.069615483
O	4.311794846990768	-11.343196074496923	4.568148443
O	6.1028600269907685	-13.016922574496924	7.462942053
O	9.515434396990768	-1.7336551144969232	-1.465798909
O	8.00390531699077	-0.5429948844969233	-4.746089587
O	10.855951696990768	1.9096731935030768	-5.309043237
O	10.662737196990768	3.1611573255030767	-1.786505027
O	6.924811056990768	3.3011495955030767	-2.234456567
O	7.093345356990769	5.456986795503076	-5.341319027
O	9.48972099699077	7.713847995503077	-3.486714277
O	6.967867976990769	8.147380925503077	-0.670389238
O	4.058769176990769	8.605258535503076	-3.0775513670000003
O	5.964341066990768	11.229053525503076	-4.984999407
O	1.6806914669907682	13.467594325503077	-1.389048726
O	-1.9438223590092316	13.966643325503076	-2.4856966070000004
O	-2.6618370130092313	10.486291155503077	-3.946401377
