22

O	25.615860383621403	-1.6705608140446648	26.930083555161303
O	27.020683585261594	-1.5059509208660296	26.81116596016819
O	27.943830639050617	-2.447989833050052	26.76581583493125
O	28.693422389160197	-2.6278817603343088	27.97185412149344
O	29.227065356620827	-1.4814360673854432	28.58004986902482
O	30.780405567862417	-1.2640708397124656	28.50963579615899
O	30.478448768552145	-1.2547173208437012	27.12886437147255
O	29.95723793743822	-0.3752588988540605	26.273613992070327
O	30.948287389068447	-0.22105427403919498	25.236777724208785
O	31.647186151899767	-1.295844886553619	24.6905505476553
O	31.485082616005688	-1.270137544567413	23.329140201578767
O	31.60090058102691	-2.344758423925124	25.520046121027697
O	30.571355846817205	-2.4344344441935686	26.53685782907468
O	30.915815370395684	-0.020675681568118165	28.72894060014831
O	30.151856470736682	1.2076006417030676	28.444408807196783
O	31.390328018243213	2.1639409959087423	28.390418037805908
O	32.67380247904068	1.5864497516207192	27.887632385631658
O	33.27776059999491	0.503393837223855	28.728649979191843
O	33.632722468895054	-0.6967519030212195	27.875030413488016
O	32.135014452879375	0.16511680030104992	29.645862501526842
O	28.372998535274494	-0.42075785188821535	28.542714952072274
O	27.532827365915264	-0.4564040124100752	27.453229882603996
