95

O	2.9558633736499997	-1.8005486316333335	-2.6970796456533335
O	3.3934014036500004	-1.6072836116333333	-1.4189224606533335
O	2.5658802636500004	-1.1144282316333334	-0.4369455486533334
O	1.1875718736499998	-1.0174537016333332	-0.6855013246533334
O	0.7985204236500001	-1.3333428316333331	-1.9577937956533333
O	1.76433603365	-1.2179211216333334	-2.9305106356533335
O	-7.14519401635	2.9175345183666668	-7.3297922556533335
O	2.7161796136500005	-0.17323740163333334	1.0088282243466666
O	1.12905971365	-0.3284671616333332	1.5388106643466666
O	0.48431271364999984	-0.9588055516333334	0.4690836043466666
O	3.7970923236500003	-2.425122651633333	-3.5853772256533336
O	0.57147069365	0.2432534653666667	2.7736917343466665
O	-0.9494242503500001	-1.2114686216333335	0.7695465743466665
O	-1.96818830835	-0.44960771163333324	0.10894289134666657
O	-1.07116235835	-1.9656342916333334	1.7508653843466664
O	-3.30408044635	-0.4451799416333333	0.3207281543466667
O	-4.20560948635	-0.10100393163333332	-0.7225653466533334
O	-3.76953322635	0.41781118436666664	-1.8901499656533334
O	-2.60362706935	-0.2467086216333334	-2.2633475156533334
O	-1.70787284496	-0.3674516616333334	-1.2167519596533334
O	-4.44616639635	0.9621347341666667	-2.9283529856533335
O	-5.63632181635	0.5262673353666667	-3.3964903656533334
O	-6.248508946349999	1.7227586453666666	-3.991932325653333
O	0.12157584364999985	-0.3461948716333334	3.8818461343466666
O	-1.22976537335	-0.061699511633333426	4.074612774346667
O	-1.710670726805	1.1808549323666666	3.745494424346667
O	-1.02614045335	1.7886293593666667	2.7571784943466664
O	0.34549833364999993	1.5741889913666667	2.701164064346667
O	-2.23484895235	1.8903736923666665	4.803692404346667
O	-5.90047878635	1.4374031243666667	-5.401250455653333
O	-5.28178332635	2.587127778366667	-5.779927485653333
O	-6.15606995635	3.719374118366667	-5.332583175653333
O	-7.47445410635	3.299697828366667	-5.921915735653333
O	-8.06988379635	2.0755752883666667	-5.287731605653333
O	-7.15559464635	0.9597645177666667	-5.782952505653333
O	3.1828044036500005	-11.652848591633333	-7.015999405653333
O	0.16753580364999987	-11.609487291633332	-4.754729045653334
O	-8.87990034635	-10.741497991633333	2.9579156643466664
O	-5.50743340635	-9.099346391633333	3.616439144346667
O	-6.8570915563499995	-5.766980501633333	2.3736882743466667
O	-8.218034566350001	-7.3773419616333324	-0.7300609526533334
O	-4.85820249635	-9.088334891633334	-1.2107050396533334
O	-2.9888503763500003	-5.794417861633333	-0.7453576606533334
O	-5.4108453263500005	-3.820679401633333	-2.6480905456533335
O	-5.29405746635	-6.159940991633333	-5.619497275653333
O	-1.55561774335	-6.084117111633333	-5.592708665653333
O	-1.4782156993500002	-2.2722030716333332	-5.579819995653333
O	-3.66439962635	-2.1282214216333335	-8.548546885653334
O	-1.57300889935	-4.218623081633333	-10.678259185653333
O	1.5830700136499998	-2.274495621633333	-9.831850085653333
O	-0.025369406350000068	0.8848116753666667	-10.959115485653333
O	0.1186026336499999	-0.26138114163333337	-14.621944585653333
O	4.27147705365	2.4413222083666666	-12.601467185653334
O	-0.04043273635000011	13.153555108366668	-6.394140355653334
O	2.84973065365	10.731560638366666	-6.1460352556533335
O	1.53412312365	7.200895728366667	-6.837312385653333
O	1.21807652365	6.219040148366667	-3.177035295653333
O	4.647202403650001	7.5757209583666665	-2.1993680156533335
O	6.09331191365	5.699729168366667	-5.235487105653333
O	4.43425070365	2.458079708366667	-4.2433128556533335
O	5.61500778365	2.919507708366667	-0.6499903456533334
O	9.23153187365	3.7405699883666665	-1.4592555766533333
O	9.28994487365	0.6277029323666667	-3.6324655756533337
O	7.85271653365	-1.5252681416333334	-0.8338787394533334
O	10.41515727365	-0.14767277163333326	1.6831644943466666
O	11.67718507365	-4.987740911633333	2.4856128943466667
O	7.72947028365	-7.556255121633333	1.4358790843466667
O	4.51747912365	-6.597282181633333	-0.39258127865333337
O	5.37841638365	-9.470535791633333	-2.7997392956533336
O	4.9384675836500005	-14.587647791633334	-1.6500275396533333
O	3.5829608336500005	-11.992290191633334	0.7983841543466665
O	-6.8281107063499995	-4.535320271633333	9.890522514346667
O	-8.00531675635	-1.5824928916333334	11.959988814346667
O	-5.40980136635	1.2032590513666668	12.093561514346668
O	-2.9442668763500004	-0.5148026216333332	9.809607514346666
O	0.5606865136500001	2.283016018366667	12.633587014346666
O	1.3769151936500001	2.5426364583666667	8.883615904346668
O	3.2607748036500004	-0.7546995716333333	8.944676984346668
O	6.27512083365	3.726500738366667	9.744048714346667
O	7.111461403650001	1.7058035573666666	6.644023504346666
O	13.03600727365	0.29930366936666664	5.745845954346667
O	7.444611173649999	11.489426808366668	-9.262631215653332
O	3.34497458365	7.989250828366667	5.2910255743466665
O	1.5527075336499998	8.517744948366666	1.9800594843466668
O	-0.6720350563500002	11.168508708366668	3.5294656743466666
O	-1.4004766423500001	9.041939538366666	6.530497554346667
O	-1.94642395635	6.192312148366667	4.106830034346667
O	-4.53753676635	8.183420408366667	2.1003863143466663
O	-6.22723057635	8.952634028366667	5.371934664346667
O	-6.384969026349999	5.254322858366667	6.329185454346667
O	-7.54125187635	4.227462248366667	2.9092058543466663
O	-10.192209106349999	6.842624028366667	2.769040374346667
O	-12.28625582635	1.3085588723666666	3.741433584346667
O	-13.327726126349999	-1.0659351616333332	0.9393830943466666
O	-10.23671184635	-0.9133601416333332	-1.2475969686533335
