27

O	27.777464306116226	-2.8185993455199267	28.051668171804366
O	28.884825473167563	-2.0430977825829784	27.26841444248882
O	30.020721392069465	-1.4939362270799146	27.951647553073702
O	30.610204818626496	-0.2583467155490028	27.929836412539565
O	29.701370847209084	0.7238264159316498	27.466373660984313
O	28.298573174209814	0.3297365197708614	27.472689699314547
O	27.975001197411743	-0.9418170284419441	26.988741049126173
O	26.939397420497095	-1.274239138765615	26.0904167401911
O	30.586734619492738	1.2696036409758715	26.330457224638323
O	31.245230601380175	-0.11659256732909574	25.61353413267327
O	32.387570203808636	0.6672351013687456	26.25181360258769
O	32.04046207020222	0.13834873021103766	27.571685233329248
O	33.01062814362555	-0.9536308541263855	27.54663885400307
O	32.28546781815122	-1.819899377840691	26.958144737031496
O	32.41768389129932	-2.6299180062535434	25.715045427833168
O	33.521005367850144	-1.9194868008886061	24.992363518936124
O	34.252465567939026	-2.184875482861524	25.978538822307332
O	34.19016652424417	-1.000286205925037	26.89246178869256
O	33.46683324106999	-2.7317447567552344	23.589078755528597
O	32.79746591437815	-3.1215075491311475	22.52854405186335
O	33.255673090115444	-3.644728098556685	21.246158623885535
O	32.76277287801539	-4.670831895717924	20.68026693743071
O	33.90264380306748	-3.1581071826762606	20.103555807616168
O	33.072105637786464	0.07258528267984031	25.04153935494205
O	32.57490525289563	0.5729888327951111	23.750067463606182
O	33.15555385275923	0.08364282093126617	22.427133843342943
O	31.39890244669498	-0.25742500439871463	23.393230749202832
