84

O	0.9504864826158729	-0.4139233544285722	4.906467775560317
O	0.7861378926158727	-0.008207098428572257	3.5960639655603175
O	-0.4360599423841272	0.3973342355714278	3.0622424655603178
O	-0.7244385475841272	0.5412196805714278	1.7371033355603176
O	-0.07638109438412721	-0.5012057544285723	1.2293127755603177
O	-0.6825069923841272	-0.8985170944285722	-0.06374715843968237
O	3.8166615872858856e-05	-1.8763343444285723	-0.6988117500396823
O	0.4188095226158729	-1.3206183844285722	-1.9038134844396823
O	1.0513542226158727	-1.493906674428572	-3.1342867844396824
O	0.30676397261587274	-1.958610934428572	-4.225852454439682
O	-1.0187942363841271	-1.6505807444285723	-4.204711624439682
O	-2.0288479773841273	-2.710948424428572	-4.390361274439682
O	-1.2637711663841271	-0.6103796844285722	-3.2645203044396824
O	-0.6502949393841272	-0.5104995544285723	-2.1198667544396823
O	-0.7453586302841272	0.09936013057142778	-0.9698071164396824
O	-0.3895733613841272	1.5501522605714277	-0.6874038997396823
O	1.2559694426158727	-0.2271007844285723	1.1688090955603176
O	1.5313255626158728	-0.39853314442857235	2.4782374455603176
O	-1.071793259384127	2.4674978655714277	0.08057360356031762
O	0.8008504326158729	1.8423952655714277	0.11792336756031763
O	0.29365630261587283	2.3545465355714277	-1.5273960234396824
O	-9.289957877384126	-1.6013284544285722	-9.936342704439683
O	-10.494129077384127	-1.0615499544285725	-6.401459224439682
O	-13.173740597384127	1.1564310045714277	4.976296925560318
O	-10.079319777384127	2.5926362555714277	3.308271025560318
O	-7.886352277384128	-0.11989035042857221	4.845049585560318
O	-10.289422027384127	-2.802587074428572	3.7109260055603177
O	-10.268223647384126	-1.204192594428572	0.2568277145603176
O	-6.3774601073841275	-1.0522491644285723	0.2417586765603177
O	-5.9891603873841275	-4.475401444428572	1.8237928555603178
O	-8.354957317384127	-6.080833004428572	-0.6833852697396824
O	-6.571031947384127	-4.410551444428572	-3.576943844439682
O	-3.2275446873841274	-5.7082706444285725	-2.2521591344396823
O	-4.342263367384127	-9.201796484428572	-1.9361751344396823
O	-5.478093687384128	-9.316778294428572	-5.584538524439683
O	-2.173032027384127	-7.873019434428572	-6.812986894439682
O	-0.3169528393841272	-10.655947794428572	-5.048832914439682
O	-1.6203909173841273	-13.255322894428572	-7.444403204439682
O	2.897823052615873	-10.602582094428572	-8.713280484439682
O	10.093387302615874	-8.577702174428572	-1.2657779134396825
O	6.346290682615873	-8.575692404428573	-1.8360961444396824
O	5.641592602615873	-5.260367554428572	-0.03344157443968232
O	8.671957882615873	-3.479797674428572	-1.6375170144396825
O	7.368245862615873	-4.705551764428572	-5.0072013244396825
O	3.9413322126158725	-3.490621754428572	-4.3949084244396825
O	5.238130152615873	-0.09777378142857229	-3.1350261344396824
O	7.595966542615872	0.47174550557142775	-6.115134424439683
O	4.639784992615873	-0.22252799442857218	-8.394564074439682
O	2.4150387826158726	2.305725675571428	-6.4562712944396825
O	5.171524912615872	4.990131985571428	-6.749794134439682
O	1.6395320126158728	7.862074585571428	-9.098889784439683
O	-0.9815436643841272	8.241157495571427	-4.794048844439683
O	-2.6730179573841273	6.198782355571428	-7.562533244439683
O	-3.6418923873841273	3.0341972055714277	-5.747262204439682
O	-5.921377367384127	2.177450565571428	-8.573157624439682
O	-10.512716997384127	4.618094905571428	-9.432040904439683
O	-8.633945657384126	5.248010395571428	-6.189325354439683
O	-6.4238522473841275	8.328046615571427	-6.218884464439682
O	-4.222698387384127	9.003644675571428	4.554210425560317
O	-6.096593497384127	5.678175035571428	9.384587235560318
O	-0.2051919893841272	6.186037545571428	11.496925275560317
O	-0.7507237921841272	5.9277865255714275	7.743904935560318
O	-0.012854026384127248	9.501199335571428	6.5592972755603185
O	3.587860262615873	8.858532075571429	7.621341845560318
O	3.8528136726158726	6.0718843055714276	5.080201125560318
O	1.923528232615873	8.164275275571427	2.4866003555603178
O	4.408947922615873	10.933554105571428	2.976587005560318
O	7.346130212615873	8.605105225571428	2.2378153555603175
O	5.672959462615872	7.068614905571428	-0.8186303004396823
O	4.740097192615873	10.487806065571428	-2.234635774439682
O	7.249969342615873	9.352447175571427	-6.4228306144396825
O	12.627102702615874	-9.432838694428572	-6.202118194439683
O	9.214249702615874	2.1571703455714277	3.572204355560318
O	8.482660812615874	-1.5602730744285722	3.2858938755603178
O	9.904542702615874	-2.2041791144285723	6.782219615560317
O	8.025783672615873	0.6934429085714278	8.261185245560318
O	5.017854922615872	-0.5754316944285723	6.384778425560318
O	5.197728822615873	-4.069802644428572	7.846696045560318
O	5.534070692615873	-2.455495144428572	11.268334275560317
O	2.301925482615873	-0.49562970442857235	10.690694275560316
O	0.4797600226158728	-3.541831224428572	9.283153615560318
O	1.5096139026158726	-5.636559914428572	12.159529075560318
O	-7.103878927384128	-5.785651654428572	10.685953375560317
O	-5.625887267384127	-6.324130964428572	7.185561295560317
