24

O	29.49119874199513	-2.149740599670364	27.292247855759136
O	29.01848024138976	-2.244636373463431	26.03120026471346
O	28.59482212574719	-1.1921564820744102	25.297427900729257
O	29.001461849769267	0.05198919753090549	25.8411251002973
O	30.26188135027399	-0.159437970418901	26.313927824552785
O	31.518465483879552	0.6463752422025979	26.12764394196724
O	31.36635098928037	1.4368426837383974	27.37521323394609
O	30.94685626978775	0.3170270163335049	28.150285234720617
O	31.52230366475391	-0.8142369545004097	28.136954544909027
O	30.621043400779577	-1.284677565248957	27.111021204794675
O	31.32490345426201	-0.9840573024888885	29.619923971142054
O	30.02490391164776	-1.4130837970860737	29.788067583527628
O	29.096246688372474	-0.24666738076432687	29.49223937718709
O	29.558005365965222	0.6400748108046416	28.58508473615064
O	28.40533329761498	0.9621743918323893	27.896715054828032
O	27.40164294015136	0.24341668768881847	27.50229804938111
O	26.922926542332505	-0.6717897143617167	28.363386259564553
O	27.69706998007129	-0.3297078336520243	29.445902123571503
O	33.61131848359486	1.0557335512053174	28.098758266253146
O	32.354900083854375	1.9055111495517205	28.373824301462907
O	31.43913154764534	0.1800642881554928	30.609064721440582
O	32.802664680657294	0.09055548786000818	31.172511935367034
O	27.36126216318019	-1.4847514641285355	24.76364568474594
O	26.41339514906768	-1.6841882541083697	27.59410966578542
