80

O	-1.3018952830476196	3.4106675766984127	-1.0802156523492057
O	-2.94667763204762	-5.588621953301588	0.33677501065079424
O	-0.1066108420476195	3.8959432566984127	-0.6672581983492059
O	2.1354524179523806	3.6188815666984127	-0.6977294233492057
O	0.9061399579523806	3.0044241066984125	-0.8738926273492058
O	-2.1818131440476196	4.322633926698413	-1.5984250323492057
O	0.5679901579523805	1.6787663166984128	-0.7212526353492058
O	-0.6936778560476196	1.0906928886984129	-1.2746554923492057
O	-1.5097278799476195	2.081641226698413	-0.7029390663492058
O	-0.6033849690476195	-0.2937101313015873	-0.7905905373492058
O	-0.8094513760476195	-0.5428489033015873	0.46180730865079417
O	-1.4714184252476195	-1.8574898333015875	0.6570410276507943
O	-0.5662177400476195	-2.8819000933015873	0.3747107786507942
O	-1.1114869940476195	-4.157516513301587	0.5560833176507942
O	-2.5067313220476195	-4.279140363301587	0.5703005006507942
O	-3.1712884420476195	-3.294578043301587	-0.15077860234920581
O	-2.60084742204762	-2.0235266533015874	-0.1600068723492058
O	4.419200487952381	7.627980246698413	-10.438349002349206
O	4.08199174795238	3.887762456698413	-10.806884202349206
O	2.98097381795238	-7.997143173301588	-10.726761702349206
O	3.9158957879523806	-6.059373943301587	-7.615308872349206
O	0.3234544179523804	-6.156691023301588	-6.326874232349206
O	-0.9494769800476195	-5.001125223301587	-9.698785882349206
O	1.6553009779523804	-2.2303884033015873	-9.647070292349206
O	0.6367995379523803	-1.2584496133015872	-6.107212672349206
O	-3.08077968204762	-1.6852325533015873	-6.683280592349206
O	-2.9451752520476195	0.4644692726984127	-9.801975302349206
O	-1.0061341230476195	3.167156876698413	-7.934312852349207
O	-3.6147685120476196	3.1181046166984125	-5.1976945723492065
O	-6.53128787204762	3.4820847266984125	-7.459972702349206
O	-5.06161191204762	6.615455456698412	-9.097588922349207
O	-4.346478332047619	8.186009126698412	-5.680214132349207
O	-8.010174112047618	7.807463166698413	-4.774399812349206
O	-9.11273331204762	10.376862186698412	-7.297170642349206
O	-7.67655434204762	12.042958916698412	-2.369662272349206
O	-10.53633310204762	6.485829506698413	6.169122357650794
O	-9.20017704204762	6.027458546698413	2.6331771276507943
O	-6.71586445204762	3.2694311766984128	3.5165041776507944
O	-5.4173528220476195	5.101919176698413	6.654985897650794
O	-4.99108297204762	8.240861676698412	4.473857247650794
O	-3.0662703920476195	6.414081556698413	1.8536277776507943
O	-0.8772750520476196	4.789341706698413	4.4990219276507935
O	-0.024980442047619622	7.938696266698413	6.390203247650794
O	0.9982815479523803	9.483050336698414	3.078088557650794
O	3.2247784879523804	6.456260406698413	2.201442977650794
O	4.91555165795238	6.6287868566984125	5.652450167650794
O	9.29112920795238	7.122680696698413	3.1045331376507943
O	9.00460870795238	2.332970316698413	1.5265814676507943
O	8.581089207952381	4.9928914666984126	-1.1909098443492059
O	5.41435272795238	3.942312146698413	-2.9224938723492055
O	6.3562584379523805	6.2291451366984125	-5.783365612349206
O	10.169073307952381	5.196139126698412	-9.236832502349205
O	9.12661740795238	2.483291016698413	-6.827564252349206
O	11.19939740795238	2.2352055366984125	-3.6665222523492056
O	7.448651057952381	-7.428390973301587	0.2761578076507942
O	7.122759877952381	-11.551875683301587	-2.7869294923492056
O	3.4222785579523807	-11.487364083301587	-1.9349260523492058
O	1.3841422779523804	-12.065183083301587	4.004208687650793
O	2.6286772079523804	-8.687084963301587	2.8275553276507943
O	5.97741902795238	-8.308974403301587	4.644802237650794
O	3.909380697952381	-8.116297693301588	7.832236077650794
O	2.2213818079523806	-4.928729753301587	6.560022557650794
O	5.54126014795238	-3.6286497533015876	5.228526847650794
O	7.124567737952381	-4.170150523301587	8.623309907650794
O	4.42116823795238	-2.083329993301587	10.322999997650793
O	4.5910099079523805	0.7150760506984127	7.739060027650794
O	8.406348517952381	0.8651790786984127	7.969278167650794
O	8.07645025795238	5.703525606698412	9.215037567650795
O	-2.3043662040476196	-1.1178993733015874	9.867151497650793
O	-5.323342302047619	-0.08745800730158726	7.812281567650794
O	-7.470317902047619	-2.7709682233015873	9.454737317650794
O	-4.82742218204762	-5.375146613301587	8.984082337650793
O	-4.41276911204762	-4.044607523301587	5.4416917176507935
O	-8.10648845204762	-4.476204043301587	4.652658037650794
O	-7.908177582047619	-7.985463733301588	6.047510737650794
O	-5.003716482047619	-8.781699213301588	3.6921059676507944
O	-6.644568912047619	-7.074643623301587	0.7224686476507942
O	-9.83563041204762	-9.005893713301587	1.3296115376507942
O	-6.944227612047619	-9.819412783301587	-6.830608312349206
O	-6.624712342047619	-6.046608753301587	-6.157419792349206
