86

O	1.910172880065625	-2.4468791549890625	-3.178634810440626
O	1.0289975100656252	-1.5027443549890624	-2.598771080440626
O	0.7128262600656252	-0.28675716498906256	-3.0117694704406257
O	1.2223049200656253	0.7953587137109374	-2.229994570440626
O	1.0941543100656252	0.7173786593109374	-0.833114531440626
O	0.08980778006562518	1.6369462060109372	-0.03533835444062594
O	-0.8242959009343749	1.0511002080109373	-0.946032505440626
O	-0.9158409419343748	1.6437945380109373	-2.136914110440626
O	-2.3018641199343746	2.0856257550109376	-2.263430970440626
O	-3.2681500499343747	1.1869135170109373	-2.042690060440626
O	-4.263132969934375	0.7108745926109373	-2.843925800440626
O	-2.791820189934375	0.12677770501093732	-1.278651636440626
O	-1.3874617929343749	-0.16415204098906266	-1.1462780914406259
O	-0.13563834993437496	0.8008765547109373	0.9543118195593739
O	-1.003087186934375	-0.34479749498906265	1.1358891895593741
O	-1.857806860934375	0.22444029001093735	2.379947239559374
O	-1.6236646309343747	1.6491852710109374	2.726596309559374
O	-0.1876784839343748	1.7575613750109373	3.240973979559374
O	0.37412382006562517	0.38949111801093733	3.151086669559374
O	0.8674323500656254	-0.03067078698906267	1.663346069559374
O	1.573210860065625	-0.49873074498906256	-0.454981741440626
O	1.0249921100656252	-1.5034353649890626	-1.266735131440626
O	9.298094500065625	-0.08890664798906267	-9.828791140440625
O	8.025540330065624	3.2709877150109374	-8.650126800440626
O	3.5596177800656252	13.243856455010937	-3.754735810440626
O	4.121221440065625	10.081095615010938	-1.7502436904406258
O	0.4462884000656251	9.094071015010936	-2.041876810440626
O	0.5694196200656252	9.755562845010937	-5.790638670440626
O	3.7505963500656248	7.673882035010937	-6.0044639004406255
O	2.1475586800656252	4.924750385010938	-3.939920460440626
O	-1.1973750801343748	5.170489095010938	-5.654681050440626
O	0.2979438800656251	4.892505735010937	-9.074502980440625
O	2.354995230065625	1.9486216850109375	-8.114214450440626
O	-0.7608723329343748	0.14770630301093735	-6.671994480440626
O	-2.765783999934375	0.6193439710109374	-9.676171910440626
O	-0.07925176993437488	-1.0409226349890626	-11.828294850440626
O	0.14845976006562522	-4.026907434989063	-9.480131310440626
O	-3.540359559934375	-4.593276184989062	-9.871953440440626
O	-3.181882369934375	-5.644186764989062	-13.517856450440625
O	-0.5466298979343749	-8.162438134989063	-12.591518150440626
O	-2.672379019934375	-9.387024844989064	-9.695012660440625
O	-9.244453269934375	-9.450703644989064	-1.4326220194406258
O	-7.134881079934376	-7.095075694989063	-3.614802930440626
O	-5.962361419934375	-4.9902728749890635	-0.687080028240626
O	-5.0827306499343745	-7.885305634989063	1.5434664395593742
O	-3.198020439934375	-9.424318044989063	-1.4332349714406258
O	-1.2858606779343749	-6.307040954989063	-2.063977960440626
O	-0.4724574799343748	-5.8909503149890625	1.6250898595593744
O	0.7364126800656252	-9.458280044989063	2.151282329559374
O	3.0335530400656254	-9.028410314989063	-0.828254424440626
O	4.3781480900656256	-5.631782274989062	0.558476889559374
O	5.101845390065625	-7.363913074989062	3.938733429559374
O	9.950866700065625	-5.944109214989062	3.284818619559374
O	8.592994320065625	-1.1181496649890625	3.8911651595593737
O	9.767637700065624	-2.0348143349890626	0.39916878955937396
O	6.8716297000656255	-0.6025748249890626	-1.7194099104406262
O	9.377146800065624	-0.9832466149890626	-4.670368710440626
O	13.566018000065625	2.0526247850109374	-5.610761010440626
O	11.129699900065624	3.0125527250109374	-2.873174550440626
O	12.038083200065625	1.8406206950109374	0.5905370495593739
O	4.803286500065624	7.603398945010937	6.605329809559374
O	0.5376233800656252	11.658829855010937	5.005684179559374
O	-3.1093382499343747	8.911335475010937	9.321428449559374
O	-0.6886016379343749	6.757979365010938	7.348728429559374
O	1.983726900065625	5.9519680050109365	9.964656049559375
O	-0.7098526699343748	3.9537260050109375	11.751217049559374
O	-1.001475016934375	1.6539573430109373	8.745317629559374
O	2.8069255900656254	1.6276522280109373	8.355424039559374
O	3.168876630065625	0.5494572130109374	11.925175849559373
O	0.8404272200656251	-2.4244330449890628	11.403491649559374
O	2.511842470065625	-3.4867728449890625	8.144442949559375
O	6.013040710065626	-3.2328494049890626	9.645841649559374
O	6.794265850065624	-8.020102594989064	8.427541499559375
O	-7.844558639934375	-14.716823744989062	-2.734281010440626
O	-4.931691479934375	-3.7827572249890626	8.006801259559374
O	-6.870530399934374	-4.0341577949890635	4.793297779559374
O	-10.056870749934376	-2.7703382349890626	6.394639489559374
O	-8.261567379934375	-0.010693026989062604	8.179395859559374
O	-6.520892449934374	0.6949521533109374	4.857689499559374
O	-9.759000429934375	1.0533532280109372	2.960021149559374
O	-11.012556719934375	3.3568859750109374	5.728114989559374
O	-7.919213199934374	5.553571985010937	5.275969229559374
O	-8.086749659934375	5.448842335010937	1.4829129095593743
O	-11.710466799934375	6.311274915010937	1.505857509559374
O	-7.157033859934375	11.630750855010938	-3.581552010440626
O	-5.958088349934375	8.184931155010938	-4.625068920440626
