31

O	31.204700067639102	0.5008171113828075	27.160945641008624
O	31.016301569959325	0.3273229203043879	28.438188680067018
O	32.53607515502457	1.1797000210100066	26.928379960393347
O	33.24818047439977	-0.18056672224191667	27.00387711687053
O	32.28610267408776	0.7910559318300074	29.04122015452286
O	30.58170038872387	-0.6785943530769931	26.63377388888663
O	35.78253450165112	-2.542318434776251	29.707374791475257
O	29.939269610530904	-0.4694242143701793	28.706147473473443
O	30.640349724408843	-2.0164430253956795	26.825239530923145
O	36.41554979991614	1.1969207807588518	28.610208886375588
O	32.60879258923184	-0.5604669305496408	28.276219066444355
O	29.562760508455984	-0.7483179503026149	25.67524760962252
O	29.43741243020393	-1.6438740939557344	29.12131243153704
O	31.45718884676596	-2.6043329753763396	25.812018479305454
O	30.143827005185518	-1.351873745970376	24.523461749780196
O	28.68708680784469	0.1263205091549583	28.272008599521364
O	33.24087581026273	-1.2844825812525495	29.238414927567135
O	34.500805383270766	0.0805422307295009	27.724256818863644
O	35.52138400799687	-1.1739407882017152	30.239197688746398
O	27.544138483516566	-1.8452444116044626	27.779696008414795
O	37.193769177909715	0.16554365581372094	27.89419151999709
O	31.38428472902033	-1.9201541164263793	24.629021175576675
O	28.711076833880117	-2.420478081575567	28.270645667354266
O	27.75048804524754	-0.5393769701317173	27.55186976528823
O	33.73016212482219	-2.281296163126234	28.57379845271181
O	32.58853451227964	-1.4297288324111377	24.0942817351023
O	35.029657087003436	1.2435173266877602	28.193068748289846
O	34.316089686075124	-0.5906055891047364	29.813148019732566
O	32.899271696595704	1.5187374839642402	28.16725214451168
O	35.29085992724864	-0.7010301633177478	27.181947645716264
O	27.002398678905504	-2.4633309507518306	26.67117214735582
