86

O	3.2513275888476185	-2.1526924741746036	0.5067602823809523
O	-2.4784940411523815	1.0595915968253968	-1.6121377006190476
O	-0.8437307171523813	0.10459535482539672	-2.8017793876190478
O	3.0119020088476187	-1.6384750241746031	-2.5401632376190477
O	1.6403706588476188	-2.284784304174603	-2.383638597619048
O	2.9626420088476184	-0.5571278441746033	-1.5530483506190476
O	1.9275117988476185	-0.3181521541746033	2.1731471823809523
O	0.9098451588476186	-1.3316137641746033	-1.6784985266190477
O	2.1089906888476184	-1.8015652241746032	2.2040422423809525
O	2.1747311188476184	0.6075888878253968	-1.3576133866190476
O	2.4085591988476187	-0.043431352174603255	0.8057776523809523
O	-0.2640463401523813	-0.9228492941746032	0.6586771323809524
O	-2.2371950611523816	0.2752791218253968	-2.697254837619048
O	-1.7661341111523814	0.5458717908253967	-0.5180554586190476
O	-0.24399345315238136	-0.48876540417460324	-1.7372127206190475
O	-0.8529373281523813	-0.4440400241746032	-0.5486459616190476
O	1.8782595988476187	-2.477087284174603	0.7671821423809524
O	2.082535848847619	1.1154609448253967	0.049077362380952394
O	-1.0294275491523814	-0.7323695141746032	1.6818667023809524
O	-3.131804131152381	0.27635295582539676	-3.7558168376190477
O	-1.8843122811523814	1.3964600488253969	0.5404962723809523
O	1.0432417288476186	1.9585681658253968	0.11941549238095228
O	0.8419680188476186	-1.6667048141746033	0.5301880723809524
O	-12.54583602115238	-4.754034114174604	-3.3457506176190477
O	-10.39060536115238	-6.793471334174604	-1.0147625656190475
O	-2.9591766211523813	-8.388780124174602	6.137504032380953
O	0.037661539847618664	-8.499236044174603	3.839998932380952
O	-1.5397992681523813	-11.198055224174603	1.7301919323809525
O	-4.738237391152381	-9.135428704174602	1.6474700623809522
O	-2.8157310011523817	-5.976979684174603	0.6150393523809523
O	-0.5121977191523813	-7.845922274174604	-1.7904533416190476
O	-3.3993675611523813	-9.489415824174603	-3.5152505376190475
O	-5.277557191152382	-6.195507974174603	-3.8203686476190475
O	-2.2414771511523814	-4.447364714174603	-5.263971797619048
O	-1.6582447211523814	-7.229997604174604	-7.905752687619048
O	-5.2089676111523815	-6.823534204174604	-9.220430397619047
O	-4.823243151152382	-3.0137035841746034	-9.426388687619047
O	-1.7709359911523814	-3.4936296641746036	-11.650892217619049
O	-6.143569691152382	-1.8335345441746032	-14.321096517619049
O	-3.1688817811523817	0.5099191648253968	-14.070773417619048
O	6.186632718847618	4.587776595825397	-11.351098117619047
O	3.777838978847618	1.755721880825397	-10.494548437619049
O	4.203233838847618	2.064024235825397	-6.706410187619047
O	3.955493208847618	5.900344655825396	-6.706550577619048
O	0.7634780788476188	5.465781445825397	-8.781490407619048
O	-0.7423303495523813	2.968904475825397	-6.4170477876190475
O	0.13159445484761867	5.2304432758253965	-3.5048641776190474
O	-1.2547581401523813	8.395577475825396	-4.828681207619048
O	-4.463426061152381	6.515704795825396	-5.538185437619047
O	-4.669379371152382	5.234018755825397	-1.9526705676190477
O	-4.051492421152381	8.697730745825398	-0.5181561936190476
O	-8.487811571152381	8.050960185825398	1.9614025923809524
O	-6.323784421152381	4.480307385825396	4.829787372380952
O	-9.019908931152381	3.2367548858253965	2.441080382380952
O	-7.300656231152382	0.3561852458253968	0.7257526223809523
O	-10.635030251152381	-0.8226018341746033	-0.4968408986190476
O	-14.24384662115238	-3.1006928441746036	2.5671756923809523
O	-10.762052721152381	-2.510665654174603	3.954678022380952
O	-10.38178410115238	0.7031881818253968	5.931798192380953
O	-0.46238146815238135	-1.2208584741746031	10.555376782380952
O	0.5323849588476186	-5.719940924174604	12.851455582380952
O	3.3543397088476183	-6.079994554174603	10.348952582380951
O	8.05165079884762	-1.8119443441746033	9.954027282380952
O	4.707341148847618	-1.0163311241746031	8.256406642380952
O	3.2234934188476183	1.6727298308253968	10.504078682380952
O	6.0983155288476185	3.894155245825397	9.337362982380952
O	4.742227938847618	3.688227335825397	5.740536012380952
O	1.1690418288476188	4.073363095825397	6.978140072380953
O	2.1710285288476188	7.199618175825397	8.893135482380952
O	3.630456788847618	8.782383655825397	5.746855952380953
O	0.6085046388476187	7.865768195825397	3.6080833323809522
O	-1.8408089511523813	9.197838855825397	6.216185922380953
O	0.08754824384761861	12.445473675825397	6.450141292380952
O	-3.751662291152381	12.272103875825398	2.7504518723809523
O	7.1528584888476185	6.810213905825397	0.2346407323809523
O	7.547431258847618	4.718635295825397	-2.9003908476190476
O	11.25395337884762	4.263316055825396	-2.309336117619048
O	10.787378878847619	3.518003175825397	1.3404020823809524
O	8.089452928847619	1.2274848238253968	0.30758308238095244
O	10.222879078847619	-0.7752053541746031	-2.1136318776190475
O	12.75670157884762	-1.0500661241746032	0.6643835223809524
O	10.16458807884762	-2.552524004174603	3.0240791223809524
O	8.78137674884762	-4.877836984174603	0.3341251123809523
O	12.22058047884762	-6.101299404174603	-0.5247101016190476
O	6.596201808847619	-12.636792324174603	1.1967492023809525
O	4.579273078847619	-10.387309024174602	-1.1845281446190477
