19

O	27.872862515945393	-0.42567080412646363	28.138528039773217
O	27.758688404135448	-1.763652718008252	28.020052550934714
O	28.69952334216431	-2.788153721720476	28.387971746385666
O	28.862893987850992	-2.5617443005821885	29.874927390328132
O	29.66989561964486	-3.254288714277209	27.480504999988742
O	29.837371306356374	-2.6464193738998434	26.204783512115885
O	30.822094383223117	-1.5071513448341898	26.274680300529823
O	30.77299890008029	-1.3023128110481832	27.72852916966916
O	30.686300458613218	-0.11644277057457936	28.60567735554814
O	31.529532848012146	-0.47966457836770426	29.912314123842428
O	32.791889140387624	-1.2449181562619638	29.265503265741845
O	33.18664861967533	-0.14799593021398855	28.37817721977955
O	34.14754106359929	-0.45245495104169803	27.54253606629679
O	31.803666207556724	0.39107243019335375	27.941066672532024
O	31.67894543868676	0.28614693542734065	26.524218345404304
O	30.43914500341271	-0.15483079343655975	26.053344691966704
O	28.597120030523882	-2.0960499815208293	25.90048471130589
O	27.454826487741734	-2.2713102993371557	26.69293548208906
O	26.017910147970998	-2.188424068322394	26.42876613436878
