34

O	28.092874228403105	-1.6368339729887416	26.47495100897447
O	26.76978636725001	-1.3891703124992547	26.127987521051203
O	25.88176011535871	-1.319397754379268	27.128382031058138
O	24.602060352221976	-1.802859039158278	27.20464003907392
O	26.326959100315193	-0.4578201396595105	28.079576310619043
O	27.661081647098754	-0.1383857921856304	28.21022060575506
O	28.49682205932289	1.224715597840735	28.87538951707317
O	30.062125220946584	0.6678274972811341	28.558832206527008
O	31.36786962991925	1.2921672164238096	28.874911016160667
O	31.854977665072123	2.18290290358686	27.964128418299026
O	32.93724518040834	1.551747693554022	27.33917190680946
O	33.94554618230133	1.2136139736851326	28.172461547548668
O	35.28196065362428	1.482555810177605	28.143472905370764
O	33.46302986433382	0.7009286947878437	29.346275963546777
O	32.23915591952965	1.0844840851746778	29.885279643361557
O	28.61320550796306	-0.7675424266354793	27.393202144974776
O	29.796149368883505	-0.591245100643743	28.01030132636022
O	30.990085599586724	-1.4372869544062457	27.863573771575478
O	31.538420107874085	-1.6911280805960869	28.944275241618364
O	31.597846017146008	-1.53124927939071	26.572107687140463
O	32.77345749082542	-2.1689241674633415	26.39335698003463
O	33.05139498703987	-2.739850773233104	25.13942103071854
O	32.275096064551484	-2.524681441231448	24.046085957839058
O	30.932247334802515	-2.4911225751748143	24.428305348492533
O	30.721058084316226	-1.7086620176617469	25.560386397569804
O	32.457901417970504	-2.8428790192977833	22.73861914342967
O	33.013309418376735	-3.9404823359198557	22.147982505107066
O	33.52076061502678	-3.4141096060219494	20.80957525678992
O	32.38259774845623	-3.6538400277087764	19.964702363596857
O	32.396769304376	-2.6462353517564305	18.99445656549051
O	31.610222341734435	-2.8504574299518057	17.747728557336647
O	31.128925974479287	-4.256533593724976	17.75430072695697
O	32.316939350224715	-5.099788890923355	18.093853663235755
O	32.579978967551455	-5.002341100044037	19.54196855787307
