32

O	31.803355448770933	-0.9105952394802052	30.462261130420192
O	31.5385166549248	0.5593856212944806	29.957025754535184
O	32.560368715107664	1.5638311202698056	30.300107688325518
O	33.37161969297155	2.016563182712565	29.296942245235538
O	32.49618139405069	2.4484298773828126	28.360393638429738
O	31.247843168425664	1.7669217774214354	28.143148821119702
O	31.077876377655926	0.41268691551469333	28.676272042004676
O	29.989921933953173	-0.3603226813463994	28.2247480473391
O	29.91299940947981	-0.4546053460000349	26.867907712144305
O	28.84787757358466	-1.2195314794959264	26.372705168854168
O	28.269320183311024	-0.7985979691522638	25.336285739213928
O	26.942564143485622	-1.3932227452842711	25.169103749225986
O	25.96086935805871	-1.5636925246419888	26.094929670977788
O	26.602560006987176	-2.1099814418778107	27.16710721339159
O	27.972155672478383	-1.872983231943083	27.16720137487159
O	28.797789314666005	-2.2927935524477094	28.078969123208687
O	28.92434575199279	-1.094837599423848	28.7777047965197
O	29.417552486627628	-1.755464042584789	29.768434816219337
O	24.80186567172609	-0.9005381563542585	26.603854712473936
O	30.96066192964739	0.1352144579271418	26.222025893979875
O	32.24455668119539	-0.4318183910132213	26.781339192823005
O	32.54383465516933	-1.6843024675345355	27.203221667202392
O	33.33030654013913	-2.4704917587889246	26.323676074492585
O	33.95238669675076	-1.8747637223578886	25.19272269310245
O	33.557182224397465	-0.6355369701879976	24.952500369279395
O	33.312117136410855	0.15522996910502143	26.095289334782397
O	33.798089435376056	-2.75725439184109	23.97153947084649
O	33.10959090205671	-3.0033084028981594	22.87945943348441
O	33.6658265084073	-3.3632255588143356	21.568911325881363
O	33.0349190647249	-4.284361000867958	20.966485920607635
O	34.28205205301508	-2.6407933424074415	20.57946315991793
O	34.603312995975415	2.544080837760895	29.329625340802394
