32

O	29.481947521645147	-1.7129068745740303	28.71259126780592
O	32.58874615088227	-1.4331759474789494	29.238579128378593
O	26.832913827192275	-2.938917429040133	26.927900878349952
O	32.93383530683511	0.11601380826430074	30.205803846285963
O	29.099727535895255	-2.719138012967098	27.80015609298638
O	32.807855877830555	-2.145346412874444	23.319962818649426
O	28.122516488635338	-2.4754073698490853	26.891153537273173
O	31.849649096577952	2.181882966761432	28.180567785900756
O	28.01560731835698	-1.2119334203264143	26.54658531792498
O	34.360829814614	0.6458854837250514	29.906638628637047
O	28.46945169501986	-0.23292720478241408	27.472875644684727
O	34.24655282810893	-0.4903037609864758	30.548264020084034
O	29.68647610052703	-0.555223760502856	28.05866347870278
O	30.632849955028085	0.45538406371707524	27.955385276548018
O	31.58545267952821	0.42304307921535106	27.074543788550674
O	31.300187218102725	-0.46667300696362507	26.07259712156662
O	31.099414114122713	-1.817786886827665	26.38434095669895
O	31.418344593789055	-2.659993204705608	25.31718344048266
O	31.714417768555467	-2.0368322390514857	24.145166020274846
O	30.695656005478433	-1.0997165699087401	24.037741515305292
O	30.232041081313042	-0.4532531404090871	25.255709639425042
O	32.64914702042662	1.1935843201268823	27.464801032032554
O	31.19603985560714	1.2025729894730262	29.013348055524652
O	32.05007943136457	0.13446618976727615	29.191504069477165
O	33.28011018965008	1.0277871072198619	28.691339483561315
O	32.18354110729075	-2.3622153240258994	30.239671635227616
O	33.40932651374403	-1.4246710373761875	28.130588269446093
O	34.59265229198607	-0.79797981779994	28.404250728175196
O	35.63090714773385	-0.31639688029402674	27.68534027976954
O	35.253463676362045	-0.3631538842127879	26.338091922841894
O	34.358173791987596	-1.3012879635442571	25.98283340682897
O	33.80701649265531	-2.028396010731456	27.05053837539123
