86

O	-0.4044594405953129	-3.436639266374999	-2.6456941195156247
O	-0.027406154595312926	-2.122922916374999	-2.2626194395156247
O	-0.33164571659531283	-0.9874502963749991	-2.8624816295156252
O	-1.350303040595313	-0.21181869637499906	-2.222551849515625
O	-1.2253811675953128	0.00915354762500098	-0.842486487315625
O	-0.8430894948953129	1.4528518696250008	-0.358069489515625
O	0.30155490740468704	1.153019397625001	-1.131170262515625
O	1.4004685574046871	0.4182113606250009	-0.960855857515625
O	2.5008787974046873	1.331146699625001	-1.152255697515625
O	2.528164167404687	2.282326953625001	-2.170347099515625
O	3.6836314874046874	2.1134167436250006	-2.889194209515625
O	1.288712017404687	2.512805953625001	-2.618747219515625
O	0.23233641740468713	1.545889995625001	-2.392795189515625
O	-0.3917930415953129	1.262450761625001	0.813485400484375
O	0.35941383740468713	0.20520384462500096	1.5143216504843748
O	1.053031247404687	1.153421181625001	2.549257600484375
O	1.371631387404687	2.540572063625001	2.093294200484375
O	0.19469977740468702	3.407984663625001	1.7654017104843749
O	0.3751810974046872	4.0581622336250005	0.40904272048437496
O	-0.9160441474353129	2.3957172036250007	1.7093531204843748
O	-0.7817012725953129	-1.0906763363749992	-0.17212487951562505
O	0.01723615240468712	-1.8974726863749989	-0.949887439515625
O	-7.480298862595313	-5.627766016374999	-9.757008019515625
O	-7.962874972595313	-1.9391531363749992	-9.088154529515625
O	-8.875485202595312	9.507892403625002	-5.717917689515625
O	-8.098163082595313	6.733834043625	-3.263792469515625
O	-4.358911352595313	7.515345053625	-3.372729639515625
O	-4.482977202595313	7.546329443625001	-7.173864499515624
O	-6.355078962595313	4.234206173625001	-7.097174329515624
O	-3.8382122225953132	2.822055053625001	-4.626810249515625
O	-0.8433026134953129	4.351782353625001	-6.326377019515625
O	-1.8049442925953127	2.9757967736250013	-9.689244969515626
O	-2.368696842595313	-0.433580196374999	-8.322172199515625
O	1.106600597404687	-0.41680162637499896	-6.639729249515625
O	2.898556727404687	0.557941701625001	-9.635854389515625
O	1.4280573074046872	-2.4131677463749988	-11.547149849515625
O	2.4092567474046875	-4.843600056374999	-8.784185669515626
O	5.975208477404688	-3.691574346374999	-9.067975489515625
O	6.400045217404688	-5.251273376374999	-12.514994349515625
O	5.141463927404687	-8.556715566374999	-11.238339849515626
O	7.369140457404688	-8.272488846374998	-8.174005079515625
O	12.596551327404688	-4.2275910163749995	0.061406743484375026
O	9.810856227404688	-3.4083698663749997	-2.462079559515625
O	7.615879717404688	-1.7386177863749992	0.10915460848437497
O	7.976037457404688	-4.396221606375	2.7436594304843753
O	7.2306654974046864	-6.999514836374999	0.011485872484374937
O	4.175910387404687	-5.2380676963749995	-1.108385678515625
O	2.981164917404687	-4.776496576374999	2.4951084104843746
O	3.485521427404687	-8.411202426374999	3.533872000484375
O	1.463057137404687	-9.446031666375	0.5065232804843749
O	-1.3745243635953128	-6.898311826374999	1.362664470484375
O	-1.4832685365953129	-8.305037686374998	4.959395280484375
O	-6.387159832595312	-9.382064066374998	4.071706100484375
O	-7.419366242595313	-4.4358536563749995	3.9574142204843756
O	-7.7886715525953125	-6.2350055663749995	0.638882860484375
O	-5.719333172595313	-3.939393176374999	-1.6645998435156248
O	-7.538249012595313	-5.788501296374999	-4.531572579515625
O	-12.559609872595313	-5.150460766375	-5.933149729515625
O	-11.036099172595312	-2.8364477663749987	-3.352670209515625
O	-11.578941772595313	-3.8489783363749996	0.23365213348437497
O	-8.214663802595313	5.324116733625001	5.3603454904843755
O	-6.1247071125953125	10.649358303625002	3.202323860484375
O	-1.9903276525953129	10.528128103625	7.9450144904843745
O	-3.0288991125953126	7.260485123625001	6.303147660484375
O	-5.236385702595313	5.630206133625001	8.979009590484374
O	-2.049055152595313	5.333428903625001	11.039959350484374
O	-0.5257728575953129	3.063809953625001	8.412659910484374
O	-3.8667662825953126	1.232413974625001	7.9877226704843745
O	-3.964940692595313	0.575019836625001	11.678372850484374
O	-0.5067479225953129	-1.0325589063749991	11.607964650484375
O	-1.2650384455953128	-3.136622736374999	8.511860510484375
O	-4.585845472595313	-4.338447666374999	9.949649750484374
O	-3.022065392595313	-9.062786256374999	9.486355750484375
O	13.860509627404687	-9.659966966374999	-0.451083973515625
O	5.487447427404687	-0.013989105374999089	8.516552220484375
O	7.547403567404688	0.2351908186250009	5.386380400484375
O	9.689622227404687	3.0150801836250007	6.801044640484375
O	6.717379357404687	4.854379113625001	8.139612040484375
O	5.083142857404687	4.237337153625001	4.734608750484375
O	7.943695707404688	5.7833907436250005	2.8327305304843753
O	7.854137227404687	8.755312243625001	5.2251647404843755
O	4.158382947404688	9.261525743625002	4.435677060484375
O	4.602144177404687	8.687377403625002	0.698013870484375
O	7.4443570474046865	11.127301633625002	0.6097989004843749
O	1.3530607874046872	13.035594233625002	-5.236660189515625
O	1.9301282274046871	9.318020833625	-5.751213799515625
