85

O	3.4469811015290324	1.8538591732419356	-4.727934705596774
O	2.241362661529032	1.1469670802419356	-4.547810525596774
O	2.3267221915290324	-0.026359004758064408	-3.8630068455967743
O	1.5012865415290322	-0.20831387675806434	-2.7395326555967747
O	0.3630857495290323	0.4313026962419356	-2.4654053655967747
O	-0.2850138194709677	1.0101014782419355	-1.2597856879967746
O	-1.0720340014709677	-0.2763438567580645	-0.9181555605967746
O	-0.42580424437096775	-1.4310678067580642	-0.4461828245967746
O	0.09149724352903221	-2.218140916758064	-1.4831842085967746
O	-0.5073707425709677	-2.3674665767580647	-2.6793266955967745
O	0.3565201455290322	-2.5880324167580646	-3.7582042155967743
O	-1.295461872470968	-1.3366201267580642	-2.9674689655967743
O	-1.9171844284709678	-0.6548962167580643	-1.9174715135967746
O	0.4999832885290323	1.0638147982419357	-0.18365934559677455
O	0.8689023415290323	2.1852994732419355	-1.1693489343967747
O	2.198761841529032	2.240719323241936	-1.4333923445967747
O	3.002624001529032	1.7666497872419358	-0.1993062755967745
O	2.184331341529032	2.2598973932419355	0.9543150044032254
O	1.570658061529032	3.603921353241936	0.5933800344032254
O	2.6227750115290323	0.4122434402419356	-0.6975558815967746
O	1.3747917615290324	-0.0005879627580643865	-0.47908922259677456
O	0.01244451952903225	1.0087394062419357	-3.569387085596775
O	1.0156770415290324	1.7204638952419358	-4.349893935596775
O	-12.503445598470968	-4.002115666758065	-4.423511065596775
O	-11.479350398470968	-0.3604057367580644	-4.571772075596774
O	-7.2484950984709675	10.813412493241936	-4.1859688755967746
O	-6.215661038470968	8.192358833241936	-1.6557966345967745
O	-2.956286458470968	7.5419057332419355	-3.5366244055967746
O	-4.864182998470968	7.223113333241935	-6.7857973955967745
O	-7.2902720584709675	4.860332793241936	-5.039894755596775
O	-4.420496448470968	2.8449148032419354	-3.6068904455967745
O	-2.390597918470968	2.994127323241935	-6.800192535596774
O	-5.208545928470968	1.7855221802419357	-8.908318765596775
O	-6.013534158470968	-1.0603884367580645	-6.569873345596775
O	-2.3800638884709677	-2.146447066758064	-6.693756375596775
O	-2.021393918470968	-2.1857001867580648	-10.283627065596775
O	-5.026461098470968	-4.555837636758064	-10.578024595596775
O	-3.5828026384709677	-6.931832906758064	-7.970987355596774
O	-0.40562760547096777	-7.195331486758065	-9.994435615596775
O	-0.13140644947096775	-11.847013086758064	-8.620338555596774
O	9.316754521529031	-9.330765586758064	-4.680451065596775
O	6.053975801529033	-7.726951376758065	-5.903258025596775
O	5.948064671529033	-5.096180636758064	-3.1625094555967745
O	6.790391841529033	-7.575627936758065	-0.32145484459677454
O	4.0387264415290325	-9.864488886758064	-1.7638656965967745
O	1.4498120715290321	-7.1311140167580644	-1.8742802765967745
O	2.392726461529032	-6.060946656758064	1.6666316744032252
O	2.212375671529032	-9.467100186758064	3.2227301944032254
O	-1.2200998114709676	-9.866643686758064	1.6596486644032253
O	-2.407061168470968	-6.4708141067580645	3.0459229944032256
O	-1.138632181470968	-7.389192756758065	6.543652714403225
O	-5.924257138470967	-6.653120976758065	8.110845024403226
O	-5.417832858470967	-1.7128054967580646	7.206175344403226
O	-7.859304018470968	-3.5441898867580646	4.933397854403226
O	-6.657884578470967	-2.419867186758064	1.5076646744032256
O	-10.006780658470968	-3.703147826758064	0.17882276440322542
O	-14.657587898470968	-1.3244458867580644	0.9365310144032255
O	-11.458832598470968	0.4603367782419356	1.9358106644032256
O	-10.493686678470969	0.052313823241935564	5.561448804403225
O	-2.563592298470968	7.704857673241936	6.267777694403225
O	-3.300180108470968	12.472079213241937	4.413617654403225
O	-0.35351770447096775	11.648753913241936	2.1414538644032257
O	5.324791461529032	10.368871513241936	4.540370254403226
O	2.729960181529032	7.630766743241935	4.433345124403226
O	1.7286838515290324	7.201232993241935	8.109787034403226
O	5.269020271529032	5.911411893241936	8.635373794403225
O	4.6079190515290325	3.0122922432419355	6.293021004403226
O	1.1040269415290322	2.5318769532419356	7.777297274403226
O	2.613453531529032	2.3027405932419356	11.230420164403226
O	4.974531431529033	-0.4852950967580645	10.111462064403225
O	2.247450981529032	-2.4240717667580647	8.279161464403225
O	-0.14648017247096773	-2.1671906467580646	11.247473264403226
O	-0.45751297927096773	-7.170190016758065	11.380711164403225
O	8.778875121529031	-2.0804571067580646	4.662837464403226
O	9.003317601529032	-2.8773751067580644	0.9572956244032256
O	12.295876101529032	-1.0017787667580644	0.6311348844032254
O	10.992864501529032	1.9279552532419355	2.5579740744032256
O	7.858953371529032	1.6766604502419358	0.44503512440322535
O	9.742164901529032	1.8571986232419355	-2.8290042455967743
O	11.631239101529031	4.833608683241936	-1.4624438115967746
O	8.353432271529032	6.609886913241936	-0.7373826525967746
O	6.791363251529033	5.593002013241936	-4.060839745596774
O	9.846659101529031	6.850492933241935	-5.907337695596774
O	2.4702796215290324	10.323936953241937	-8.976681675596774
O	1.6341764215290322	6.602870163241936	-8.719512325596774
