21

O	27.20753888871292	-0.8294637832696756	28.567514011914543
O	26.506557487286674	-1.9219080600964922	25.595627263033894
O	31.898830674419628	0.033418079234733805	27.623296713405956
O	28.04902557040054	-1.84785268963682	29.02508385300281
O	25.955371347361133	-1.3127193816273954	28.337086923925277
O	29.108644974614784	-1.3411979482433942	29.7719077976785
O	30.00116237613854	-0.36026211910911055	29.16372841097376
O	29.188979499838023	0.2401414420905893	28.23776226566094
O	27.812739802922476	0.41782285436865096	28.35469617834478
O	31.258478239507426	-0.6315286176626689	28.95374489048519
O	31.719669770780033	-1.2482498911129642	26.853892306704363
O	32.26267030108846	-2.19782405518498	27.63758855438926
O	31.849560515524097	-1.8589452801370923	28.895931883098232
O	30.592131771396794	-1.411448432595988	26.28011461871087
O	29.709836151030206	-2.5441814220820915	26.418976758273956
O	28.429347232083757	-2.6110234668226746	26.133287436417373
O	27.807593678448214	-1.4755597345993463	25.750520313487655
O	28.62782885209178	-0.3963273117194591	25.418851777028507
O	29.98914853690497	-0.7463652240392025	25.329578775071248
O	31.193338743255016	-0.20572743149113096	24.542769289506957
O	30.114118393016877	1.3582632132686172	27.681139232328665
