24

O	30.832917629933377	-0.9169774065551074	29.648884797957532
O	32.7657266896282	-1.3208666612754683	23.19317654785729
O	32.183342939952546	-0.20650629347155502	29.43926424200973
O	35.42339767537128	-0.7349986882392366	26.131363597658574
O	33.46172984245897	-0.23488243372718065	29.977094100548644
O	34.46645212461103	0.47553126356580466	29.379233906256825
O	34.12467636396943	1.6819503180610953	28.81735806526291
O	32.762191327877204	1.9440623448575685	28.70838669943691
O	31.82465730614995	0.9049424041169071	28.7604724312971
O	30.401288750566465	0.7350850914293184	28.203655515378603
O	29.939160876344868	-0.6499902760005756	28.536756153200667
O	30.221336404729353	-1.3331370786251138	27.565333738574886
O	29.799256356163795	-1.6416623756812578	26.237928136683593
O	29.864646004358054	-0.6727718873951303	25.291982826471934
O	30.71837348826313	-0.6832700597905399	24.140778497483712
O	31.53889128260545	-1.7008809008996888	23.778012095107684
O	31.593655628583672	-2.6378757109297806	24.719529005453616
O	30.64154662243611	-2.6160085384500706	25.793262499360825
O	31.49647244448819	-1.1057316905918575	27.5104751108434
O	31.79538425752582	-0.21432460260985717	26.529492521111983
O	33.1815068305257	-0.01748571131044191	26.100551122913238
O	34.09052835143583	-1.006471059541815	26.34477397465838
O	33.62866778574768	-2.0181915780233455	27.14076555212933
O	32.20884324894071	-2.144876065307484	27.403971671522367
