20

O	30.868791384741726	0.354969383578162	28.33424074401706
O	35.32044357374815	-0.6877084657100784	27.500819143283586
O	32.174495558112596	0.029247189623714143	27.602297314990174
O	26.382030710023805	-0.8192436335974553	26.945723679976794
O	32.92520122745904	-1.1747301187882457	27.653118187129547
O	32.19213169797861	-2.327779812126091	28.23112308052567
O	30.966554618568424	-1.9155482811599356	29.09786491837097
O	32.69035971931251	1.3212862960096923	27.974006288372774
O	33.823603834273825	0.6873066271587902	28.8149826474424
O	34.17848725421574	-0.6609900996009516	28.26527648873535
O	33.36902504924527	-1.5432747528406932	26.26207731763481
O	30.381303451347318	-0.7302337145981486	28.726529844327036
O	29.608694813559822	-2.550820042410891	27.18215661735214
O	30.33487860143895	-1.4386684765545785	27.3390181798383
O	30.11306086688311	-0.4925343786311842	26.5457863940568
O	28.60255629396719	-0.3385935724916471	26.330591188178317
O	27.711019229284105	-1.2530572276252074	26.879104767639767
O	28.163489637869908	-2.5210117173491713	27.005197697253543
O	30.784034200184543	-0.18582855862063097	25.516510854015188
O	28.335031857267555	0.7536690610576633	25.6269255829449
