20

O	28.51459670555136	-2.079661782043474	27.62134461031774
O	28.14545836542187	-2.264669302673445	26.275103704181607
O	29.071380491595328	-1.7488748035281594	25.374656770106004
O	29.925656204485428	-2.375743590468156	24.45715085160689
O	29.515975069131237	-0.5074040917956116	25.76475659694624
O	29.393216949022847	-0.08221721778388136	27.04913487546957
O	29.890426712000554	1.223598396728093	27.32031162822502
O	30.83925596490821	1.322962094310494	28.384214344536755
O	31.288617766515134	-0.03306091029407132	28.594749550446828
O	30.314497614035545	-1.0320256591433463	28.876539384929394
O	29.088139869857763	-0.9227460997068015	28.072759424556978
O	30.939829709226085	-2.325506138887749	28.694119868194477
O	31.81170828504082	-2.561084361864695	27.525628722264987
O	32.71817291055508	-1.4394756283827463	27.268997613145295
O	31.88508811157503	-0.22597345612376563	27.28963878872225
O	32.942576588454486	0.8054637695287321	27.19090036579058
O	33.61235810465757	0.4549584994633171	28.474524309906368
O	33.85375385369288	-1.0678773350835005	28.129246589850695
O	35.106638075279385	-1.0234313250506506	27.56072489929757
O	33.094812366065234	-1.1706758057234377	25.83886770466746
