17

O	32.01829187119567	-1.2746399308961178	26.772047934942282
O	33.1816671958786	-1.5071598517429339	23.12434196585786
O	32.00951357713021	-1.0268462487524295	28.26038700720998
O	27.005433522236604	-1.3693302844419133	26.239083766334108
O	32.39301314055854	-2.3072370534956232	28.87399259913855
O	30.584245699580897	-0.8479992744510321	28.384499332529895
O	33.21817252317892	-0.3249038254479993	28.196820045268673
O	31.346470598164952	-2.398078433767998	26.29559654779794
O	32.08163628988902	-2.6561577401332617	25.058785450160286
O	32.28634591406337	-1.6525128781125973	24.164705130027198
O	31.762341341758578	-0.4622277519289827	24.649523956170253
O	31.30747064955386	-0.3421820277923534	25.977982155964643
O	29.81910135077737	-2.010003752215745	28.38124251735795
O	28.760263938848134	-2.1763663805485645	27.498129085327705
O	28.326708126361567	-1.2948616637198491	26.584801204767423
O	28.84323500386975	-0.10958541059607041	26.955184261459543
O	29.88789846589415	0.1994248854205115	27.77808311003255
