26

O	26.262725277826075	-2.8158601535846195	26.772949532013733
O	27.58003211176171	-2.545674991096719	26.947209771341885
O	27.80008145100422	-1.3077976195578191	26.65328785661319
O	28.326084359602852	-0.47889340733695573	27.688181511934292
O	29.31574519211719	-1.049420032103893	28.516820004529233
O	30.803763445340525	-0.7198261646202072	28.26029412593432
O	30.714152137243172	-1.3050211948776353	26.946077485202736
O	30.134538795192086	-0.9312487686028238	25.77211809377887
O	30.594406657778475	-1.5677208447576887	24.620365987977316
O	31.89524974070379	-1.9548854878552397	24.6425297204813
O	32.89225883590879	-1.4711763885895843	23.78964739633605
O	32.14763842037406	-2.6315483485562092	25.808024128224478
O	31.22877779022085	-2.4882342898661753	26.910923336969173
O	30.538604297705444	0.6420994159895983	27.80457155258325
O	31.1451908731458	0.9783097691624821	26.521710927860152
O	32.53581768928626	0.5149504922952294	26.465181040057224
O	33.228983463887594	0.6318976221344693	27.720619159066864
O	33.94582105409501	-0.6007775585924341	27.6416193614899
O	34.225879189122296	-1.1209018694420352	28.94884262766208
O	34.98126795244453	-0.247334611771152	29.754633252405146
O	35.19056766113828	-0.6105567179306933	31.117931098265046
O	33.34710213222543	-1.7736935924086907	29.529924942583946
O	32.537348574692025	0.6607145402188664	29.004548945003002
O	31.24441088912264	1.373863337033518	28.788524300682806
O	29.141131114499277	-2.361185039843022	28.694193872744034
O	28.577490802484558	-3.0879462670627777	27.647573711525965
