21

O	34.18388109493753	-0.8433957304198991	27.80825643339088
O	32.75326526142432	-1.1592508145257732	27.540852314183486
O	34.14296923207652	0.594956937589515	27.97820048158327
O	32.29355601792596	-0.4072520385543468	28.741328278636303
O	30.978069909373065	-0.22970675643885616	28.314489264433593
O	30.339343011939803	-1.3640932711214955	27.948585410024492
O	29.018330600733208	-1.2429985087273931	27.714485814878014
O	28.61777960398508	0.01621934197912081	27.378085981316758
O	30.856267160376987	0.7067849961639	27.27040268232879
O	30.84934998412653	-2.615200288353468	27.4135131950777
O	28.133218025277174	-2.0005918208732654	28.389359282489075
O	27.257778312954862	0.10869727740701166	27.405728372342203
O	29.563062106579498	0.8266490852826519	26.84185631382581
O	26.85248215837665	-1.9984545817875876	27.98720730084776
O	26.325943655490057	-0.8848257388638276	27.394173665444423
O	32.29363898338195	-2.510352421401303	27.63778211564494
O	32.98219282667226	0.887028360661464	28.73668222174466
O	32.52628577338189	-0.6266996603295687	26.232676852774908
O	34.33462662976366	-1.5451142429690574	29.080091524893763
O	25.518792175328745	-1.3806917528314795	26.336822411579735
O	34.7349722745213	-1.4068950595544312	26.749503525350416
