20

O	28.424242708756804	-2.274976639326732	28.139863306716357
O	27.764439338171233	-2.3403926655117844	26.89184742931819
O	26.79538135259278	-1.3453886662644157	26.79173912131143
O	26.404038860677396	-1.543507357093758	25.442966677283117
O	27.27795317380649	-0.06945461138286402	27.191526575047828
O	28.456013962158426	0.07571073955415575	27.840586722165916
O	29.182433387163037	1.2796094691065778	28.20696239673249
O	30.4301123477291	1.4094335344771813	27.490517708884024
O	30.885022758410532	0.022135359355811235	27.261367634011627
O	30.518378412903417	-0.9616201020949808	28.37024321929714
O	29.05571343759826	-1.0668097345495087	28.34850172267109
O	30.972060113330055	-2.2099103315488056	27.61975004937456
O	32.39416596385682	-2.278002188583182	27.92294531793158
O	33.061841908252426	-1.0488518740262074	27.438455971203574
O	32.290020059286284	0.1839879720982649	27.461936933889625
O	32.57081859941929	0.9219901653646649	28.65787930415657
O	33.989279251522994	0.6338281518617157	28.862080740313086
O	34.251925296841584	-0.6709167155942528	28.20940354480863
O	35.47716134712188	-0.8439004877138896	27.623767168778233
O	33.213601434439916	-1.1526468819907576	25.952345172401635
