30

O	28.434097147093276	-1.9945874298144688	24.385401000994474
O	28.074774700210494	-2.3980775198832927	25.640489909333777
O	28.603259055254018	-3.229015206669727	26.623366029553566
O	29.317387751473202	-2.659818260377699	27.740181573334663
O	29.12975046891756	-1.339041470480873	27.877962368711078
O	30.302738673177483	-0.4102984097503521	27.701140665361546
O	30.80942948319176	-0.9927417001788628	26.487804131112828
O	30.907043463843028	-2.3028133311047667	26.09271546060684
O	31.43368625488823	-2.81966792647941	24.92127863247977
O	31.919092807864608	-1.9859676347397432	23.991836725832574
O	33.065762467402976	-2.101554681411284	23.23724476065845
O	31.349405601801596	-0.7752303231528985	24.144729036488485
O	30.711281054268245	-0.2937070173367278	25.32677083309145
O	30.616246948569877	-0.701030821454055	28.997035810425096
O	31.57833336927761	-1.7554703494522161	28.979483039992626
O	32.569135230526285	-1.243375306244478	29.847211539482224
O	33.82386248880156	-1.7553299413252257	29.675462936711774
O	34.32291696720295	-1.6325363531447776	28.37588224148068
O	33.44277105372309	-1.8164292153475883	27.360601693464194
O	33.22974006369061	-0.6779584050729663	26.503998292998382
O	33.531777197825214	0.5451256872781789	26.988085011002056
O	32.77662665415151	1.384043359754334	27.755093343266683
O	33.14321130805741	1.9704741592061092	28.934992334463228
O	34.52650397149299	2.115294623130361	29.085140425582846
O	35.39747558567891	1.3898741013927884	28.33383166945758
O	34.79831944256799	0.39949751950917584	27.59687273213357
O	32.22053843111057	-2.2034728366323497	27.893896469864053
O	29.780928730449975	-1.0699170183083564	30.160356009282527
O	27.944801250916413	-0.892730507279228	27.483513188958664
O	27.336360855083093	-1.6559745251485476	26.432329976091097
