83

O	-1.9637623592187499	1.2549489880312503	-2.7115957755468747
O	4.89396543078125	2.75566899203125	-1.0573904616468748
O	-2.67417649921875	0.38202511103125025	-1.847058336546875
O	-3.85087349921875	-0.011242079968749819	-2.3777406755468746
O	-2.08596632921875	-0.028989200968749795	-0.6207177725468748
O	-0.65447785991875	-0.02516415696874974	-0.8739238180468748
O	-0.24278631421875002	1.2462122570312502	-1.0713996525468747
O	-0.71224035301875	1.4819085540312502	-2.340397875546875
O	0.5063907707812499	1.6994662220312502	0.035302448453125246
O	0.69754999078125	2.95573675203125	-0.7146221625468748
O	2.19700678078125	2.92518648203125	-0.8087983025468748
O	2.8088219307812503	1.9285347130312502	-1.691328306546875
O	1.83824425078125	0.8309737070312502	-1.877948440546875
O	1.5374978107812503	0.6713951300312502	-0.23014287954687473
O	2.33751606078125	2.4692386120312504	0.7008308344531251
O	3.52044034078125	1.5502465220312502	0.5313480544531253
O	4.02075651078125	1.6989467870312502	-0.8884158111468747
O	3.12665616078125	2.77921382203125	-2.8059924655468746
O	0.41793920078125	-0.9294424479687499	-0.31539000354687474
O	-7.25967935921875	-5.86180894796875	-10.416322355546875
O	-3.51006817921875	-5.5334866679687496	-10.696914155546875
O	8.34568058078125	-4.25451059796875	-10.328406925546876
O	6.27904230078125	-4.668641717968749	-7.186577655546875
O	6.34441509078125	-0.9065449479687498	-6.578442185546875
O	5.2954935407812505	-0.2525108779687498	-10.144525755546876
O	2.53796175078125	-2.8367144979687495	-9.713081595546875
O	1.4355037407812503	-1.2436043479687497	-6.466698145546875
O	1.83791183078125	2.3331868820312502	-7.761369345546875
O	-0.19188581921875003	1.6346450740312504	-10.787418245546874
O	-2.93853739921875	-0.017053356968749767	-8.764864705546874
O	-3.06898518921875	2.97597904203125	-6.375325815546875
O	-3.30530373921875	5.50954436203125	-9.082356985546873
O	-6.36737626921875	3.7559714720312503	-10.566466455546873
O	-8.08937905921875	3.57419064203125	-7.178308535546875
O	-7.72734867921875	7.306675342031251	-6.804447385546875
O	-12.047255319218749	7.34775392203125	-4.553423095546875
O	-6.88526058921875	11.673313162031251	3.564090304453125
O	-6.29995046921875	9.74738146203125	0.3132483044531251
O	-3.5270031792187497	7.50206994203125	1.6842713044531252
O	-5.4423798392187495	6.72142696203125	4.930876474453125
O	-8.47560723921875	5.866303932031251	2.7384134544531253
O	-6.44874450921875	3.5272948420312504	0.5264964544531252
O	-4.96666269921875	1.8921543480312502	3.634288074453125
O	-8.21662765921875	1.3332073330312502	5.510522244453125
O	-9.61053604921875	-0.24781227796874983	2.3497304144531252
O	-6.56923002921875	-2.5817701979687495	1.9850290744531254
O	-6.84915452921875	-3.6479308079687494	5.656239594453125
O	-7.22829024921875	-8.400295927968749	3.8176946844531257
O	-2.40939054921875	-8.237263837968749	2.3357638144531254
O	-4.9761849992187495	-8.38304808796875	-0.4901861385468748
O	-3.8804205992187497	-5.504356077968749	-2.6918517655468746
O	-6.0360690292187495	-6.99645400796875	-5.450934635546875
O	-4.83509706921875	-11.30961223796875	-8.179545245546874
O	-2.23330759921875	-9.81980563796875	-5.873493885546875
O	-2.12118378921875	-11.329320937968749	-2.395182595546875
O	7.336697720781251	-6.842399917968749	1.1948990044531254
O	11.60997848078125	-7.02042331796875	-1.7107937315468749
O	11.51835958078125	-3.23779449796875	-1.5095822715468747
O	11.86960308078125	-0.21107988796874977	4.033179554453125
O	8.537916680781251	-1.6576948879687499	2.9765728944531253
O	8.08590124078125	-4.650377077968749	5.277167264453126
O	7.819669700781249	-2.11504567796875	8.111010354453125
O	4.6691100007812505	-0.6880402179687498	6.537886144453125
O	3.4315830107812504	-4.238072547968749	5.722985644453125
O	3.8583253007812504	-5.19449256796875	9.314839144453124
O	1.7009034607812503	-2.2600212379687497	10.467355544453124
O	-1.0162069452187499	-2.9003328979687497	7.894358694453126
O	-1.14506551921875	-6.6442013579687496	8.695474964453126
O	-1.41842642321875	-5.890228197968749	12.395530744453126
O	-6.0295269592187495	-6.17511281796875	9.704790144453124
O	-5.54004373921875	-8.54825940796875	12.609714344453124
O	0.69750601078125	4.29550030203125	8.864210144453125
O	-0.31121841921875	6.96860308203125	6.364387584453125
O	2.33107579078125	9.366021492031251	7.688665184453126
O	4.97503170078125	6.70489446203125	7.735831304453126
O	3.7860192507812505	5.75100701203125	4.289839644453125
O	4.23460247078125	9.29184168203125	2.9061808244531253
O	7.686368760781249	9.28257876203125	4.395323944453125
O	8.59105579078125	6.05677524203125	2.5762594344531253
O	6.99958319078125	7.182620442031251	-0.7073869705468747
O	8.86681080078125	10.463258192031251	-0.5598853205468748
O	10.04815298078125	6.2125341520312505	-8.151910705546875
O	6.24714385078125	6.02938897203125	-7.677424095546875
