94

O	0.9130769866363628	0.7419478123060604	4.400637701863637
O	1.941513846636363	0.9717758524060605	3.4791156918636363
O	1.7992477866363628	0.36481039730606046	2.2900956118636366
O	0.5922681866363628	0.15548477530606042	1.7950133018636365
O	-0.4588482253636371	-0.06414227669393946	2.6904789318636366
O	-0.1783126773636371	-0.10909168669393954	4.011900031863636
O	0.013506226636362806	0.6781176443060605	0.6350137728636365
O	0.8587925566363628	1.5241981253060604	-0.16788161253636358
O	-2.7003186233636374	0.8654265323060605	2.372109321863636
O	1.3061718966363627	2.5387880033060606	0.7462505268636365
O	2.1773176566363626	3.362803133306061	0.013232930863636416
O	3.0240811566363632	2.6661181233060605	-0.7820901651363635
O	2.845520006636363	1.3786774783060605	-1.2898747581363637
O	1.8646877466363627	0.6732513933060604	-0.6358252341363636
O	-2.9529324033636373	-0.5254845166939395	2.6683248118636365
O	-3.8266030933636372	-0.6496883166939396	3.602981131863636
O	-4.4919974933636375	-1.8385009366939398	3.7408365318636365
O	-3.829701243363637	-2.9240132566939394	3.2544922818636364
O	-2.613573773363637	-2.831521736693939	2.6601449118636364
O	-2.1749064533636373	-1.6081739266939394	2.2596291618636366
O	-1.1916229137636372	0.0264355533060604	5.044787981863637
O	-1.128405658563637	0.15739083530606046	0.7738542728636364
O	-1.3701676143636372	0.6176448663060605	2.0318440618636364
O	1.292827176636363	-0.4728349366939395	-1.2139903281363635
O	3.7880517966363634	3.3469742133060603	-1.6749504681363636
O	-1.569290137363637	-1.2358762066939397	5.287954901863637
O	-0.696731952363637	0.2642167773060604	6.307180901863637
O	-1.8211736323636372	1.1918361233060604	4.868524881863637
O	1.926642366636363	13.44457091330606	-3.9466338681363635
O	-1.375099302363637	12.474009513306061	-2.4012899981363636
O	-9.036099943363638	5.94876710330606	0.34208047886363646
O	-7.479084033363637	4.577270723306061	3.5288184818636363
O	-7.030813403363637	8.03298624330606	4.938301211863637
O	-5.4788176233636365	9.052514533306061	1.6003931818636363
O	-3.144442883363637	6.0514835833060605	1.6062919518636365
O	-2.420395073363637	6.1171002233060605	5.303453351863636
O	-1.552371392363637	9.796267063306061	5.108904911863636
O	0.699137906636363	9.29373055330606	2.1252832618636366
O	2.495058286636363	6.40326736330606	3.8865544018636364
O	3.0614609466363634	8.467135213306062	7.029184391863636
O	4.801553386636363	11.23009001330606	5.042390281863636
O	7.062294556636362	8.72241250330606	3.2698031518636363
O	8.177676786636363	7.42929431330606	6.686361211863636
O	12.634716766636362	6.79324590330606	4.700016881863636
O	11.474541766636362	-3.3131141466939393	7.537008861863637
O	9.512679166636362	-0.07717734669393961	7.006066701863636
O	6.515442526636363	-1.8030171466939395	5.424909941863637
O	8.599086986636362	-3.9897490966939397	3.0947926618636363
O	10.513353866636363	-0.8010552766939396	2.0831039318636364
O	7.414407906636364	1.1286532653060604	1.3137755218636364
O	5.997537136636363	-1.8234998866939394	-0.6204258401363636
O	9.109910666636361	-2.5241524966939393	-2.7581746581363635
O	9.098521066636362	1.1747769033060604	-3.663278708136364
O	5.376399486636363	1.0902206921060604	-4.713811378136363
O	5.9906468566363635	-2.0165497766939398	-6.882474648136364
O	4.0298907266363635	0.7924265983060604	-10.680467218136362
O	-0.5306149083636371	0.6067495293060605	-8.520819488136363
O	1.0961753866363628	4.05816311330606	-8.618268898136364
O	0.5926772466363628	5.18273114330606	-5.093873288136363
O	1.4875262066363628	8.697178633306061	-6.138335528136363
O	-1.8773378183636371	11.759788513306061	-8.803996278136363
O	-3.102815893363637	8.47323537330606	-7.369099988136364
O	-3.037486263363637	5.5238364433060605	-9.758692858136364
O	-5.270237863363637	2.7004981333060605	-8.503836958136363
O	-8.974795303363637	-1.7490512566939393	-3.8860235381363637
O	-12.216261233363637	-3.56272966669394	-3.2760878381363634
O	-13.462473633363638	-0.3675602866939396	-1.7256131781363635
O	-11.847153733363637	-1.3162368066939394	1.5629380718636363
O	-9.742826453363637	-7.17032474669394	2.638082581863636
O	-7.538244353363637	-4.7918927366939394	0.6227354478636364
O	-7.847870613363637	-6.19574318669394	-2.9082416381363636
O	-5.9890514133636366	-9.255703486693939	-1.6086964681363636
O	-2.969699333363637	-7.02949793669394	-0.7984107421363635
O	-3.399974143363637	-5.14997486669394	-4.085376878136364
O	-3.396098813363637	-8.424028676693938	-5.964576228136364
O	-0.07638841336363722	-9.437430986693938	-4.400903188136363
O	1.523833226636363	-6.03459931669394	-5.015795148136364
O	0.3568684766363628	-5.986865756693939	-8.667187308136363
O	1.695906976636363	-9.483763686693939	-9.233230088136363
O	5.0610356466363635	-8.463544516693938	-7.790144378136363
O	5.122975106636363	-5.4843827766939395	-10.114007248136364
O	4.394495346636363	-7.83519838669394	-12.993121018136364
O	2.9859628866363632	-8.974015316693938	1.6538037418636364
O	4.340012426636363	-6.88940339669394	4.501036851863637
O	3.2669819466363634	-9.49945458669394	7.061990531863636
O	-0.11869596836363716	-9.815506286693939	5.501386081863636
O	-0.1935772483636371	-6.042796346693939	5.368550241863636
O	0.5017787966363629	-5.72393378669394	9.113757131863636
O	-2.255434723363637	-8.195475466693939	9.724523941863637
O	-4.718301983363637	-6.08644155669394	7.695064541863637
O	-3.5694228933636367	-2.851269716693939	9.368874101863637
O	-3.979318363363637	-4.31015907669394	12.760708181863636
O	-8.341960453363637	3.3214009433060605	11.642150081863637
O	-4.9440233633636375	4.13149474330606	10.097798181863636
