89

O	-1.0344239587096777	-0.6514062353887098	-0.027437270168387207
O	-0.5273341597096777	0.2885438426112903	0.9932340548316129
O	-0.5117031127096777	1.5967606556112903	0.6478974548316129
O	0.06117591329032229	1.5954145296112903	-0.6124287629683872
O	-0.001952202709677664	0.6365257806112903	-1.5097337421683872
O	1.0098655072903224	0.43312728861129024	-2.4721550051683874
O	2.193103487290322	1.1594209044112902	-2.4529010051683873
O	3.337259447290322	0.8685999036112902	-3.152665725168387
O	2.048948777290322	2.3218844846112905	-1.8251614051683873
O	1.0948565772903223	2.4188624346112904	-0.8610667951683872
O	0.15662464929032233	2.4779838546112902	1.5318180048316128
O	-0.0447839967096777	2.87026890461129	2.7955667548316128
O	1.0008516472903224	3.6825341746112903	3.286164414831613
O	1.9468490072903222	4.33537012461129	2.595836024831613
O	3.098122807290322	5.01388249461129	2.9074399248316127
O	1.5263532772903223	4.4832413046112904	1.323418254831613
O	0.7233668372903224	3.52127885461129	0.8305100448316128
O	0.8255432372903224	0.09885548461129035	1.1424473348316129
O	1.3123685972903223	0.6122532986112903	2.2417418648316128
O	2.576547487290322	1.0698304756112902	2.256800004831613
O	3.189286667290322	1.0620989096112903	1.0540616548316128
O	4.049864747290322	2.14056110161129	0.7296328148316128
O	4.019960587290322	3.47280704461129	0.21684353483161278
O	4.6321124172903225	2.4415600646112905	2.068881924831613
O	4.780017707290322	1.4435489476112902	-0.3710338011683872
O	2.8649603272903224	-0.02281602538870975	0.30626771983161283
O	1.6360251572903224	-0.5865459353887097	0.36843313283161283
O	-11.991052172709677	7.528629574611291	-0.37235272016838716
O	-9.366789832709678	7.59199958461129	-3.072934825168387
O	-0.6905334647096777	6.84832586461129	-11.229681915168387
O	-1.6235884827096776	3.95172742461129	-9.001918695168387
O	1.2911638472903224	4.74985754461129	-6.600308535168388
O	0.2425699192903223	8.36934142461129	-6.483739655168388
O	-3.307136422709678	7.20643331461129	-5.760763815168388
O	-2.076431712709678	4.86981625461129	-2.944655845168387
O	0.38692983529032227	7.52060963461129	-1.729698155168387
O	-2.1552199227096778	10.13919769461129	-1.4396473571683872
O	-4.5644668427096775	7.76798034461129	0.32497592083161286
O	-2.029713002709678	6.818371744611291	2.891926824831613
O	-1.1025136897096777	10.44551204461129	3.713217444831613
O	-4.691606112709677	11.30068564461129	4.514548664831612
O	-5.078922582709677	8.23965115461129	6.753695124831612
O	-2.167970062709678	9.338570104611291	8.857656704831614
O	4.028820277290323	1.2224753057112903	13.923222184831614
O	2.2830981672903223	3.4672998746112906	11.374763584831614
O	2.8198679172903223	1.0600644896112903	8.454118544831614
O	1.7114993372903224	-2.0117439553887095	10.338403384831613
O	-1.3718240527096777	0.015294314611290272	11.383983684831612
O	-2.2766268627096777	1.0094730186112901	7.872956214831613
O	-1.7493081727096775	-2.56066909538871	6.732510024831613
O	-3.820730742709678	-4.247929695388709	9.390042254831613
O	-6.405037032709678	-2.6628608253887096	4.8515209848316125
O	-6.473829732709677	-6.418648295388709	5.541992464831613
O	-7.603261512709677	-5.51972608538871	-1.5060560411683872
O	-10.023170092709677	-2.7334112353887097	-0.5312436382683872
O	-7.716014682709678	0.2821158316112903	-0.3237484361683872
O	-10.793087072709678	2.45075034461129	-0.4212928240683872
O	-13.769779572709677	3.22415053461129	-4.687988085168388
O	-10.446590572709678	1.4519439316112903	-5.0500027451683875
O	-10.638308772709678	-2.3153990753887097	-4.974497675168387
O	-7.474283682709677	-3.852694805388709	-6.385697185168388
O	-0.45415968270967766	-4.852997615388709	-8.400316425168388
O	1.5990500072903224	-2.5287519153887095	-12.574819415168387
O	4.2564631072903225	-1.2488744853887097	-10.144689165168387
O	7.696636837290322	-2.8407257553887098	-9.896180785168387
O	7.932087597290323	-5.23924172538871	-6.944320125168388
O	4.462798947290323	-4.5723654353887095	-5.653974005168387
O	2.5591854572903223	-7.8059913153887095	-6.3591626651683875
O	4.840737667290322	-9.329309955388709	-3.748094245168387
O	3.426914877290322	-7.10952148538871	-1.0751218191683871
O	-0.10350379670967769	-7.558817585388709	-2.4443538351683873
O	0.31358703829032236	-11.31800395538871	-2.2377341851683874
O	1.2596254072903224	-11.10769745538871	1.4482076348316126
O	-1.5890841427096776	-8.744738485388709	2.315061864831613
O	-4.158859372709678	-10.862698355388709	0.46637833383161287
O	-6.8069469127096776	-11.19618115538871	4.717645524831613
O	4.9165185272903225	-7.02849202538871	5.523618794831613
O	5.575213087290322	-3.6205341253887093	7.0266714948316125
O	9.345842897290323	-4.180442735388709	6.914390624831612
O	9.193485067290323	-5.458003785388709	3.3954741248316127
O	6.913219677290322	-2.54023294538871	2.639858974831613
O	9.424461467290323	-0.0024371753887098	3.9692216348316127
O	12.019770627290322	-1.64410134538871	1.845239474831613
O	9.889365427290322	-1.2995119453887096	-1.2901425631683872
O	8.997666977290322	2.2590914546112906	-0.5161835317283872
O	12.559469527290323	3.22578691461129	0.08096271483161277
O	10.197077027290323	5.183730434611291	-5.116757865168387
O	8.458787457290322	8.54023963461129	-5.601020865168388
O	5.918436757290323	8.33363039461129	-2.743165565168387
