87

O	0.9714487015396827	-5.709311596206349	2.0970198943174614
O	0.3190962815396825	-4.450249786206348	2.0914011343174614
O	0.8089784615396827	-3.296667826206348	2.574899184317461
O	0.9003079215396825	-2.145498436206348	1.929213264317461
O	-0.32794057346031746	-4.249572286206348	0.8768464043174613
O	-0.8465078774603174	-3.033712056206348	0.6371451033174613
O	-0.12672425346031746	-1.9305529962063481	1.1409039343174612
O	0.17042823153968256	-1.0059204862063482	-0.0035250346825387857
O	0.7476033315396826	-1.292307306206348	-1.1991071166825389
O	1.4335304115396825	-2.606342596206348	-1.1290924446825388
O	2.2847816915396826	-2.547549436206348	-0.08664862768253878
O	2.5793441615396824	-3.948632566206348	0.12925550231746125
O	0.3697401215396825	-0.603269847206348	-2.3106735656825386
O	0.5798998815396825	-1.261030096206348	-3.5342186656825385
O	-0.8455245564603174	0.06204402879365195	-2.0939519256825387
O	-1.1497716684603174	0.552869460793652	-0.7886449026825388
O	-0.4449037264603174	0.13217516479365193	0.3014773383174612
O	-1.2358583314603173	0.09619287879365193	1.4939652843174613
O	-2.2977573284603174	-0.728096980206348	1.2928349743174612
O	-2.8718585184603174	-1.2136534362063482	2.4296247643174613
O	-2.082232748460317	-1.7069189762063481	3.5117726343174613
O	-2.1256369884603172	-3.067379336206348	3.6410169243174613
O	-1.2255740244603175	-0.679444552206348	3.594212544317461
O	-0.4826703954603174	-0.19278167420634806	2.5681843043174615
O	-4.918455838460318	-3.838083586206348	-12.13378601568254
O	-6.963841078460318	-4.156484296206348	-8.96107828568254
O	-13.061563768460317	-4.471377236206348	1.1958825543174614
O	-10.525541738460317	-1.769202766206348	0.40598029431746124
O	-7.935915098460317	-3.668162866206348	2.4369163243174614
O	-8.651549088460317	-6.887703176206348	0.6412919863174613
O	-8.374914358460318	-4.941032046206348	-2.6050676456825386
O	-5.032768458460318	-3.3894778062063478	-1.6144051356825386
O	-3.8183399284603174	-6.5872274762063485	-0.09482473668253877
O	-4.575348758460318	-8.658970646206349	-3.159845635682539
O	-2.8773515884603174	-6.003764876206349	-5.321026935682538
O	0.23520196153968254	-6.035375396206349	-3.2934373256825387
O	0.5300606715396825	-9.900469066206348	-3.3681109456825387
O	0.47823188153968266	-9.893890966206348	-7.114355185682538
O	3.1258603915396823	-7.193587886206348	-7.357809405682539
O	5.448537541539682	-9.226495846206348	-5.237032265682538
O	5.887988071539683	-11.875946366206348	-7.881437845682539
O	9.127257831539682	-7.588982026206349	-7.9445605256825385
O	13.102249531539682	-3.736702666206348	1.0063400543174612
O	9.857393231539682	-5.072563356206349	-0.5152423066825388
O	7.657558261539682	-2.463620446206348	1.1519417543174613
O	9.883445731539682	0.48195163979365196	0.33841685731746124
O	9.987393831539682	-0.814495916206348	-3.301098315682539
O	6.197801901539682	-1.077502646206348	-3.5402983456825385
O	5.831134871539682	2.356577333793652	-1.9627237556825388
O	8.292647101539682	4.115595863793652	-4.221303975682539
O	6.459500701539682	2.602195993793652	-7.177832945682539
O	3.020499101539683	3.755331943793652	-5.716218105682539
O	4.468368001539682	7.353541103793652	-5.376954755682538
O	0.7519988115396825	8.88688826379365	-8.49991620568254
O	-2.7059418484603173	7.765197303793651	-4.981134595682539
O	-2.7523620284603174	5.540805683793652	-8.08418654568254
O	-2.6940984384603173	2.070883763793652	-6.592137765682539
O	-3.7632789084603173	0.717229925793652	-9.86097281568254
O	-8.587060748460317	1.269974963793652	-11.87005931568254
O	-7.980789228460317	2.257633643793652	-8.30274707568254
O	-7.242685558460318	5.923400913793651	-7.755761625682538
O	-7.982618898460318	6.102901543793652	3.234744814317461
O	-9.440616638460318	1.819327813793652	7.359938864317462
O	-4.927768678460318	4.288598003793652	10.922498884317461
O	-4.441354488460318	4.2542048337936516	7.148413094317461
O	-4.9231168284603175	7.934590453793652	6.244379444317461
O	-1.7138000664603175	8.617347233793652	8.17660169431746
O	0.18761941153968253	6.407374223793652	5.704287874317461
O	-1.7670279004603175	7.967494193793652	2.7900989743174613
O	-0.7706230554603175	11.374031833793651	3.9378260143174613
O	2.9255957315396826	10.437493133793652	3.919812484317461
O	2.7356214815396824	8.73418046379365	0.5187204963174612
O	0.8798286315396826	11.698788533793651	-1.0238923926825387
O	4.505351041539683	12.125721833793651	-4.458431395682538
O	6.802951881539682	5.108231943793651	5.589636184317461
O	7.745717311539682	1.485725293793652	5.137932874317461
O	8.467989991539682	1.078074884793652	8.86721067431746
O	5.293137911539683	2.810824513793652	9.81480748431746
O	3.5937724815396828	0.7029459957936519	7.1833123543174615
O	4.790607071539682	-2.545166066206348	8.638658964317461
O	3.638360911539683	-1.375842426206348	12.003779684317461
O	0.14568241153968264	-0.733629566206348	10.66717208431746
O	0.0628797915396826	-3.9650400962063483	8.74467149431746
O	1.1132569415396825	-5.913421416206348	11.70326928431746
O	-4.708001488460317	-6.396716396206348	10.42499368431746
O	-6.150143098460317	-9.103631066206349	8.20860471431746
O	-3.9446248284603174	-8.760498676206348	5.209548184317462
