86

O	-0.1356842020726985	-1.159129747777778	-1.8110923908571426
O	-1.5376204690726984	-1.098766177777778	-1.6948900528571427
O	-1.9124811280726985	-1.9837586777777778	-0.6610970498571427
O	-2.6732118780726983	-3.026427837777778	-1.0647708298571428
O	-1.3967873410726983	-1.6139720277777778	0.5721622461428574
O	-0.21770118807269845	-0.914157787777778	0.5206070761428573
O	0.31992285192730163	-0.2463576677777779	1.7684714561428572
O	0.1448838869273016	1.1858848582222221	1.4027441461428571
O	0.32211307192730154	1.551638167222222	0.006577724142857289
O	1.0276274519273016	0.6933216082222221	-0.9719782368571427
O	0.41276258192730153	-0.5484253077777779	-0.6767519298571427
O	0.6898456819273016	1.2768157132222222	-2.3405523038571427
O	1.3689387619273015	2.555381712222222	-2.7262501238571426
O	1.9706058619273017	2.846369122222222	-1.4222345968571428
O	1.1191438819273016	2.689279362222222	-0.2185701548571427
O	2.061719161927302	2.6355718522222222	0.9831829761428573
O	3.040045751927302	3.575200992222222	0.4773585161428572
O	2.8505163519273014	3.8933750722222222	-1.0203210898571426
O	2.3661738119273013	5.131452932222222	-1.3039566208571427
O	2.9726114719273014	1.6853667552222222	-1.4833497828571427
O	-0.7506063257626985	1.625018324222222	-2.5682034438571426
O	-1.0090932450726984	2.871601552222222	-3.012699443857143
O	-1.4720717140726984	2.854361942222222	-4.344414113857143
O	-0.7734766802726984	-11.084021737777778	-7.921578253857143
O	2.121588451927302	-8.734620997777778	-8.411314073857143
O	11.0197650019273	-0.8346926777777779	-8.829881703857144
O	9.259681001927301	-1.719169667777778	-5.596201283857142
O	7.095500101927302	1.407889890222222	-5.864770653857143
O	6.210722541927302	0.602873929222222	-9.427519193857144
O	5.398404571927301	-2.945559057777778	-8.318328883857143
O	3.2266277619273014	-1.638024397777778	-5.452211643857142
O	1.6849950719273015	1.155025846222222	-7.579632663857143
O	0.7286134619273015	-1.2113994977777778	-10.273057543857144
O	-0.7615557251926984	-3.667958097777778	-7.837833383857142
O	-2.811778788072698	-0.860640777777778	-6.173765263857143
O	-4.205178728072698	0.3509142982222221	-9.433378153857143
O	-5.517266228072699	-3.1064789377777777	-10.321211013857143
O	-7.164649448072699	-3.530660037777778	-6.924123263857142
O	-9.033853578072698	-0.30838002777777795	-7.436747433857143
O	-11.161664198072698	-1.7763050977777781	-10.211863763857144
O	-12.843841798072699	-2.318149817777778	-5.138662633857143
O	-11.8988904980727	5.772475212222222	1.5199722761428571
O	-9.942337628072698	3.904108782222222	-1.1779003968571427
O	-6.5726175380726986	3.997149012222222	0.6049376361428572
O	-8.121457328072697	2.9687148822222222	4.0138763061428575
O	-9.896944918072698	0.10081818722222202	2.197819936142857
O	-6.744832388072699	-1.0673256977777779	0.5271518161428573
O	-4.890800078072699	-0.838589267777778	3.8960863361428575
O	-7.360137888072699	-2.773111077777778	5.920696926142858
O	-7.300089108072699	-5.4984348177777775	3.303966196142857
O	-3.439020038072698	-5.653243587777778	3.3293517261428573
O	-3.3769888380726982	-5.850097087777778	7.114032846142858
O	-0.7732297221726985	-10.183879137777778	6.4507540261428575
O	3.1897084319273015	-7.527495207777779	4.793047676142858
O	1.4886286419273016	-9.750196537777779	2.198456576142857
O	0.9538800119273017	-7.238174027777779	-0.6209268688571428
O	0.3698006719273015	-10.216497237777778	-2.9020978438571428
O	4.081049881927301	-13.517087637777779	-4.6102089838571425
O	5.089969221927301	-10.348505637777778	-2.7951750138571425
O	5.681121491927302	-10.779852537777778	0.9212949361428572
O	10.419648501927302	-1.040245267777778	3.0524481561428574
O	12.0847351019273	3.6436538322222223	-0.5473779628571427
O	10.013541201927302	7.403303882222222	4.1392884261428575
O	8.2684942719273	4.094461652222222	3.569511396142857
O	9.363270701927302	1.9510501822222222	6.516593236142858
O	7.384137601927302	4.390445162222222	8.671153166142856
O	4.178219451927301	3.385067972222222	7.035246646142857
O	5.232675291927301	-0.29029160777777796	6.918733556142858
O	5.795322801927301	-0.10822535477777795	10.651361356142857
O	2.2458976819273015	1.1804957492222221	11.236299756142857
O	0.6749330219273015	-1.4224936577777778	8.950873436142857
O	2.6337151819273013	-4.2707363477777776	10.546284456142857
O	-1.7014863450726985	-6.5428232077777775	11.611855156142857
O	-16.5047343980727	2.824032352222222	2.782312746142857
O	-2.203003838072698	5.453474312222221	8.246086886142857
O	-4.224597068072699	6.3997136022222225	5.155642986142857
O	-3.6242188280726984	10.112747522222222	5.784571506142858
O	0.0420816999273016	9.550322152222222	6.354559586142858
O	-0.01775249307269844	7.403492262222223	3.315123766142857
O	-1.5031815820726986	10.068052342222222	1.0619043361428573
O	1.0768292319273016	12.480457162222221	2.4234739661428573
O	3.8812156519273016	10.127899752222222	1.3827638461428573
O	2.2974802519273014	9.397790142222222	-2.024398723857143
O	1.8903951919273017	13.054161262222221	-2.705483263857143
O	6.139306961927302	8.867795732222222	-9.158386563857142
O	3.1476295719273013	6.604978702222223	-8.503497153857143
