20

O	28.578132314110608	-2.284934971703153	27.995628286200777
O	27.90509691584463	-2.1195320142076874	26.746230364233224
O	26.84216333076247	-1.2291920586377547	27.03977459922654
O	26.064163980477186	-1.4107691215555398	25.888133708013182
O	27.358191280576854	0.023893675448806606	27.454610235812936
O	28.571868739994073	0.10440798545274876	28.06205560743577
O	29.333631165832315	1.2739647876706712	28.503104505076806
O	30.487281517674553	1.4105411433171484	27.616804691502434
O	30.936697057179302	0.044833400807322454	27.254447126294412
O	30.663768675038447	-1.035981790259961	28.302180219902002
O	29.200683906203604	-1.0982900651777792	28.36504955340773
O	31.09159576973403	-2.265270337669173	27.482251166294425
O	32.51206760581849	-2.384981237709782	27.81877649091853
O	33.15909371358477	-1.1106578273295085	27.400416631110527
O	32.365302381040884	0.11832887156050156	27.3931655200817
O	32.67354992349609	0.8330682865243391	28.608909537012924
O	34.07102904372927	0.5337526973729676	28.84652028977113
O	34.4011112032388	-0.6973600432339511	28.060311889324034
O	35.473135208344004	-0.5815088883182714	27.205981485287307
O	33.38154846921569	-1.2814982960699233	25.930483021615657
