89

O	-3.8971145080161294	-5.051096970096774	-0.909929749912904
O	-2.6331617280161295	-4.853915720096774	-0.331265297112904
O	-1.6378637500161295	-4.450371090096774	-1.143667161112904
O	-0.6077496550161294	-3.5496579700967734	-0.739628160112904
O	-0.5471798640161295	-2.8614170900967735	0.43295940888709605
O	-0.8286087660161294	-1.3853776400967739	0.3309529888870961
O	-1.6424325400161295	-1.3941799700967739	-0.816948289112904
O	-2.8204016580161295	-1.8447783600967735	-0.32067728511290394
O	-3.9110084380161294	-1.8921282800967738	-1.199007867112904
O	-3.6499447880161293	-2.0225163900967735	-2.536122271112904
O	-4.48848005801613	-3.0032723500967737	-3.0940728111129037
O	-2.3554418080161295	-1.8239248400967738	-2.9353407111129037
O	-1.2615657440161294	-1.8104290600967734	-2.012391801112904
O	0.30674637198387056	-0.6606834170967737	0.19483186888709603
O	0.5004405419838704	0.15807378890322626	1.4675037788870962
O	-0.8885400000161294	0.49828767390322626	1.8798122488870959
O	-1.6576848340161294	0.8100499229032263	0.722183618887096
O	-1.3152679836161294	0.6676283809032263	-0.6483963171129039
O	-2.1798262720161294	1.1446136699032263	-1.705048573112904
O	-3.5279855180161293	1.2676726369032263	-1.7295561861129038
O	-4.0739373680161295	2.197561739903226	-2.6025922511129043
O	-3.4382647880161294	2.5242261099032266	-3.784095611112904
O	-2.1572506550161297	2.0684477699032264	-3.948203001112904
O	-1.5684808840161295	1.3592762599032264	-2.908450321112904
O	0.05037378198387055	0.1615639429032263	-1.021410414212904
O	-1.5741332150161296	-3.3159733800967737	1.232387408887096
O	-2.4524092180161294	-4.363890940096774	0.9119995388870961
O	11.30471465198387	-8.533272600096772	0.929257988887096
O	9.878705651983871	-7.255216900096774	-2.322206441112904
O	4.7953778319838705	-2.3492952900967734	-11.931811361112903
O	4.781653771983871	-0.6374423320967737	-8.566837101112904
O	1.2232234619838707	-1.8103680500967738	-7.800363921112904
O	2.2045612219838704	-5.346852670096774	-8.847421831112904
O	5.222345101983871	-5.049725390096774	-6.550369941112904
O	3.0169834619838705	-3.7377449500967734	-3.6587007011129042
O	0.2951729219838706	-6.258439520096774	-4.526895581112904
O	2.5728705219838703	-9.154849180096774	-4.385988321112904
O	4.1815082119838705	-7.989267410096773	-1.135943179112904
O	0.8439097519838707	-7.597421350096774	0.6006927488870961
O	-0.3369304280161294	-11.092267640096773	-0.439738848112904
O	2.6882225919838705	-12.717249540096773	1.1543549588870958
O	2.2223259319838706	-10.763655340096774	4.392206448887096
O	-1.2689668920161294	-12.084647440096774	4.755415518887096
O	-8.95433590801613	-5.502849070096774	10.013874838887096
O	-6.369891448016129	-6.929997610096774	7.602068318887096
O	-5.755380948016129	-3.5812767900967737	5.810213268887096
O	-5.465574128016129	-1.5832892500967737	9.012266558887097
O	-3.0084526780161296	-4.269936610096774	10.265927338887098
O	-0.8473071530161295	-4.077103590096774	7.158721068887096
O	-0.9140181320161295	-0.29311854809677373	7.288354528887095
O	0.011911801983870651	0.029253087903226282	10.968327838887097
O	4.0599972219838705	-0.18971094909677372	7.291277868887096
O	3.896759781983871	3.0031776999032265	9.392538138887097
O	7.606127381983871	4.546080709903226	3.4510665788870956
O	9.44816305198387	1.2689025439032262	4.039373998887096
O	7.284857041983871	-1.2581668200967737	2.2659539688870964
O	10.18246015198387	-3.6583256100967736	2.429649558887096
O	14.56127405198387	-3.2709313200967736	-0.48056794911290396
O	11.61160885198387	-1.031142840096774	-1.265227275112904
O	11.76167995198387	2.3919147099032263	0.33487890888709604
O	9.369898851983871	4.781815539903226	-1.398563772112904
O	3.5336237319838704	7.334801279903226	-5.165742771112904
O	3.2130680119838706	7.005534129903226	-10.322478761112903
O	-0.17493007801612936	5.386547119903226	-9.680100591112904
O	-3.4571669080161294	7.271681539903226	-10.051631981112903
O	-4.789529848016129	8.480285739903227	-6.683907961112904
O	-2.0449906980161296	6.905536229903226	-4.6407883911129035
O	0.0023080619838704575	9.851907869903227	-3.342460651112904
O	-3.1008556880161295	10.695957859903228	-1.305416614112904
O	-2.8087772380161296	7.491632829903226	0.628271448887096
O	1.0084082719838707	7.852667459903226	0.837323448887096
O	0.5479794919838705	11.296521959903227	2.3223601388870962
O	-1.7106957380161294	9.910351569903227	5.074868468887096
O	0.6063713119838705	6.990945769903226	5.858124528887096
O	3.6783838519838703	9.268632829903227	6.018911388887096
O	4.53945248198387	7.659966939903226	10.691372138887097
O	-6.652668198016129	5.232973079903226	5.726801798887096
O	-7.810046268016129	1.631327139903226	5.466708038887096
O	-11.27653750801613	2.7327679699032266	4.291235268887096
O	-9.848573378016129	5.165667649903226	1.821375568887096
O	-7.45620264801613	2.4501315499032263	0.849031788887096
O	-10.170262908016129	-0.0914258570967737	0.11662726888709596
O	-11.86180534801613	2.540899899903226	-1.958404951112904
O	-8.69843734801613	3.0376830199032265	-4.039126601112904
O	-8.016485798016129	-0.6782535400967737	-4.312822631112904
O	-11.577453248016129	-1.2931459400967737	-5.464985711112904
O	-7.5694744580161295	-1.5131187900967737	-9.902874811112904
O	-5.750142648016129	-4.6698117000967745	-11.015553561112903
O	-4.460014778016129	-5.946245290096774	-7.662499531112904
