98

O	-4.333859320516417	-2.126005840871642	0.20676084310447695
O	-3.5560660005164175	-1.3765426008716413	-0.617086101895523
O	-3.0291223805164176	-1.6816468708716414	-1.825509976895523
O	-1.8735134305164172	-1.1818242208716414	-2.132350043895523
O	-3.0244330605164174	-0.24576210087164152	-0.14024194689552316
O	-1.789980800516417	0.12027901112835859	-0.264520426895523
O	-1.2976677075164171	-0.2686766508716414	-1.460080983895523
O	-0.08588153851641722	0.19374055912835852	-1.289236575195523
O	0.17086362648358278	1.3696569161283585	-1.8872313238955232
O	1.4519996894835825	1.7527377621283584	-1.837466669895523
O	2.1354300294835826	2.2837553891283586	-3.672574786895523
O	0.9310716694835827	1.2853774841283585	-4.299689616895523
O	0.6206410094835827	0.03827463012835852	-3.8779865468955235
O	-0.34991298751641725	-0.7148476708716414	-4.473860346895523
O	-0.5369486165164172	-2.0532429708716418	-3.966481626895523
O	0.5522484194835827	-2.793042030871641	-4.173925996895523
O	1.2468469194835827	-2.0910286808716414	-3.2875325368955233
O	1.6513472994835827	-0.8538016308716414	-3.823256276895523
O	2.9726044794835826	2.7798875591283583	-3.6614145268955234
O	0.5491722994835827	3.581508739128359	-3.359440646895523
O	2.271959059483583	0.7057441384283586	-1.769353704895523
O	1.8764506794835825	-0.4406581908716414	-1.002765260895523
O	0.6989254094835827	-0.6762436308716415	-0.7345592438955231
O	-0.09671682651641722	-1.8131061408716416	-0.8589944388955231
O	-0.5024090115164173	-2.0298164708716415	0.4707128231044768
O	-1.4427876795164174	-2.997233720871641	0.5894428031044769
O	-1.7585831845164173	-3.9022941808716416	-0.3672769178955231
O	-2.9899861905164173	-4.415123420871641	-0.2593626668955231
O	-0.8205020028164173	-3.902191800871641	-1.3375509526955232
O	0.27950735948358274	-3.0886723908716416	-1.059119477895523
O	0.9438459994835827	-4.5573399708716416	-3.965033606895523
O	-13.683212570516417	-3.8052997208716413	-0.27236414689552313
O	-12.324877270516417	-1.3927121908716413	-2.846601126895523
O	-5.730457760516417	5.775445279128359	-6.606924656895523
O	-2.9722334005164175	3.4011264191283583	-7.7573027468955225
O	-5.404156110516417	1.4869228061283586	-9.908651796895523
O	-7.7510681105164165	1.3692085301283585	-6.916246226895523
O	-4.925804050516417	0.2778161741283586	-4.767915786895523
O	-3.4377864805164173	-2.1775142308716413	-7.230287006895523
O	-6.7468985105164165	-3.8078680208716413	-7.813012986895523
O	-7.259012660516417	-4.243620310871641	-4.089515166895523
O	-3.7963635405164173	-5.762773820871641	-3.6650679468955234
O	-4.353967260516417	-8.272908530871641	-6.407985756895523
O	-7.565082170516417	-9.58415729087164	-4.920624376895523
O	-5.939738210516417	-9.987068090871642	-1.5031201208955232
O	-3.2996102305164174	-12.203089290871642	-3.0479286968955233
O	-3.3396661905164176	-14.881845990871641	1.036481253104477
O	6.950817249483583	-12.39080989087164	1.815544493104477
O	3.7096025994835826	-11.332992990871642	0.055615623104476875
O	4.332758529483583	-7.514957070871642	0.2987468331044769
O	5.404964759483583	-7.794011040871641	4.012359373104477
O	2.2292666194835826	-9.877411590871642	4.671671793104477
O	-0.006569626516417237	-7.361938250871642	2.8909083931044774
O	1.6447760794835826	-4.562650020871641	4.878318453104477
O	1.3601144894835828	-6.027094650871641	8.266512243104478
O	-2.3316570305164173	-6.602552530871641	7.5336464831044765
O	-2.842602770516417	-2.9316181508716417	6.442093503104477
O	-1.0566219065164173	-1.6416395608716414	9.566438033104477
O	-5.358330730516417	0.8944040080283586	10.498558733104478
O	-4.4759489305164175	3.9063267091283587	6.563248503104477
O	-7.530070780516417	1.6177840611283587	6.256744873104477
O	-6.755428090516417	0.005078311128358548	2.8052752731044768
O	-10.438234640516418	-1.1161609508716415	2.844754993104477
O	-14.618993670516417	2.032723229128359	2.1275575531044773
O	-11.164301270516418	3.436171199128359	1.554548583104477
O	-9.565725720516419	5.2286758891283585	4.475937963104477
O	-6.623269710516417	7.391078469128359	3.379708383104477
O	-0.7589835709164172	9.61843218912836	-0.5761004618955231
O	0.9335175194835826	12.690710809128358	-2.022009913895523
O	-1.2585021135164172	12.177836109128359	-5.0422228068955235
O	1.1190417394835825	9.506953989128359	-6.390505456895523
O	4.802130869483583	10.17390287912836	-6.944788946895523
O	6.908373619483583	8.850095509128359	-4.078181626895523
O	4.039503769483583	7.251427179128359	-2.2242487498955232
O	3.6820397994835825	9.48648937912836	0.8610644231044768
O	7.100705059483583	8.195657379128358	1.910610883104477
O	5.675484839483583	4.666693459128359	2.1086337831044766
O	2.4737995794835825	5.928687519128359	3.7007968031044776
O	4.539586959483583	7.7125081091283585	6.359042213104477
O	6.353825469483583	4.485706429128358	7.269776953104477
O	3.1286830494835827	2.4326073591283586	7.332700773104477
O	1.3715641994835828	5.025474239128359	9.520055433104478
O	4.2920866794835835	5.099271329128359	11.922109433104477
O	0.5193487094835828	1.4663494491283586	12.925106233104477
O	1.2935521894835826	4.004698049128359	15.644928333104478
O	8.871591019483581	-0.9744282808716414	4.023466033104477
O	8.312828679483582	-3.9703185708716413	1.7545198631044767
O	11.738645029483582	-3.4694614008716416	0.13375931310447697
O	11.114320329483583	0.20072168512835853	-0.3124426488955231
O	7.667666529483584	-0.7131123408716413	-1.567708053895523
O	9.118695599483582	-3.0119377708716417	-4.236383486895523
O	11.489244229483582	-0.27883493087164135	-5.286336066895523
O	8.426735959483581	2.0697971091283582	-5.696913986895523
O	6.348496119483583	-0.4266629008716414	-7.494810766895523
O	9.215674199483582	-1.2634546208716413	-9.889447386895522
O	4.890361199483583	2.1788997191283586	-12.342992066895523
O	1.7583555094835828	0.8882701256283586	-14.131204366895522
O	0.4970163094835828	-1.5530460808716413	-11.451396466895522
