20

O	27.68238357712718	-1.7114752626746352	27.22682532216453
O	33.041254521516315	-1.2954522082050213	27.015541465292248
O	25.58449310161815	-1.1433479996687659	27.02660745740804
O	26.68395676060352	-0.8269811672366264	27.764760793175057
O	27.23668949702253	0.3862716856776762	28.236234596136626
O	28.570661155676028	0.28786432655795713	28.659200136519036
O	29.314579635595646	-0.8370381467563621	28.363939107880714
O	28.53106810066031	-2.00531138064265	28.32847588972465
O	29.429112288632705	1.5022698435125605	28.96275779442165
O	30.18932285205865	1.5144348797563694	27.668999323668228
O	30.91783390332641	0.2738762714333691	27.27968921717203
O	30.322386850202008	-0.979537221343016	27.181461645560248
O	31.66319870159883	0.4649069382222498	28.501623979954594
O	31.871550926659186	-0.7581610074943653	29.077673519946263
O	31.273509245252384	-2.059693716446207	28.899314328069437
O	30.932165891565475	-2.315679267528039	27.405209590779062
O	33.004341982321	1.010408599149768	28.00473741092854
O	33.797180221240964	0.3285066193116595	28.971662220443598
O	33.275114203884186	-0.9946765239742899	28.28167514092406
O	32.26029854837857	-0.6277240803310409	30.559415607984548
