20

O	34.96065957089302	-1.9550439642283126	25.853853204107256
O	30.735762406541273	-1.232717995022864	28.300637585246015
O	30.922230200480268	-2.5301083240095377	27.576387017282162
O	25.723691065636366	-1.1604743285883916	26.928283732512643
O	32.17315360781132	-2.8535584990900955	26.930452935165796
O	32.79378519582558	-1.5673059156985558	26.60062384737779
O	32.39097875634978	-1.464424183235319	25.19053655006126
O	34.25393402773283	-1.4750853418373628	26.693122319697817
O	34.57596892271536	-0.44158996011782337	27.790689183783257
O	33.355076273839025	0.3795793290059134	28.106767121527167
O	32.411526120161575	-0.2642735913355021	27.14415295917581
O	31.09263078057285	0.0303018728429042	27.624313186659307
O	30.931305286883592	1.1795821075688466	28.52458594556365
O	29.536354908477893	1.4301124005682733	29.01245226602165
O	28.720986112783233	0.27733336177301904	28.51253121569555
O	27.414651447503054	0.3753722242088905	28.034421879477758
O	26.947224407709992	-0.6595987994219044	27.227209741474525
O	28.020500483068627	-1.433422446559456	26.702344329332877
O	28.555177391589954	-2.0198240447980442	27.897366936871336
O	29.270313586900755	-0.9756955159359958	28.52719841490735
