22

O	32.97488405433472	-1.4657771781704443	27.577569397340476
O	32.485703047165885	1.0543195958495313	25.982560064599927
O	27.43312060958092	-2.267085423722239	27.23323165621542
O	28.78791963718924	-2.2410162895274235	27.71404748275089
O	30.13477729642169	-2.5674431988686157	27.393152132380592
O	31.222352615585454	-1.6334860973570995	27.85217891651528
O	31.115136268443955	-1.2884612797123038	29.072542880878018
O	31.124347856790763	0.0413441606378393	28.76902432523153
O	30.357844351327625	0.805070733383138	28.41187771769182
O	30.288444296717078	0.6308894314655936	27.09982099835136
O	30.99311649785973	0.2584499187362686	25.98811745401765
O	30.23041406957522	-0.5938100016537894	25.11860576291404
O	28.934092360558836	-0.6171579152945843	25.17493473066276
O	27.86953968629327	-1.1491151191602782	24.38526216730947
O	28.04595837556115	0.0694976141578818	26.037972520175316
O	28.901350351625236	0.5285097596741637	26.997657373716272
O	29.802179867646785	1.928676720587168	29.310752339407212
O	30.82351330400485	2.2816926638501203	30.138115321294983
O	31.413184487330152	0.5742281986436388	30.382147223838178
O	30.03160810888906	-0.0032110826396340997	30.889454713159097
O	29.78091915705129	-1.6808919673397142	29.592816184044004
O	28.512636123363247	-1.8776068299913442	28.95578553194057
