26

O	32.046473724659116	-0.2976310579207773	24.642123549776322
O	32.97243683234599	-0.9302488703197728	27.904204251450707
O	26.304579329827696	-2.0575956648962173	26.276354193179387
O	31.621994112697948	-0.3195587172276035	26.077133164217077
O	31.006064917536587	-1.5867097287372833	26.56726505754736
O	31.449031522997725	-2.015178715586973	27.982956866846042
O	30.835246191346613	-0.8524659842269333	28.812060765404897
O	29.448033206236666	-0.9161674315677667	28.385731795960556
O	28.96923594342375	-2.236056129256295	28.282178039921323
O	28.411480957876996	-2.4973383622311514	26.97284724629337
O	27.375649656822233	-1.5508270311796144	26.935371437853
O	28.047610108836775	-0.3322762859708707	26.673869434198465
O	29.120733608282453	0.01333234100810636	27.409649858253157
O	29.465716700059367	1.4336941523832234	27.424906728843496
O	30.566014112177236	1.6445421640633844	28.421196666637822
O	31.32811151732342	0.422177365569527	28.34301139922949
O	31.604813357068313	0.7289134705835649	26.982726437796494
O	32.58476664846954	1.8322832604453898	26.971753686460843
O	33.687167769069845	0.8940445251960628	26.710293211295845
O	32.837069305398714	-0.31410500408428704	26.765357790812153
O	33.997958845530704	-0.5741508821333925	28.756454941250485
O	33.92936190068783	0.7245136364015781	29.25569430263557
O	34.975930064076884	1.6000034298456018	29.312395421898515
O	36.24016627169026	1.156132878498583	28.921647693307268
O	36.275981168600694	-0.23994949269627436	28.927784939070644
O	35.23994167028613	-0.8179263760969739	28.17992022014643
