86

O	0.5931543492126989	0.1243066899523807	-1.8126961667023809
O	1.519906869212699	4.4863813699523805	-1.371427321702381
O	2.0026754192126988	0.9256691684523807	-1.2489727557023809
O	1.668720979212699	-0.5916145200476194	-1.108360779702381
O	1.772885989212699	-0.3027080400476193	0.42160977129761906
O	0.9568022992126988	-1.6378227800476193	0.2081194182976191
O	0.24247066721269883	-1.1017961300476196	1.366849323297619
O	-0.7476825487873011	-1.0573792000476194	0.006913546297619089
O	-0.06174368578730116	0.0614368039523806	-0.5952225927023809
O	0.8336745092126989	0.7016875109523806	0.34302527829761914
O	-0.4597847607873012	1.0067391023523806	0.9362565032976191
O	0.5673136192126988	1.5620915089523808	1.535435173297619
O	-1.1630378677873012	1.5784376189523806	-0.2613851777023809
O	1.4368342192126988	2.763261419952381	1.350266743297619
O	1.9165512792126989	3.7272418099523805	2.180719173297619
O	2.5165312192126987	3.1425640799523804	3.261394083297619
O	2.1918863992126987	1.8508305449523808	3.562844953297619
O	1.6263384192126988	1.1795102129523807	2.5144683832976193
O	-1.0353630937873013	2.7826964899523805	0.23073058229761917
O	-0.4741286577873012	4.0802741499523805	-0.17511504270238087
O	0.17668773221269884	4.0488072599523806	-1.362142144702381
O	-0.38620968678730117	3.0770608399523804	-2.084805556702381
O	-1.064083999787301	1.8993666859523808	-1.573600556702381
O	-13.110137840787301	-3.703855500047619	-0.5853088647023809
O	-12.160400440787301	-0.9340253600476193	1.792501003297619
O	-7.837730230787301	7.3555870899523805	9.20762896329762
O	-5.812213050787301	4.318398079952381	8.19428602329762
O	-3.942076490787301	6.359559079952381	5.600974703297619
O	-7.187817750787302	7.69503762995238	4.207639313297618
O	-8.6070930907873	4.154972229952381	4.152330563297618
O	-5.431048380787301	2.845424859952381	2.4003443232976194
O	-5.198878870787301	5.88429611995238	0.08152236929761908
O	-8.7347481507873	5.54202538995238	-1.0280248057023809
O	-8.236393080787302	1.7966325119523807	-1.625725726702381
O	-5.192730660787301	2.3389118999523806	-3.7191308867023807
O	-6.798619360787301	5.04423754995238	-5.881123466702381
O	-9.6004973907873	2.6779678899523804	-6.799071756702381
O	-7.189835810787301	-0.10650781004761944	-7.694210756702381
O	-5.433510520787301	2.1788486899523805	-10.09037793670238
O	-8.405824790787301	2.2570552399523804	-12.47468526670238
O	-4.787889500787301	-1.6812494300476195	-13.00139306670238
O	5.491597439212699	0.5271925339523806	-12.21197226670238
O	2.117199449212699	1.2603312439523806	-10.55177226670238
O	3.421417379212699	0.9457078499523807	-6.998815216702381
O	5.4464536692126995	-2.2188017400476197	-7.6525387467023815
O	2.2157666392126987	-3.648741870047619	-9.20919769670238
O	0.011754701212698837	-2.6946460000476193	-6.250617996702381
O	2.617312689212699	-4.136624450047619	-3.8909734567023806
O	3.100442989212699	-7.49094775004762	-5.6339566967023815
O	-0.6924041691873012	-7.775251220047619	-5.556819366702381
O	-0.8712028597873012	-6.98141694004762	-1.810391686702381
O	1.8840193492126986	-9.576354080047619	-1.0663207157023809
O	-1.5222338307873011	-11.76031408004762	2.0107050032976193
O	-1.2713501457873013	-7.803597530047619	5.136086503297618
O	-4.566106990787301	-8.204887190047618	3.2944635032976195
O	-5.088437380787301	-4.699473730047619	1.910768573297619
O	-8.6900057507873	-5.773677570047619	1.314179263297619
O	-12.371887640787302	-6.475891230047619	5.047917223297619
O	-9.037584340787301	-4.92306414004762	5.940137443297619
O	-6.455763810787301	-7.329106510047619	7.291369413297619
O	1.1939280592126988	-0.12648510004761937	10.84209373329762
O	1.3729856192126988	6.01393967995238	10.98767693329762
O	7.378666629212699	5.444639869952381	9.29446376329762
O	4.895418019212698	2.8872533599523806	7.913606503297619
O	5.773001409212698	-0.2267699800476194	9.945535233297619
O	9.071368859212699	-0.20194925004761932	8.07748106329762
O	7.348239359212698	-0.7296977400476193	4.851603123297619
O	4.9192623492126994	-3.240411220047619	6.460155163297618
O	7.8744285192126995	-5.21834036004762	7.677485563297618
O	9.3433908492127	-5.47785003004762	4.155869733297619
O	5.987694359212698	-6.4217167600476195	2.5803862132976194
O	5.2652994692126995	-9.07106828004762	5.220204843297619
O	4.812171179212699	-12.454730780047619	1.537209423297619
O	4.722912499212699	-3.614768050047619	-15.92360216670238
O	9.9585763592127	-1.4172847300476197	-1.3952610917023809
O	8.2693586892127	0.6872326429523807	-4.086298356702381
O	11.0515915592127	3.2698077499523803	-3.929243676702381
O	10.943613759212699	3.3480064499523805	-0.1861391217023809
O	7.2004151692126985	3.5493279499523807	-0.4635085755523809
O	7.241723799212698	6.54820182995238	-2.743248716702381
O	9.7076453592127	8.164582119952382	-0.3697205506023809
O	7.274436839212699	7.66400695995238	2.5111679032976193
O	4.299587399212699	8.818681969952381	0.4659966662976191
O	6.132257549212699	11.904851619952382	-0.6159397407023809
O	-1.6443906507873012	13.72710211995238	2.891873053297619
O	-2.4651249807873015	10.90968619995238	0.44972753929761916
