93

O	0.830608747064516	-0.29672779617741973	1.7191749632580644
O	0.5107985570645159	-0.6765324061774196	0.2568456252580642
O	-0.06816033293548407	0.44791991382258045	-0.34287564074193577
O	-0.678512740935484	0.35590033382258035	-1.7074156567419358
O	-1.590134884935484	-0.6674462961774195	-1.451033728741936
O	-2.763672212935484	-0.6510776361774195	-2.1455067967419357
O	-3.450404532935484	0.5616517738225804	-1.9431120167419358
O	-2.732637892935484	1.7208208017925803	-1.8296454767419357
O	-2.863708622935484	2.39807133482258	-0.5845000167419357
O	-3.196264572935484	1.6587058410225803	0.5198736032580642
O	-4.232169592935484	0.7887037598225803	0.11500866525806419
O	-4.610753672935484	-0.36880131617741974	0.7406847732580641
O	-3.523214462935484	-0.9922803761774195	1.2551342832580643
O	-2.487187512935484	-0.29238431617741956	1.7915496532580641
O	-2.404996632935484	1.0147107088225804	1.3995641032580644
O	-1.416092079935484	1.4495255098225803	-2.067084186741936
O	0.20847917706451602	1.6749731020225804	-0.0905147517419358
O	1.376189017064516	1.5228114738225804	-1.0591309257419357
O	2.5246966170645164	1.7836952480225803	-0.4335813227419358
O	3.077670097064516	3.0370691138225805	-0.7939415668419357
O	2.4354968970645157	3.9726327238225805	-1.4498935407419358
O	1.9278003670645159	5.04197620382258	-0.7075634501479358
O	1.9059891470645158	3.2626189538225803	-2.4954592267419358
O	1.2246737070645162	2.0384067668225803	-2.286383566741936
O	-0.37739624493548396	2.89413306382258	-0.45458997174193577
O	-0.4747978649354839	3.6097042338225807	-1.6075915237419358
O	-1.150714442335484	4.76228817382258	-1.7690990767419357
O	-1.860270922935484	5.31051663382258	-0.7690703657419358
O	-3.121440372935484	5.851934273822581	-0.7480440440419358
O	-1.413553231935484	4.845383863822581	0.4226867432580643
O	-0.538437160935484	3.7543807738225805	0.5848643432580642
O	6.690010357064516	2.9564400938225806	-10.823366916741936
O	-2.514014362935484	-1.8717096861774198	-9.994479076741936
O	-4.253336132935484	0.6704149938225803	-7.732832776741936
O	-3.5484791029354836	3.44914282382258	-10.149242126741937
O	0.06194220706451592	2.26158139682258	-10.262611186741937
O	0.21430211706451607	2.2060466758225803	-6.490688486741935
O	-1.712050052935484	5.44541145382258	-6.151312906741936
O	0.49431653706451595	7.30329279382258	-8.478817686741936
O	3.657580337064516	6.034457663822581	-6.865104936741935
O	2.3519234070645156	7.23117887382258	-3.4449194167419357
O	1.537623137064516	10.60120962382258	-4.478453606741936
O	5.092038827064516	11.19729194382258	-5.793801236741936
O	6.623015257064516	9.90628265382258	-2.5164334967419357
O	4.681071967064516	12.525092333822581	-0.5749307547419358
O	1.6612225370645162	10.013550873822581	10.117767283258063
O	2.0888025670645156	10.01966229382258	6.311377053258065
O	0.5822099070645159	6.48415569382258	5.802116643258064
O	2.5774523670645157	4.95145021382258	8.698627513258064
O	5.689028307064516	6.607102433822581	7.161232933258065
O	5.009335537064516	5.27276981382258	3.744678053258064
O	4.311934277064516	1.8153036978225803	5.153892893258065
O	7.4138474570645165	1.5767022468225804	7.320798963258064
O	7.800077307064516	-0.2230890361774196	2.143412383258064
O	8.438765847064516	-2.8395112461774197	4.844264423258064
O	6.579210517064515	-6.259669726177419	-1.1842552917419358
O	9.034607157064515	-3.9986572761774193	-3.008114996741936
O	6.830773177064516	-1.1014244861774198	-3.8891064967419355
O	9.460897557064516	0.0597223338225803	-6.346561736741935
O	10.380300557064515	-2.30438723617742	-10.944186916741936
O	7.318737707064516	-3.27831245617742	-8.926069536741936
O	7.808794007064515	-6.287394686177419	-6.684877176741936
O	4.455561857064516	-7.73601117617742	-5.654575116741936
O	-2.7308503629354837	-8.31124356617742	-3.977645706741936
O	-6.434128132935484	-8.51434716617742	-7.605529386741935
O	-8.027261632935483	-5.64585748617742	-5.683606656741936
O	-10.914651652935484	-6.04165737617742	-3.273696866741936
O	-9.762815482935483	-6.21094591617742	0.3493796032580643
O	-6.1484021829354845	-5.63250892617742	-0.3876352957419358
O	-4.458180352935484	-8.95793016617742	0.32871509325806425
O	-5.396133812935484	-8.32980316617742	3.9500382732580643
O	-3.186046272935484	-5.27892203617742	4.0608078832580645
O	-0.496926341935484	-7.06396854617742	2.041773453258064
O	-0.506886703935484	-9.91242086617742	4.5616490832580645
O	0.07728116706451593	-7.45168416617742	7.434486393258065
O	2.831247677064516	-5.55427663617742	5.586089593258064
O	4.607709427064516	-8.80616436617742	4.620075813258064
O	4.430997397064516	-10.05235536617742	8.187482483258064
O	8.738101897064515	-7.20372310617742	6.939844653258064
O	9.295735857064516	-10.73325256617742	8.214026723258064
O	-1.918493630935484	-1.2093070261774197	9.296793183258064
O	-2.1568416129354837	2.4978535298225806	8.676916883258064
O	-5.625893052935484	2.6894696698225804	10.273213583258064
O	-6.807391602935485	-0.34656786617741986	8.414432513258063
O	-5.240508532935484	1.1570851428225803	5.3824475032580645
O	-7.116543002935484	4.4403553438225805	5.620915363258065
O	-10.273990862935484	2.42033996382258	6.050925043258064
O	-9.570374142935485	0.5339702338225805	2.7939038832580643
O	-8.488873342935484	3.6781860238225805	0.9057530232580642
O	-11.690089442935484	5.41987804382258	2.033974683258064
O	-11.903083142935484	3.55601116382258	-3.6709863667419356
O	-10.706607432935485	5.626823923822581	-6.636543716741936
O	-7.237603832935484	6.5488673638225805	-5.391426976741935
