89

O	0.8760027662153842	-1.432794199083077	-1.0682865273046154
O	-0.4975104807846159	-1.327103909083077	-0.6013568382046154
O	-1.071541593784616	-0.2909260490830773	-1.1362729593046155
O	1.732678836215384	-0.3411852590830772	-1.3494257293046155
O	0.9840711962153841	0.8196903221169228	-1.0739066393046155
O	1.481378146215384	1.8447640809169226	-0.10083497730461544
O	0.3817004462153841	2.751320940916923	0.22685108869538462
O	-0.843678817784616	2.3460230909169226	-0.3465053243046154
O	-1.8853006647846158	2.4593031709169226	0.6100142926953845
O	-1.6356154397846159	3.639259390916923	1.4469692026953846
O	-3.039246313784616	4.016535940916922	1.7602682626953845
O	-3.958473453784616	3.263334300916923	0.7907975126953847
O	-3.1244922337846157	2.554698400916923	-0.17868392230461538
O	-2.836367473784616	3.554571270916923	-1.2926853823046154
O	-3.363237933784616	1.2624780829169229	-0.7962339873046154
O	-2.466089363784616	1.2033108089169229	-2.0481757873046154
O	-1.1896489058846158	1.7514277319169227	-1.5743008973046155
O	-0.2311626957846159	0.6654199639169228	-1.7526344873046154
O	-0.49138028378461585	-1.456111799083077	0.8221938326953847
O	-0.9916602277846158	-0.6823502490830772	1.7263965126953846
O	-0.39309812378461584	0.4097398349169228	2.2237311526953847
O	0.838079486215384	0.6140917979169228	2.9572400226953843
O	1.1005386962153842	-2.5341907890830773	-1.7689416473046156
O	-4.845709723784616	4.0815443109169225	0.12530357969538464
O	0.4975007462153842	-9.646052329083078	-8.324310687304616
O	-2.011528648784616	-11.330322729083077	-6.079571567304615
O	-4.760395933784616	-9.848837029083077	-3.9811374573046154
O	-12.470088093784614	-4.313206289083078	3.1929115726953845
O	-8.712438543784616	-3.975364289083077	3.6589135726953845
O	-8.701505893784617	-0.6373392890830772	1.8841773626953846
O	-10.749013803784617	-2.110642769083077	-0.9709839403046154
O	-8.307290813784615	-5.017843529083078	-1.0717009533046153
O	-5.3177225337846155	-2.658698179083077	-1.0425715843046155
O	-6.886299773784616	-0.1738376990830771	-3.3816729473046157
O	-7.7039975937846155	-2.826708339083077	-5.870897687304615
O	-4.194911543784616	-4.2423830390830775	-5.675901637304616
O	-2.645701893784616	-0.8088619890830772	-6.184065317304616
O	-4.8227713037846165	-0.08338037708307722	-9.208205967304616
O	-3.753955633784616	-3.286789069083077	-10.989587747304615
O	-0.08464940378461594	-2.5597326790830772	-10.335622987304616
O	-0.47139088278461594	0.7807044813169228	-12.044425547304616
O	2.199239226215384	-2.8202572190830772	-15.018167547304616
O	4.0616062162153845	0.25003817391692273	-13.764793747304616
O	6.133918436215384	9.274109540916923	-8.730303447304616
O	3.5397787562153837	6.454302290916923	-8.868117147304616
O	2.9328161562153845	6.210996590916922	-5.095163757304616
O	6.692019126215384	6.3454943609169225	-4.295112637304615
O	7.250852176215385	3.597792000916923	-6.925299707304616
O	4.487925766215384	1.4078355689169229	-5.408167797304616
O	5.917695956215384	1.9856187009169228	-1.9527199473046153
O	9.538266606215384	1.2013857409169229	-2.7756181173046155
O	8.312427896215382	-2.009637829083077	-4.377211807304615
O	6.297986996215384	-2.9684917190830773	-1.2573202623046154
O	9.234619406215383	-2.274463219083077	1.0139327826953846
O	8.722826826215385	-7.117924749083078	2.5554803226953844
O	4.433190376215384	-5.931978119083078	4.888950562695385
O	4.041099836215384	-8.227494429083077	1.8590989826953845
O	1.3073137562153843	-6.355921849083077	-0.08619476030461537
O	0.9266071762153842	-9.613971829083077	-2.1260126473046155
O	2.077018646215384	-13.227635629083078	-1.6007014043046155
O	-1.422524790784616	-13.995437929083078	-0.31728575430461536
O	-1.6229067167846158	-10.781273929083078	1.7160311726953843
O	1.028988346215384	-10.441204429083077	4.435136962695385
O	0.05755033621538419	-7.793432479083078	7.0178593626953845
O	-3.0780996737846156	-1.620659199083077	9.745133252695384
O	-8.016075553784617	-1.4746654690830772	11.159119752695384
O	-8.203961573784616	1.6734903329169226	9.063601102695385
O	-4.673697683784615	6.690139990916922	10.402654952695384
O	-3.091350333784616	3.812959040916923	8.424163142695384
O	-0.7998588727846159	2.2344946109169226	11.068022652695385
O	1.208137506215384	5.454323510916923	10.881530852695384
O	1.9693291662153842	4.750885310916923	7.221635832695385
O	2.536060406215384	1.0499176879169227	7.958698282695385
O	5.0251471062153845	2.006236570916923	10.653329852695384
O	7.0301757462153835	4.118969660916923	8.189542182695385
O	6.926840036215384	1.4459662789169228	5.457445862695384
O	8.045146876215384	-1.2620345290830772	7.917673102695385
O	12.016363606215386	-2.219369919083077	5.0148225126953845
O	5.785662856215384	8.375352690916923	3.0113938326953846
O	4.278408406215384	9.035097550916923	-0.3964182473046154
O	3.306784876215384	12.595592270916923	0.6034520326953846
O	1.8717669562153842	11.413563870916922	3.8515253426953846
O	0.197771646215384	8.589362660916922	1.9045058226953846
O	-1.4813924447846158	10.992913270916922	-0.5035012913046154
O	-2.6440066737846157	13.013577870916922	2.4597051726953847
O	-4.254188323784616	9.929230530916923	3.9983396826953843
O	-5.712054033784616	8.753171810916923	0.6832876226953847
O	-13.123667693784615	5.772808680916922	-0.5871353605046153
O	-10.171397293784615	4.439522440916923	-2.6461740873046153
