27

O	35.68234601170518	-1.3594574905944021	28.786893767360734
O	26.57806045050919	-1.7679441251359373	26.243301708007024
O	36.878222045720946	-1.2798699073004098	29.525693224737193
O	34.3550509560127	0.959322604961379	26.210406696152432
O	37.53237395280512	-0.07212125974694644	29.4451396951996
O	36.73259401694543	1.0325989811955083	29.220668143105023
O	35.49985058240493	0.7709348150539215	28.623026684702197
O	34.83223921296112	-0.3337164291573565	29.19717952657307
O	33.378298480979765	-0.28932552446881155	29.042158788888607
O	32.94177691079666	0.7974511720462614	28.197352732015855
O	32.215869241507676	1.3543645844794086	27.038988347078046
O	31.61917965929607	0.013081374784750743	26.932320686556587
O	31.388954488112866	0.07408661008673784	28.451624297642933
O	30.77735356050294	1.3319488177365193	28.835170458991833
O	29.724510770257126	1.4284417359924493	27.777024301508114
O	29.313509297436276	0.054224531252911934	27.44656314466932
O	28.233786280049294	-0.11175927825786419	26.652967338574797
O	27.869402029903586	-1.4637521740521318	26.383536818989235
O	29.03479443393493	-1.9173128415313965	25.72845475010266
O	30.102696923325873	-1.9281048597305417	26.582867503221678
O	29.800099775175134	-1.2176244714449633	27.79411141983371
O	30.86525606057746	-1.1714449030258005	28.78097224036285
O	31.65748139914475	-2.3302869185921007	28.428681110150304
O	32.786591850107854	-2.024184873032639	27.564619473264024
O	32.82116984231747	-0.8282439753978628	26.753455481579383
O	33.385335518644894	-1.03059986245779	25.436683598312374
O	33.77510012722686	0.2636871115084161	27.172989699797125
