86

O	-2.092793907046154	-4.337673474092307	-1.8676544767846157
O	-0.06091983504615428	-5.887187294092308	-0.8427902697846157
O	1.2660003329538458	0.7445497159076921	-0.18137017778461567
O	0.5200737229538457	1.8204974759076922	-2.237254116784616
O	0.2904487629538457	1.5753603759076922	-0.8462741967846157
O	0.8910755329538458	-0.528871002092308	0.3145105392153843
O	-0.37181713804615424	-1.7080763140923076	-1.0663796257846156
O	-1.8605552670461543	-1.7725985640923076	-1.0886389637846157
O	-0.7347983520461543	-2.861446254092308	0.9486979832153843
O	-0.7777571187461543	-3.7809511340923083	-1.5100880447846157
O	0.2892607329538457	-4.014946104092307	0.6756546232153844
O	-0.9254135477461543	1.3352119789076922	-0.31610802778461566
O	-1.2530186510461543	-0.06983675409230788	-0.5305298197846157
O	-0.3772672880461543	-2.952139034092308	-2.7360792967846157
O	-0.33521878304615427	-0.8735756840923079	-0.14612885978461565
O	-1.4521326080461543	-3.073293284092308	-0.38865809878461566
O	-0.2806927780461542	-1.4017029540923078	-2.4772530667846158
O	0.15823240295384577	-4.532015624092308	-0.7520927528846156
O	2.533806212953846	0.6762145709076921	-0.7038469245846156
O	-1.7510720740461543	2.129290945907692	-1.0614583127846156
O	-2.6136737270461543	-0.1901324650923079	-0.7876482487846157
O	1.0043330829538457	8.422020905907692	-10.846198196784615
O	2.455400982953846	4.954764065907693	-11.105368696784616
O	6.932101072953846	-6.107063694092307	-10.552380736784615
O	6.626666242953846	-3.920640134092308	-7.495876126784616
O	3.404309662953846	-5.678978024092308	-6.488470936784616
O	2.0048273229538456	-5.240571564092307	-9.960103906784616
O	3.0243688829538455	-1.5856554940923078	-9.857318336784616
O	1.4028703529538458	-1.1593465240923078	-6.462091566784616
O	-1.6899066960461542	-3.274288904092308	-7.429733226784616
O	-2.2838301870461546	-1.2598587340923078	-10.397747456784616
O	-1.9321544170461542	2.011167865907692	-8.516720366784616
O	-4.367071247046154	0.8809744589076921	-5.827415586784616
O	-6.987888377046154	-0.24493558609230787	-8.336294226784617
O	-7.009597117046154	3.175951805907692	-10.040756896784615
O	-7.349747407046154	4.969408035907692	-6.699368926784615
O	-10.453554867046154	2.950394345907692	-5.965709686784615
O	-11.521758837046153	8.068489255907693	-7.298656746784616
O	-12.337891037046154	6.8933996059076925	-3.7769566667846153
O	-13.002668237046155	0.7406029459076922	4.815419293215385
O	-11.330617537046153	0.9609143779076921	1.3896103532153845
O	-7.923841977046155	-0.3611081720923079	2.547765653215384
O	-7.859465737046154	1.855915445907692	5.686894203215385
O	-8.759465567046155	4.847019535907692	3.429046413215384
O	-6.007488917046154	4.086897325907692	0.9568707832153844
O	-3.511920607046154	3.583711685907692	3.8141775232153847
O	-4.340249197046154	6.807788895907692	5.657802703215385
O	-3.8766375370461543	8.634062235907692	2.3518426232153846
O	-0.43056140704615425	6.971292865907692	1.7664406532153845
O	0.6912560429538457	7.878380915907693	5.293307753215385
O	4.536858262953846	10.315997505907692	3.000285793215384
O	6.558895472953846	5.941732585907692	1.5978892632153843
O	5.213350802953846	8.118833455907692	-1.2541602367846156
O	3.0213127129538457	5.761867675907692	-3.1623143767846154
O	3.001468322953846	8.051937025907693	-6.026426226784616
O	7.126510442953846	8.946861425907693	-9.213032866784616
O	7.272375482953846	6.0661568659076925	-6.758545286784615
O	8.978315782953846	6.868942895907693	-3.450212186784616
O	9.750052962953847	-3.414005154092308	0.6628075232153843
O	11.617151662953846	-7.2541373640923075	-2.2179386167846156
O	8.259179422953846	-8.903041824092307	-1.6219425687846156
O	6.247732082953846	-10.300082204092307	4.189932593215384
O	5.845254222953845	-6.713594184092307	2.9400760832153843
O	8.502512302953846	-4.845481944092308	4.944884053215384
O	6.386744432953845	-5.6302144340923075	8.016547803215385
O	3.523631742953846	-3.576777024092308	6.577801213215385
O	6.0078101129538455	-0.9121306740923079	5.4171313332153845
O	7.348996672953845	-0.6442556040923078	8.887473113215384
O	3.8702708929538456	-0.0290924530923079	10.337349103215384
O	2.9338110529538457	2.516862315907692	7.653418953215384
O	6.235707202953845	4.4109273959076924	8.089876243215384
O	5.767019072953846	4.514708945907692	11.845930203215385
O	3.633684092953846	8.554768255907693	9.073988263215385
O	6.192081102953845	9.400477735907693	11.738278303215385
O	-2.5209678470461543	-2.263498854092308	9.426479003215384
O	-5.528393717046154	-2.722585394092308	7.134007913215385
O	-6.300537177046154	-6.1015434140923075	8.673065023215385
O	-2.724800447046154	-7.1967717840923076	8.480970813215384
O	-2.7046338170461546	-5.8617624440923075	4.952474373215384
O	-5.706642787046154	-7.939112274092308	3.905348663215385
O	-4.025473137046154	-10.939234004092308	5.447359783215385
O	-0.9004296040461542	-10.387574904092308	3.363926373215384
O	-2.899741147046154	-9.675835304092308	0.19042070621538432
O	-4.919740377046154	-12.826530904092307	0.6881589932153844
O	-1.3040807830461543	-12.335343804092307	-7.304314686784616
O	-2.865102217046154	-8.858177884092308	-6.879004096784615
