25

O	32.30553486021237	0.0815146224897687	30.02486566477265
O	31.687204891853295	-1.1509485027961486	28.014633647190813
O	24.41959940895739	-1.8213354576892486	27.633424891398054
O	33.368044803372136	-0.4230374430594295	29.21060627689336
O	30.695075187926967	-1.1628243360780237	28.94872564093472
O	27.77153791783951	0.6372184320894698	29.337421594327044
O	34.716780270322076	-0.45986257306813383	29.44732964626046
O	33.02682092689783	-1.6545033839311958	28.255149955484306
O	31.516441132247277	0.01731360373594193	27.50259516061894
O	32.397023951348075	1.0615524892701294	27.379852981381013
O	33.66628545013991	0.8969969712340466	26.701144025690784
O	31.597732012605796	2.1955999880399726	27.48316978096358
O	30.136803128088406	2.2065343367444727	27.79064153403558
O	29.578570053959233	1.1662883374005708	27.08032532531245
O	30.135118779944623	-0.029713292815486514	27.306550350178025
O	29.651098052483054	-0.9370761116994049	28.247906639580073
O	28.251704498402333	-1.144526140182674	28.11528940007193
O	28.109074699900262	-1.8580202772648469	26.96103363740223
O	26.746746404964068	-2.31729561991002	26.913952625311637
O	25.75196704610874	-1.4865963245396834	27.337475878756795
O	26.056675927464298	-0.31609811765333373	28.04832669923254
O	27.3804300128701	-0.11451334815283709	28.29038353323347
O	34.12151049037817	-0.36971576176546206	26.314585867402748
O	33.73522538282368	1.358760412545276	25.426034081069083
O	34.838454259155974	1.4682946544951672	27.172045755763328
