25

O	32.323718112715014	-1.1466849941846795	29.053642753841572
O	33.46121284549853	-1.0907949326977024	23.788065107315745
O	32.5577513356209	0.16708808682167434	29.950773546818155
O	28.45900651190096	-1.555666012878621	24.46962443930958
O	33.5836295457967	0.381373565183723	28.83064177552355
O	34.8791251555191	0.5934409916034816	29.169011786154247
O	35.45877195619853	1.6213041195311801	28.415415748556807
O	34.92301251742521	1.6783776141721305	27.15075029594381
O	33.70412841133884	1.2361786165181357	26.724895330651076
O	32.92765007775439	0.6041744291177582	27.626992745441207
O	31.43935330805668	0.8608023785141731	27.86539098627377
O	31.186540168818446	-0.46278151600211465	28.580768343076166
O	30.668937711438044	-1.5214231546801442	28.150805027816766
O	30.948406357594997	-1.3974791866296576	26.80028814684672
O	30.812080468939904	-2.476227430408292	26.092219209216296
O	31.833099483744558	-2.475795301228674	25.052019674916835
O	32.35320300794497	-1.3296083952322044	24.55244158873625
O	31.434969947335983	-0.32019786839399556	24.833388153326908
O	30.693864405420562	-0.3086397694889994	26.06706381718046
O	29.180438247522705	-1.262760886421951	28.224040315695998
O	28.72892741039055	-0.13174365601006052	27.59013367830731
O	28.043551365185056	-0.4121575208593806	26.40969231439884
O	27.837200200658067	-1.5487752013360843	25.734251808136356
O	28.093198315250316	-2.5286436121650078	26.594453233777358
O	28.477782939468376	-2.3926629778082518	27.93208468847125
