32

O	30.995098771697318	0.3058882407254184	24.0727637238814
O	31.31141443078816	0.8975064500911418	25.344234903925052
O	31.197822886035862	-0.6913666016526064	25.161640203806982
O	30.350083452106432	-0.6838574526970246	26.343161647076847
O	30.758827475811273	0.07365388686142062	27.522786659469837
O	30.86429568661689	1.5271176201796495	27.860124723486834
O	30.757419988399192	1.8192166023133118	29.174751346923117
O	29.40249074319957	1.5340345266746247	29.413979153588606
O	28.90996194059613	0.459052543700759	28.736984518431143
O	29.754324436805778	-0.6139018118030131	28.103560502488914
O	29.801565916539694	-1.84242539834925	27.895422677494125
O	30.926077448768197	-1.8601771931007731	26.974452726474937
O	31.785993532815805	-0.6023273826932232	27.342914943531632
O	32.00160226610117	0.43683865821679035	26.379242464719475
O	33.00491690307789	0.4663044297604747	25.55397331081388
O	33.29883981667839	0.15115953937988313	24.160724165419253
O	33.463168718626264	1.4296626748322245	23.44266708235476
O	34.81110353161625	0.053010652979507314	23.849404986067277
O	33.039980369272094	-0.35523520483128956	28.01771787195743
O	33.24411353198939	-1.5978321827753308	28.549553491100472
O	33.55724128046663	-2.415968633583283	27.42738247802475
O	33.307979124853176	-2.0267984320094348	26.054241833205413
O	34.51692370558638	-1.2301112234014318	26.45984412630883
O	34.238019550423694	-0.1027951128070601	27.316750398463327
O	33.06964909895758	-3.015061331914178	24.903642922225817
O	32.76404275176434	-3.2397975302311144	23.64782055740613
O	33.255534072937984	-3.7606549394672872	22.377952586583973
O	32.498103442278804	-4.382290525440784	21.554165352616316
O	34.07062087284297	-3.459247239708377	21.31724850225545
O	32.968853959221505	-0.8008326696101186	23.216197622596564
O	34.05588173764841	1.2178176028573369	27.609774452895614
O	32.58525624252525	-1.4878349877669195	29.730377043558374
