24

O	30.051970507827388	-0.6504174985014333	23.595440659785567
O	29.21490336338845	-0.5387895452742972	24.716880678221624
O	28.368443269857643	0.2501151209124225	25.51118898272845
O	28.943618326724724	0.4737004330071972	26.81922169157573
O	30.31409339641748	-0.1634024017869693	27.0058424630711
O	30.09483420094723	-0.7801075794056413	28.40292205676943
O	28.678975228203182	-1.1783135769780855	28.543071783541123
O	27.916347286795787	-0.2261949659198843	28.97493114937209
O	26.533674230840248	-0.3201724128448418	29.15483176809148
O	25.749962791695165	-0.7083409624333123	28.11709054031592
O	24.390514499264732	-0.8898618754338276	28.39762024445662
O	26.373200641344543	-1.506919633272869	27.297206673215587
O	27.707524884230217	-1.5306808962897152	27.499586631306926
O	27.980909508127066	-2.9549017991205115	27.321771761131938
O	31.253775976601982	-1.2493751501623442	28.533411289845795
O	32.289346115440466	-0.2566750993305177	28.35553689017554
O	33.506874107438094	-0.8231241015868691	28.135380934468206
O	33.51519025088775	-1.9677603820427891	27.168650578198637
O	34.563644435788596	0.10290129150543359	28.10826748905804
O	34.309185108238694	1.4732291368927455	28.19271385956007
O	33.003616610205896	1.9597165333093292	28.270344894369416
O	32.03686376397373	1.0810296563729123	28.773882007724897
O	29.723204646101568	-1.4310443501235863	26.54009617929464
O	28.99566259575862	-1.649756939958627	25.327059516199515
