94

O	-1.9713104851166665	-1.099976566906666	0.9767274423000004
O	-3.0274547341166667	-1.8744953069066659	0.5599448033000004
O	-2.7994591141166665	-3.1846578469066658	0.3427595423000004
O	-3.603448034116666	-4.253508756906665	0.6658845123000005
O	-1.6645458181166664	-3.373628266906666	-0.39332182899999957
O	-0.7721455301166664	-2.326305326906666	-0.5948584096999996
O	0.3829515258833336	-1.838890176906666	-1.8274627176999996
O	1.1115880558833335	-0.5515200169066659	-0.9491125316999995
O	2.260586545883333	0.3875630440933342	-1.2344581806999995
O	1.8781056158833336	1.5380095080933343	-1.8438861276999994
O	1.9695647558833336	2.6757203530933342	-1.0270589766999996
O	3.2797305858833337	2.8382046530933343	-0.5725209176999996
O	4.139808515883333	3.867158923093334	-0.8465379656999996
O	3.569308635883333	1.7211771230933341	0.16114136630000042
O	3.3822337258833333	0.4820855690933342	-0.4830728666999996
O	-0.8329444661166665	-1.1919289569066658	0.2289719423000004
O	0.4170314458833335	-0.6938378169066657	0.24719748330000035
O	1.0393912958833333	0.07557417309333414	1.3405674423000002
O	2.0713209858833332	-0.49349587690666574	1.7363796423000002
O	0.4912135358833336	1.3493699789733342	1.6290211023000003
O	-0.8579373311166665	1.3824268541933342	1.5570167123000003
O	-1.6958935941166664	2.158599952093334	2.3596787123000005
O	-1.1026677731166665	3.401973693093334	2.5531749223
O	0.17615544588333343	3.243125223093334	2.9645972123
O	1.0534609358833336	2.326755444093334	2.3581181923
O	-1.9710022121166664	4.433445373093335	2.6893195123000004
O	-2.368177614116666	4.876111453093334	3.9066031923000004
O	-3.1269319541166665	6.137009913093335	3.7001852723000006
O	-4.485907334116667	5.7388025330933345	3.7715081923000007
O	-5.088467964116666	6.582840343093334	2.8366488723000005
O	-6.549432284116667	6.762310363093334	3.0015573123
O	-6.982820804116667	5.6998426430933335	3.9138580023000005
O	-6.391857584116667	6.237427263093334	5.2139027723
O	-4.932492584116667	6.097305203093335	5.0650611323
O	-4.782386954116666	-9.659057576906665	8.449590722300002
O	-2.0676800481166664	-7.321792636906666	9.619594322300001
O	6.795470975883333	0.1061073530933343	12.348121262300001
O	6.431893825883333	-1.4050879369066656	8.881708732300002
O	4.772430095883333	1.7742376070933341	7.640916932300001
O	2.4003426958833334	1.7880256210933343	10.524660762300002
O	1.6849473158833337	-1.8750907669066659	9.868620062300002
O	1.0808894458833336	-1.1986998469066656	6.174516032300001
O	-0.7629644801166664	1.9736974040933344	6.736830852300001
O	-3.066538064116666	0.2993639930933343	9.265423752300002
O	-3.7277428641166663	-2.4876248069066658	6.8475124323
O	-4.5910622341166665	-0.05191387690666582	4.0424247523000005
O	-7.111330544116667	1.4829647530933343	6.2443888323
O	-9.034063814116665	-1.3823095669066658	6.9655013723
O	-9.194647454116666	-2.4622094169066657	3.3306323823
O	-10.718557914116667	0.8056130550933343	2.3683369123
O	-13.992224854116667	-0.07498128690666572	4.1471584423
O	-13.400942854116666	-1.4885156969066657	-0.9583688346999996
O	-8.995448864116666	8.595879883093334	-8.1061522577
O	-8.770199994116666	4.838023423093334	-8.064437647699998
O	-8.427149514116666	3.5878200630933343	-4.460918577699999
O	-4.663799724116666	3.236564303093334	-4.5554211577
O	-4.639368814116667	1.4692548390933342	-7.9437198677
O	-7.396769014116667	-0.8386390069066656	-6.5544433177
O	-5.419013374116667	-1.6437011869066658	-3.4453239976999996
O	-2.3017387941166665	-2.259285566906666	-5.569165797699999
O	-3.9611883641166665	-4.5377395969066665	-8.1604344877
O	-5.341452564116667	-6.527044966906665	-5.2425387877
O	-1.9013794641166664	-6.817308356906667	-3.6077815277
O	-0.3235197681166665	-7.976117056906666	-6.9496437477
O	1.2800184158833334	-12.047842176906666	-4.3773526476999995
O	4.479958675883333	-9.207758076906666	-1.7413181476999995
O	1.6049852258833337	-10.615682476906667	0.2518313933000004
O	0.2814266158833336	-7.519491706906667	2.0230742023
O	-1.6097225891166664	-9.937664576906666	4.308791552300001
O	0.6282443258833335	-12.936202576906666	8.0338251323
O	2.700978595883334	-10.298392376906666	6.2792508123
O	11.650441845883334	2.5811146130933342	4.570046892300001
O	13.181210145883334	5.405988503093335	2.5480720623
O	12.238782145883333	5.181756823093334	-1.1303611146999994
O	9.916706845883333	2.1869484830933343	-0.7063518196999996
O	11.364024545883334	1.3044181564933341	-5.6624173577
O	7.588165535883332	0.8112825040933342	-5.2561527877
O	8.094099835883334	-2.7708069969066655	-4.113146867699999
O	7.382380445883333	-2.2145200869066657	-9.483408377699998
O	4.6883168558833335	-4.187470836906666	-7.6651579477
O	2.986945205883333	-9.715088776906667	-10.0633374577
O	-12.783105454116667	1.8116621820933343	-10.4963093377
O	-0.25278930811666644	4.445740503093335	-7.905654527699999
O	1.0550378858833336	7.854908343093335	-8.9639664777
O	4.517852245883334	7.104063963093335	-7.7851204477
O	2.9088370958833334	5.686583443093335	-4.6410903477
O	0.9995264758833333	8.873552963093335	-3.9241935477
O	4.192284285883333	10.776096693093335	-4.3981541477
O	5.953987475883333	8.568446563093334	-1.8285750076999996
O	3.0956395758833333	8.738833183093334	0.6065812813000004
O	2.911026935883333	12.461854323093334	0.32992780030000046
O	5.499822155883333	10.510690713093334	5.370206152300001
O	3.732766695883333	9.753457733093335	8.644565022300002
O	1.1373472358833336	7.443087833093335	7.3383075123
