81

O	-0.3898051441666661	-3.8322443574530305	2.0099159176030303
O	-0.9145234181666662	-2.5041065474530306	3.966152797603031
O	0.8845912708333339	-1.9062471774530303	2.7055012176030306
O	0.6857450708333339	-1.5686064774530304	-0.5482847063969696
O	-1.052658922466666	-3.2427309774530304	-0.7188934523969697
O	-2.023533461166666	1.3554398625469697	-0.48404349039696964
O	-2.6225645891666662	-0.07619234045303033	-2.0556640323969697
O	-1.0783027597666661	0.45251975854696963	0.06853463860303033
O	-2.328276939166666	-1.0427655274530303	-1.1331420723969696
O	-0.9031246661666661	-1.8532996874530303	1.3943091376030303
O	-2.3792044291666663	1.2385912725469697	-1.7981241823969696
O	-1.317411986166666	-0.8724904144530303	-0.24013593699696967
O	-0.4209365141666661	-2.4667943974530306	2.59527545760303
O	-0.5102962211666661	-2.1129951374530305	0.07180820060303034
O	-2.284179069166666	2.0363512325469695	-2.9143793723969695
O	-6.835399209166666	4.07911817254697	-9.189786472396971
O	-8.554328249166666	0.7344713365469697	-9.465412332396971
O	-9.504002319166666	-1.7442119474530302	-6.7884804523969695
O	-11.222595389166667	-9.556914917453032	2.0826505476030306
O	-7.769739029166666	-8.611870927453031	0.8864977776030303
O	-7.406146649166666	-6.1563737474530305	3.75499255760303
O	-10.763139019166665	-4.60737497745303	3.0014755676030305
O	-9.784497049166667	-4.41009540745303	-0.6673240073969697
O	-6.565279309166666	-2.7663612374530304	0.19904866560303036
O	-7.876060019166666	-0.5442429684530303	2.9612696676030303
O	-10.549908519166667	0.7414285985469697	0.6532418346030303
O	-8.107057679166665	1.4675838025469696	-2.08664976239697
O	-5.879543109166666	3.4487475425469696	0.34455278660303035
O	-8.589929419166666	5.51922236254697	1.6087420876030303
O	-9.470971609166668	6.68305512254697	-1.9375158723969697
O	-5.863343989166666	7.5730683525469695	-2.74789186239697
O	-5.703822169166666	9.750894062546969	0.32684938960303034
O	-8.054465229166667	12.29107532254697	-1.2390048923969696
O	-5.895842709166666	12.50932182254697	-4.317328472396969
O	-2.763603939166666	12.740901222546968	-2.1547468523969697
O	4.049108580833334	11.09672472254697	5.7245166076030305
O	0.8746453308333337	9.628121872546968	4.196619197603031
O	1.8583031208333338	5.95103822254697	4.5458830876030305
O	5.422704840833334	6.5935528925469695	3.2482171976030303
O	3.906627980833334	8.494574322546969	0.28162747560303036
O	1.5391121208333338	5.73662912254697	-0.4967142333969697
O	4.4038554408333335	3.1666520325469696	-0.18796086119696967
O	6.7705540908333335	4.93919621254697	-2.45173063239697
O	3.993208650833334	5.17183310254697	-5.025369482396969
O	3.3149845408333336	1.4062815125469696	-4.780923602396969
O	6.9980795208333335	0.5612112865469696	-5.16643193239697
O	7.299856850833334	2.7879474725469695	-8.19221440239697
O	5.496318260833334	-2.2842213674530307	-9.13255054239697
O	9.007302010833335	-1.6122924974530304	-10.48383148239697
O	3.2240270408333336	-5.51160395745303	-5.93963732239697
O	0.8993024108333341	-3.5233876074530306	-8.19911729239697
O	-1.5788825931666661	-2.1716527274530306	-5.677996312396969
O	-3.839040049166666	-1.3603179174530302	-8.684760652396971
O	-3.825284389166666	-2.3750532374530304	-12.34601748239697
O	-6.484890939166666	-4.94010720745303	-11.474417182396971
O	-4.7448119391666665	-6.02575828745303	-8.29560652239697
O	-1.2710349251666662	-7.42952435745303	-8.74670627239697
O	0.49262856083333384	-11.614078477453031	1.3325258176030303
O	-3.071625909166666	-11.94601637745303	6.31167924760303
O	1.832136100833334	-9.16162139745303	6.183355867603031
O	4.324146220833334	-11.01564497745303	4.00389776760303
O	7.088718540833335	-9.37218730745303	6.10552645760303
O	5.984125870833334	-5.96359690745303	4.829266577603031
O	5.557768850833334	-7.42248960745303	1.2727614176030304
O	9.035840310833333	-8.604016407453031	1.3639012176030303
O	10.341372910833336	-5.11559179745303	2.2468419676030305
O	8.289902060833334	-3.3656720774530307	-0.4158626033969697
O	9.227518110833334	-5.87801825745303	-3.1125128323969697
O	10.995133310833335	-2.0863041274530305	-5.87498716239697
O	7.966519250833334	11.806263522546969	-3.1980963823969697
O	6.087450830833334	15.042388822546968	2.2569943076030308
O	8.492901860833335	0.20295260444696966	6.134572287603031
O	5.980816060833334	2.9158169625469696	7.01474606760303
O	6.727265660833334	2.5559250525469697	10.73021051760303
O	6.559922140833334	-1.1834960074530303	10.59014841760303
O	3.4106590808333337	-0.7466444504530303	8.49672729760303
O	1.6957197508333337	1.4346695525469697	11.05984631760303
O	2.633979380833334	-1.1267942874530303	13.68196691760303
O	0.9186232508333338	-3.8580388974530306	11.64246701760303
O	-2.0931588241666663	-1.6750711774530302	10.88393791760303
O	-8.632734729166666	-1.2640191774530303	8.52002831760303
