30

O	27.700518298605758	-1.6251507205352382	26.832949063243486
O	26.906578959008918	-0.7884572850119614	27.642058675479728
O	27.44627611565788	0.4300034574605429	28.02410938050415
O	28.800715251262794	0.5681249637610288	27.876909028870163
O	29.50513640018694	-0.5414906447050705	27.525021369209124
O	29.005099660845893	-1.3209766771685678	26.531524479866263
O	29.584690795160604	1.7599200008139264	28.419250493685386
O	30.12632739761687	1.1661272077067353	29.68417931685805
O	30.902254272873694	0.11889028516358016	29.116143276763516
O	30.73562304591681	-0.9323884700905996	28.210645835884975
O	25.640574097893015	-1.210588287969543	27.744366637935425
O	30.589068138274055	-2.1736401230744424	29.100747091766266
O	31.69374103928185	-1.3105553250804558	27.20109175280934
O	32.114410871064806	0.6569447615650583	28.724890290916125
O	33.24416802306905	0.05309951437468752	29.287406397249853
O	34.29987687997691	0.9392098734237644	29.484611684403667
O	34.48510391038758	2.0443115795821973	28.65751090389999
O	33.484916395027724	2.1857296467805796	27.693431731681585
O	32.435523733784166	1.3170088995338174	27.57791957043258
O	32.80511853158015	-2.067037141218176	27.42857984007281
O	33.32866171767385	-2.5992126956338026	26.252454643429463
O	33.49611430321744	-1.6441336428049482	25.205629714660642
O	32.18436932846271	-1.302639760890101	24.845564153617094
O	31.56813727409858	-0.7784988038583018	25.963888482681455
O	33.89111554429379	-2.6070495896245807	24.017420141758745
O	33.31259595870161	-3.0842504840765885	22.937948887218656
O	33.949676255089116	-3.7311267878296057	21.781968635216604
O	33.566380380660085	-4.874410961591705	21.358565446223157
O	34.36730789716069	-3.2652097869288093	20.529191366883424
O	34.99819219936602	3.147115037310057	29.307331863787233
