95

O	-0.9558284715645158	-3.3559841973870967	-2.9002307229838706
O	1.1828937644354842	0.6084981926129032	-1.1783826469838705
O	2.1431816444354843	3.343886752612903	-3.4988992129838707
O	-0.7119867435645157	1.8720629876129034	-4.095949852983871
O	1.5946210244354844	0.32485021261290337	-2.6399476469838707
O	-4.483959365564516	-0.5019710773870969	-2.7878339879838707
O	0.7488228444354843	0.8569624736129032	-3.7615131629838707
O	-4.778617495564516	-1.8169724673870968	-2.5010800799838706
O	-2.121383247564516	1.3957583676129033	-4.92372204298387
O	0.0862228844354842	2.416413054612903	-5.542905032983871
O	0.10546375443548417	0.12708902261290334	-5.82317056298387
O	1.0505610144354844	-0.9234078973870967	-2.714966908983871
O	-2.173971815564516	0.05906139261290333	-4.90037799298387
O	-1.3331514025645157	-0.8047134173870969	-4.3647285729838705
O	-1.7139033475645158	-2.0435331573870967	-3.812183182983871
O	-2.562278255564516	-2.7286326373870966	-4.6705543829838705
O	-3.3468561855645156	-1.9430294673870967	-5.446985162983871
O	-3.1823645855645157	-0.5962373773870966	-5.524429522983871
O	-0.42744909356451577	0.9662669086129032	-3.1590825929838706
O	0.0989472444354842	0.024499982612903315	-0.9940219249838707
O	-0.1019648255645158	-0.32307885738709663	-2.399860850983871
O	1.1377081444354844	1.8639341516129033	-0.4088247629838706
O	-1.0719873275645158	0.9432474956129032	-0.7583015529838706
O	2.194332584435484	2.635967845612903	-0.04309275298387072
O	2.5061979444354843	3.604641382612903	-1.0710407789838707
O	1.7252710844354842	3.667520392612903	-2.219100971983871
O	0.5350638044354843	3.774669852612903	-1.5649645249838706
O	0.25468856443548415	2.9779850926129035	-0.3893743329838706
O	-2.027308227564516	0.3309245926129032	-0.2100901129838706
O	-2.867050225564516	-0.44241372738709694	-1.0915022529838705
O	-3.4696463355645157	0.10580749261290334	-2.1228143909838706
O	-3.0085823455645158	1.3650533996129033	-2.1381790609838704
O	-1.8210007955645158	1.7940174960129032	-1.5540011299838707
O	-4.249540245564516	12.007970682612903	2.2017574370161297
O	-11.885946345564516	5.264122932612903	-3.974160292983871
O	-9.494510865564516	3.857613342612903	-1.4357810209838706
O	-6.983150265564516	2.8057345126129034	-4.231645262983871
O	-7.244607585564516	6.235314692612903	-5.72050603298387
O	-6.660304095564516	7.697903922612904	-2.2474749209838705
O	-3.6912778355645157	5.402843912612903	-1.7022764239838706
O	-2.4950227155645157	5.898224382612904	-5.304156402983871
O	-2.470479405564516	9.542930262612904	-5.0403994929838705
O	-0.7494101075645158	9.485470512612903	-1.6826722839838706
O	1.9029861444354843	7.1928257926129024	-3.1018156029838706
O	2.7181764744354844	9.341291692612904	-5.988965212983871
O	3.2868465544354843	12.462124582612903	-3.8692996229838705
O	5.682599824435485	10.542698962612903	-1.6011740279838707
O	7.816197724435483	9.638919772612903	-4.55848571298387
O	13.639328454435484	-0.07264923738709683	-4.316128082983871
O	10.862671254435483	2.5579853576129032	-4.31416116298387
O	8.121486624435484	0.1402353526129032	-3.1204611429838707
O	10.356096554435483	-1.4151598073870968	-0.35147148298387076
O	11.226236954435484	2.1810092566129033	0.7562532370161295
O	7.640413784435484	3.3163758326129034	0.9080475970161292
O	6.712780664435485	0.08722944261290322	2.7993325770161297
O	9.338027854435484	0.32060529261290327	5.41238145701613
O	4.520208704435484	2.8615744826129035	6.38937333701613
O	5.433328544435485	0.08167450261290332	8.79168574701613
O	-1.6474897205645158	0.9737841026129033	9.150907847016128
O	-0.9666555235645158	4.727210342612903	9.26264494701613
O	-0.9433524005645157	5.522253112612903	5.537166137016129
O	-1.2813814625645157	9.178100642612904	6.547157317016129
O	-5.7143929555645165	11.317348872612904	8.378100747016129
O	-5.8048164555645165	7.8157876626129035	6.95682562701613
O	-5.459336485564515	5.079184072612904	9.53181524701613
O	-8.302783985564515	-3.597130847387097	3.338950257016129
O	-12.560434545564517	-3.428628367387097	0.35088301701612945
O	-10.122404725564516	-3.942860647387097	-2.558043504983871
O	-9.621138515564516	-7.327535747387097	-4.201964352983871
O	-6.539225345564516	-9.146556117387098	-2.8831784129838707
O	-5.411010995564515	-6.306429857387098	-0.6514019629838708
O	-5.961815075564516	-7.669196397387097	2.891718277016129
O	-3.1786154755645155	-10.103493517387097	2.0578625470161294
O	-0.7097879465645157	-7.282122877387097	1.7014579070161293
O	-2.1865783015645155	-5.5378398373870965	4.791703677016129
O	-1.6769043865645157	-8.641551717387097	6.81429447701613
O	2.0104096944354843	-8.697266817387098	5.843169957016129
O	2.552717924435484	-4.967979987387096	6.464651447016129
O	0.8022292944354841	-5.160159107387097	9.871989347016129
O	2.845393614435484	-8.180461287387097	10.89590584701613
O	4.912246714435485	-3.424577697387097	12.09298944701613
O	4.278465584435484	-5.828020237387097	14.95943534701613
O	5.936309144435484	-7.651088587387097	0.4201459470161293
O	7.253212464435483	-5.347290287387096	-2.2622202729838707
O	7.274532994435484	-8.114418397387098	-4.860063622983871
O	3.8732241944354846	-9.317920317387097	-3.8720768329838706
O	2.841185094435484	-5.715411277387096	-3.904159442983871
O	3.9533092744354845	-5.020193507387097	-7.40930185298387
O	2.189327784435484	-8.201218157387098	-8.457477042983871
O	-1.0578008695645158	-6.905234347387097	-7.05326243298387
O	-0.5084972115645158	-3.402344747387097	-8.496479512983871
O	0.16851895443548437	-4.923390047387096	-11.914056152983871
O	-5.298113095564515	-2.4317580973870965	-11.60169742298387
O	-6.025284845564515	1.2915568716129033	-12.27367885298387
O	-3.246399055564516	2.9319827226129034	-10.158510892983871
