22

O	32.56128897917267	1.0560001734011992	28.184697097172503
O	33.905436791316326	-1.84999098360127	26.750742279167724
O	31.668131958123425	1.7631728336196602	25.046973743009268
O	31.399564326961574	0.38092675730596826	24.812535637880664
O	30.27424972261907	-0.30218417982563217	24.527551372684986
O	30.241444011393043	-1.4432255118047799	25.275073277180027
O	31.305805980774977	-1.6296275034288352	26.105462205292202
O	31.009653092331945	-1.7902715499531896	27.4415510873272
O	32.07260982560493	-1.8628482753356248	28.285468597766666
O	31.707368570550976	-1.4044158057183036	29.454741935983165
O	32.79641243476102	-0.8615161900587347	30.384010402048116
O	30.495489520045847	-0.9356746024768394	29.49037303851878
O	30.36974197854278	0.5343882677581692	29.175866317340464
O	30.848339245295506	1.1799710683144864	28.09187968283304
O	29.862624939426347	1.2462598677820533	27.157467284190457
O	28.63022554268482	0.578783870280934	27.18875643709049
O	27.79596195704763	-0.23317058758400092	26.52914771525912
O	28.104185406299813	1.0195685381720072	28.40254645968185
O	28.948411886397487	0.46608083864120187	29.290405311444033
O	29.726335049528988	-1.9021501733025044	28.26750182972659
O	32.5685786235955	-1.431050224862503	25.66577316245094
O	32.544325613995596	-0.17782817608960214	25.194393711172385
