39

O	34.31756944625528	0.40437346205331914	25.374862762753057
O	33.44899321381693	1.2750152929868221	24.76326203759523
O	32.38326620275031	1.9159961820171971	25.26488530491083
O	32.60208604164028	2.3743164515969495	26.50811162243081
O	31.45264451347676	2.4333899511458705	27.308078729235568
O	33.916975942969884	2.3244824154925285	26.817021461163648
O	34.75698902908766	1.333699448718765	26.259301536330632
O	34.77616395172774	-0.6682218278418881	24.49812431261868
O	34.297263699752406	-0.5066257641693482	23.040700081248552
O	33.05370628546597	-1.1379752910316938	22.710318899478395
O	32.128601125615646	-0.5903277707520718	21.682776320797906
O	32.671753008695106	-1.0742079509517861	24.119877151713247
O	33.23827124326686	-1.9438712020527387	25.07674550633774
O	33.71377444012283	-2.990759958050647	24.682186003675973
O	32.84420713062119	-1.8380657731130627	26.460162108094053
O	32.05129871551526	-0.6139550522129605	27.02256306402436
O	32.18919816525436	-0.41266393614867103	28.290407691253353
O	31.266224133207217	-1.4456679338575757	28.427357797379535
O	30.544647775579577	-1.87476256850869	27.32240234366167
O	29.2358352411353	-2.308461888657344	26.679793616006137
O	29.8960680084293	-2.3975095211806052	25.17658717688422
O	29.09786673708342	-1.250143681992601	25.418830843476698
O	30.2229744251641	-0.29981469913072345	25.63675560161401
O	30.58099420015309	-0.4611304900224018	26.860064352484972
O	33.491203886149954	0.14152759337595325	28.80494426753182
O	34.78552799602121	-0.1459487058846269	28.6491585498179
O	35.86139484450454	0.5185250434136319	29.228478528619384
O	35.6296804022252	1.8259721222503058	29.542121899958833
O	34.384309397938466	2.0558904748541074	30.12513871026056
O	33.40383945873242	1.2945674973578134	29.583228862337013
O	30.77480479860235	-3.018884584304053	24.32734334369031
O	30.993307276167066	-3.4897869221214357	23.009338597793995
O	32.07260313340874	-3.8508596219912623	22.155754014581085
O	32.4077225766191	-3.7204459461608974	20.877010813551497
O	31.682497187491368	-3.3984146411800435	19.74601618222796
O	32.33909874409499	-2.9217138438077925	18.510323590943337
O	33.1512463297353	-4.072719182915005	18.001760376964626
O	33.53733167554702	-4.8913580769212555	19.192278628839258
O	33.72241226331093	-4.073831804639937	20.477887791982006
