80

O	1.376935804507463	0.21406472639104496	5.140604334089552
O	-1.9675625044925371	0.746804352791045	-0.6021226679104479
O	-2.6184274754925374	-1.013378426208955	0.7906302420895521
O	-1.4556210240925371	1.321145043791045	0.558515785089552
O	-1.557831129492537	-0.6648473482089551	1.617896384089552
O	1.961759304507463	1.515025123791045	4.593790064089553
O	2.4621475945074627	1.1577750937910452	3.196426344089552
O	0.24799001450746294	0.958945938791045	2.358768084089552
O	-2.8883504154925372	-0.2710293422089551	-0.35474959991044797
O	-0.7396198324925372	0.43795010379104493	1.372805154089552
O	-0.31652745549253725	1.4860306037910451	3.367289014089552
O	-3.764311605492537	-0.663911391208955	-1.340603985910448
O	1.4311019045074627	0.32854329079104494	2.650677754089552
O	-10.969295105492538	-0.8435165322089551	-4.947429105910448
O	-11.520456225492538	2.853950283791045	-4.481674805910448
O	-10.402312775492536	5.149009723791045	-1.712959255910448
O	-5.724923065492537	11.994030833791044	6.823253774089552
O	-3.572184965492537	10.275274333791044	4.227726354089552
O	-2.7230480154925374	7.466178493791045	6.659675504089552
O	-6.386868155492537	7.047088403791045	7.515179694089552
O	-7.151979275492537	6.999014223791045	3.790992044089552
O	-4.383181395492537	4.413690633791045	3.171942124089552
O	-5.164842235492538	2.396663263791045	6.282785624089552
O	-8.839590265492538	2.207716783791045	5.419662824089552
O	-8.035558895492537	1.154691003791045	1.874331994089552
O	-5.660725435492537	-1.571657056208955	3.094592544089552
O	-8.215044905492537	-2.982578516208955	5.505948434089552
O	-10.832595955492536	-3.405616226208955	2.7629986040895522
O	-8.341907095492537	-5.144994586208955	0.47203217708955203
O	-7.649436265492537	-7.678315186208955	3.172907244089552
O	-11.100867325492537	-9.220911516208956	2.8463422640895524
O	-10.624286765492538	-9.632384616208956	-0.862322265910448
O	-7.135178395492537	-11.044856766208955	-0.3169508479104479
O	2.540490284507463	-12.409570166208956	3.652412924089552
O	-0.3712547624925372	-9.932239366208956	3.6773272740895524
O	1.7495247445074629	-6.759725346208955	3.5130577740895523
O	4.024283044507463	-8.178027566208955	0.7604680370895521
O	0.863685754507463	-9.166153436208957	-1.178461745910448
O	-0.6300009314925371	-5.704998996208955	-0.827544374910448
O	2.655899214507463	-4.144174376208955	-1.886943735910448
O	3.2381395345074626	-6.276040566208955	-4.946371695910448
O	-0.29366772549253706	-5.413622316208955	-6.029981925910448
O	0.3676375245074628	-1.668962556208955	-5.598623475910448
O	3.598035734507463	-1.841221546208955	-7.556035495910447
O	1.9087859545074628	-3.703336846208955	-10.375741115910449
O	-0.9210501944925371	-1.198985616208955	-10.790487415910448
O	1.496979794507463	1.731202123791045	-10.545012715910449
O	3.7352343745074625	0.26556835579104493	-13.287025415910449
O	1.9047374345074628	5.113855593791045	-6.831254015910448
O	-1.6625645254925372	4.097759713791045	-7.710849955910448
O	-3.087033425492537	3.190256833791045	-4.298103795910448
O	-6.521485825492537	3.404268763791045	-5.908004065910448
O	-7.824356535492537	4.816133553791045	-9.254082845910448
O	-8.900213665492537	7.894336113791045	-7.308806895910448
O	-5.7181038454925375	8.029254233791045	-5.2549806559104475
O	-2.567828855492537	8.496974803791044	-7.298955655910448
O	4.476266134507463	10.766308533791044	0.9201871750895521
O	3.7068837045074625	11.453038233791045	6.980069214089553
O	6.799746714507463	7.382827653791045	4.726041814089553
O	8.650946874507461	8.795261133791044	1.683610134089552
O	11.295028374507464	6.166268053791045	2.407642414089552
O	8.758519474507462	3.415340143791045	1.792793674089552
O	7.318748384507463	5.298194203791045	-1.194528235910448
O	10.793072474507461	5.540751003791045	-2.688449625910448
O	11.263426074507464	1.760597083791045	-2.4469137259104476
O	7.812727284507463	0.986656405791045	-3.872804695910448
O	8.317197434507463	3.410674083791045	-6.784016715910448
O	7.520083704507463	-0.35483233220895505	-9.991376315910449
O	1.8395943745074628	-13.044051866208957	-6.040363955910448
O	1.5584161945074628	-16.275180066208954	-0.29880448591044795
O	9.781131874507462	-3.274319516208955	1.906014454089552
O	7.197618804507463	-5.264754126208955	3.844073024089552
O	9.540338674507463	-5.583935146208955	6.832071014089552
O	10.416570574507464	-1.946394846208955	6.717668204089552
O	6.710420474507463	-1.2608343462089548	6.262433264089553
O	5.7324196645074625	-3.1909199562089547	9.36175644408955
O	8.428178374507464	-1.319362176208955	11.249528784089552
O	6.900765364507463	2.000827673791045	10.14315284408955
O	3.362479814507463	0.844537617791045	10.84235338408955
O	-3.332171405492537	2.618274183791045	11.632827984089552
