89

O	-3.5527102926262297	1.3693091324590172	-0.7508527694262308
O	-3.16140366262623	2.4011329990590173	-1.4549857474262309
O	-2.2417247126262296	3.0726453440590173	-0.8411193864262307
O	-1.45742940162623	2.277569914059017	0.20982051857376915
O	-1.2591728506262299	1.037961552059017	0.2694646285737692
O	-2.5949874426262296	0.6490200940590171	0.23555624857376922
O	-0.19333587662622986	0.7445099170590171	-0.7538276614262308
O	0.3823252973737702	2.0075178120590174	-1.4595174374262307
O	-1.0226731336262298	0.15668842405901717	-1.6993634884262308
O	1.6894553673737702	1.7561036550590172	-1.6926182704262307
O	2.7560287173737703	2.6628480140590174	-1.7323370964262308
O	2.7428285673737705	3.5746517540590173	-0.7179414454262307
O	1.4910210173737704	4.0704448640590165	-0.5202077444262307
O	0.4412065673737703	3.2053106740590174	-0.6698358054262308
O	-2.30786793262623	-0.6667220859409828	-1.5340059004262308
O	-1.1683606416262298	0.7936271100590171	-3.1217381214262305
O	-2.85253932262623	-1.2909296159409829	-2.697125051426231
O	-2.2320683226262297	0.5476620060590172	-3.931421451426231
O	-2.7876977726262298	1.4168968722590172	-4.871538301426231
O	-2.1044855526262296	2.525269594059017	-5.2175659814262305
O	-1.04331304362623	2.838793944059017	-4.452781431426231
O	-0.6089004716262298	1.9522706010590172	-3.522266521426231
O	4.93696628737377	4.4038311540590165	-1.0272172414262308
O	-3.5496514026262296	2.9960127740590172	-2.584994131426231
O	3.9910978173737703	3.866119594059017	-0.1751225394262308
O	6.261821247373771	3.7813239240590173	-1.2213447453262307
O	7.833901187373771	4.148635414059017	-2.832817621426231
O	6.50058474737377	3.5311015040590172	-2.753147371426231
O	2.3869966473737705	0.5803210780590171	13.56867757857377
O	1.3001180773737704	3.722957194059017	11.77813847857377
O	-2.59422986262623	13.078624624059017	5.66126407857377
O	-3.73502644262623	9.524274024059016	4.893672858573769
O	-1.26865206362623	9.323599144059017	2.032717748573769
O	1.5307142473737705	10.551017404059017	4.222846828573769
O	0.4915930873737703	8.008449894059016	6.818138808573769
O	0.4201792673737702	5.122855274059017	4.196669608573769
O	3.4832104473737706	6.301118464059017	2.506120538573769
O	5.4340589973737705	6.534611594059017	5.789676598573769
O	4.19673858737377	3.076048224059017	6.773496988573769
O	5.20282448737377	1.5183325901590172	3.5340149985737694
O	8.73750942737377	3.021636614059017	3.8006330585737693
O	9.34991700737377	1.424781762259017	7.12959810857377
O	8.155761717373771	-1.9690202959409828	5.91187205857377
O	10.63471420737377	-1.882853045940983	3.1044666285737694
O	13.58432830737377	-2.251246715940983	5.47921606857377
O	11.18032540737377	-6.682244575940983	3.578974108573769
O	9.85820830737377	-5.670916935940983	-9.42787438142623
O	8.117170097373771	-7.2824129159409825	-6.511207951426231
O	8.15393121737377	-4.901272965940983	-3.519328911426231
O	4.65164371737377	-3.532305845940983	-4.147921711426231
O	3.1534324873737702	-7.017464385940983	-4.713957261426231
O	4.83948322737377	-8.082438445940983	-1.4571680774262308
O	3.4302954173737703	-5.089028295940983	0.5040137185737692
O	0.02173324837377022	-5.697318195940983	-0.9370236184262308
O	-0.08391136362622986	-9.513192675940983	-0.29573555242623084
O	0.9261462073737702	-8.769530475940982	3.2629435785737693
O	-1.87592157262623	-6.209333235940983	3.6455881585737693
O	-4.43743440262623	-8.653660075940984	2.265314808573769
O	-6.941699512626229	-7.909307885940983	6.644477328573769
O	-7.94938156262623	-3.166856445940983	5.220566718573769
O	-5.571707822626229	-3.510861425940983	8.15847134857377
O	-2.66513093262623	-1.299410905940983	7.063423728573769
O	-1.5154366326262299	-1.4045657059409828	10.68242137857377
O	-3.80853412262623	1.0997170530590172	14.72226577857377
O	-4.92475330262623	1.831508826059017	11.17333947857377
O	-7.73490244262623	10.204366984059018	-1.9262060644262307
O	-8.50614634262623	7.189578654059017	-7.36686256142623
O	-7.726433982626229	5.1457767740590175	-4.321357871426231
O	-10.99848659262623	3.395277104059017	-3.585994021426231
O	-10.53222098262623	1.5144411181590172	-6.87074030142623
O	-7.45053111262623	-0.11305015594098289	-5.478737091426231
O	-9.158498852626229	-0.649822765940983	-2.0856716164262306
O	-9.34049663262623	-4.840472435940983	-5.42582107142623
O	-7.37536269262623	-5.453220875940983	-2.225303291426231
O	-10.53460840262623	-6.033974545940983	-0.18139946042623079
O	-8.75073457262623	-10.522243975940983	1.1098318785737693
O	9.75420330737377	-12.314474675940984	-4.679556221426231
O	-3.17605930262623	-4.572527925940983	-8.302915461426231
O	0.5239596573737703	-3.751491825940983	-8.02889760142623
O	0.5680698573737702	-2.403892845940983	-11.54735172142623
O	-2.54393754262623	-0.4076793959409828	-11.06739753142623
O	-0.9145593344262298	0.6722445210590171	-7.933754051426231
O	2.1858497673737705	1.974479966059017	-9.499037171426231
O	0.014200217373770196	3.799843814059017	-11.896497421426231
O	-1.85720815962623	5.551544734059017	-9.11703609142623
O	1.26435735737377	6.3210598240590175	-7.170880621426231
O	2.8313787573737703	7.797151574059017	-10.259303801426231
O	3.21304109737377	13.256962224059016	-3.4098745114262305
O	4.37591267737377	10.015511824059017	-1.8420400234262306
