88

O	-2.1360486254590167	0.04463133857376983	-2.7340190542983605
O	-1.2051544214590164	-0.6911953124262302	-1.7175875742983606
O	-1.4551111914590165	-0.6192377834262301	-0.3065634202983606
O	-0.6527871814590165	-0.33526161442623015	0.7659483957016395
O	0.4930001645409836	0.39020683657376987	0.35813979570163945
O	0.41273467454098345	0.9922156465737698	-0.9663717722983606
O	-0.10259726745901643	0.21381472257376988	-2.0076587342983605
O	0.4350524545409835	0.05799176157376984	-3.3025016542983607
O	1.5383059045409837	-0.5630089714262302	0.9670432957016395
O	0.9619775345409836	-2.10986727342623	0.5872925757016394
O	0.9079178445409835	-1.9499512634262302	2.1032842257016395
O	-0.3306563194590164	-1.1771785394262302	1.9982969457016395
O	-1.2240367164590165	-2.3072097334262303	2.2415456057016394
O	-1.3228608974590164	-2.71551042342623	1.0389948557016395
O	-1.0516775922590165	-4.00374566342623	0.34198930170163944
O	-0.20813901145901648	-4.7318332034262305	1.3433039957016395
O	-1.1848471634590165	-4.6530429634262305	2.129332105701639
O	-0.9734284564590164	-3.42347494342623	2.9574943657016393
O	0.19942701454098355	-6.017593263426231	0.4418514257016395
O	0.7562701445409836	-6.515777603426231	-0.6381669083983605
O	1.2101368845409834	-7.867951973426231	-0.9445251962983605
O	0.9493142645409836	-8.47630290342623	-2.0298609642983605
O	2.2527005545409837	-8.719824973426231	-0.5594465019983605
O	1.2287153345409836	-3.42166942342623	1.9687645257016393
O	2.5492514545409835	-3.70920388342623	1.3865103957016394
O	3.0374913545409834	-5.139836553426231	1.1823593657016394
O	2.3801090245409835	-3.69338095342623	-0.08693544829836053
O	-7.419311355459016	0.7983834465737699	-11.647570854298362
O	-8.886890455459017	-1.0903136434262302	-8.728494054298361
O	-12.949145635459015	-6.38143244342623	1.2205748057016395
O	-10.821644255459017	-3.23868789342623	1.3443602857016395
O	-7.776523485459016	-5.287512213426231	2.0835483857016395
O	-8.555466485459016	-7.641364623426231	-0.8141388122983606
O	-9.095587875459017	-4.603114133426231	-3.0510081742983606
O	-5.816853395459017	-3.01812514342623	-1.8680958642983605
O	-3.9950337454590166	-6.326629123426231	-2.016078764298361
O	-5.049271605459016	-7.075664533426231	-5.53126513429836
O	-4.040805285459017	-3.59167840342623	-6.66233795429836
O	-0.6020950334590165	-3.89350398342623	-5.179794404298361
O	0.0770532445409835	-7.2541714134262305	-6.842747684298361
O	-0.6144701984590164	-5.883750883426231	-10.185632334298361
O	1.6540743145409835	-2.86457960342623	-9.70406648429836
O	4.522829874540983	-5.1570029934262305	-8.870591124298361
O	4.735262634540984	-6.49060561342623	-12.384529354298362
O	7.465069374540984	-1.97000594342623	-11.171238154298361
O	14.252440364540984	-4.3162655734262305	-0.18797928029836058
O	12.698485664540982	-1.3137151434262302	-1.9083674842983607
O	9.427047064540982	-2.4186692434262302	-3.5723232142983607
O	7.311631224540984	-1.1590711944262302	-0.6363197350983606
O	8.984499464540985	2.22967065657377	-0.3396959692983606
O	8.501183094540984	2.52949789657377	-4.19193112429836
O	4.779843374540984	1.74376093657377	-4.132644964298361
O	4.336009034540983	4.057561346573769	-1.0714526502983606
O	6.143397314540984	7.038669936573769	-2.6582276942983607
O	3.9597757145409833	6.46249311657377	-5.72991035429836
O	0.7676273045409836	6.521076246573769	-3.6439763242983605
O	1.8317390845409833	9.71814840657377	-1.8281789842983607
O	-2.5368990154590163	11.71757110657377	-3.5408857842983608
O	-5.119921105459016	8.61297401657377	-0.4945344262983606
O	-5.490543045459017	7.9185273865737695	-4.2167123742983605
O	-4.767698835459017	4.15873621657377	-4.30187680429836
O	-6.304125775459016	4.178289886573769	-7.766701254298361
O	-11.456011135459015	4.79054631657377	-8.81925637429836
O	-10.313698195459015	4.248657956573769	-5.2433533342983605
O	-9.137198595459015	-2.66771061342623	9.032750565701638
O	-4.276219045459016	-1.1089099334262302	12.746695745701638
O	-4.487223625459016	0.34769714557376985	9.234348705701638
O	-5.431531475459017	3.9440205865737696	9.897935545701639
O	-2.0145272174590163	4.28472958657377	11.521977745701639
O	-0.41571623645901645	3.45024665657377	8.10288434570164
O	-2.8914822354590166	5.72406527657377	6.386259435701639
O	1.5687217045409834	8.34945281657377	7.9784870157016385
O	0.9909358845409835	8.17232884657377	4.22164613570164
O	-1.4064026984590163	11.13148610657377	4.32968754570164
O	1.4908478545409833	13.61110620657377	1.0616596757016394
O	15.411415864540981	1.5936247765737699	-5.82296235429836
O	6.245137654540984	3.62241873657377	6.73890042570164
O	7.593818114540983	0.7428892865737698	4.705151675701639
O	8.945146364540985	-0.9411653794262302	7.81069123570164
O	5.794122064540984	-0.30867765642623013	9.760148945701639
O	3.8988774545409832	-1.51068830342623	6.77622616570164
O	5.778415254540984	-4.79889274342623	6.75672101570164
O	5.022112574540984	-5.15410534342623	10.389535545701639
O	1.2574794345409837	-4.652344823426231	9.90196084570164
O	1.1061264045409835	-6.941070743426231	6.98929564570164
O	2.9874057345409835	-9.672134533426231	8.740482485701639
O	-4.681257455459017	-12.44060739342623	4.92045480570164
O	-3.1849760054590166	-10.526459693426231	2.1124949057016393
