91

O	-3.239855468295082	-3.157894689103279	1.8672892213393446
O	-2.4062195372950823	-4.092062079103279	2.4394383913393445
O	-2.981420428295082	-4.5495530191032785	3.5908332513393444
O	-3.071407978295082	-3.4984020091032795	4.532847331339345
O	-3.5348954882950823	-4.107173519103279	5.724849751339345
O	-3.6676655582950817	-2.381830839103279	4.015814821339345
O	-3.9323250282950823	-2.3280207291032795	2.6607896313393447
O	-2.880158158295082	-2.7685369591032787	0.5400369173393446
O	-1.3977407894950822	-3.162654419103279	0.5058752413393446
O	-1.004796747295082	-2.328459839103279	-0.5695647276606555
O	0.382116861704918	-2.3269642591032786	-1.0721311986606554
O	-1.167449412295082	-1.194347599103279	0.13753300173934457
O	-1.743640982295082	-0.057838820103279065	-0.43849721666065544
O	-2.8130529682950822	-0.16139545910327907	0.2562317123393446
O	-0.9942633282950821	1.127493598896721	0.11036868153934459
O	-0.619409703295082	0.3978779068967209	1.3645136613393445
O	-1.6517248882950821	-0.1852392771032791	2.0369709113393446
O	-1.1086768692950821	-1.188007849103279	2.8452101013393447
O	0.02988616170491798	-1.566837379103279	2.4893951013393445
O	1.0542663017049179	-1.7332733191032792	3.5161702513393447
O	1.7544616717049177	-0.4021782581032791	3.5912767613393446
O	2.1243225417049176	0.06353697889672094	2.4465402713393445
O	1.6079393817049181	-0.4492501221032791	1.1694629213393446
O	0.316256381704918	-0.7466291791032791	1.3363985113393446
O	-2.2844554382950824	0.9959015248967209	2.8005928913393445
O	-3.496648648295082	0.7543777648967209	3.2461048713393446
O	-4.029648588295082	1.7608820908967209	4.0031260113393445
O	-3.2662558582950822	2.557657430896721	4.811079401339345
O	-1.917836569295082	2.3866504308967214	4.665257711339345
O	-1.502866956595082	1.3395856008967209	3.9210494713393444
O	-8.302554758295082	-3.238363269103279	-9.765313638660656
O	-9.342218198295082	4.187455700896721	-2.4359547186606556
O	-8.603987728295083	2.060238360896721	0.6166645343393445
O	-11.233311008295082	-0.405744386103279	-0.2822023246606554
O	-9.815975018295083	-0.4799526121032791	-3.8200033086606555
O	-6.392557498295082	-1.088703869103279	-2.5186506786606553
O	-7.518215078295082	-3.474668219103279	0.21358135063934458
O	-9.347512128295083	-5.5643777291032785	-2.2341729586606554
O	-6.492981798295082	-5.682523299103279	-4.712372918660655
O	-4.123094468295082	-6.830961649103279	-1.9117703886606554
O	-6.296796618295082	-9.55552348910328	-0.7209168006606554
O	-6.4483750082950815	-11.09001475910328	-4.236542108660655
O	-2.6479309282950823	-10.934603459103279	-4.609293968660655
O	-2.270464219295082	-12.90883715910328	-1.4052195786606554
O	6.902857771704919	-11.31082275910328	4.940669731339345
O	3.659577651704918	-10.88598425910328	3.0093336813393448
O	3.652234301704918	-7.0852798091032785	3.2282948313393445
O	7.398722571704918	-6.757879739103279	2.3200379013393446
O	6.640905611704919	-9.04227702910328	-0.6646998656606554
O	3.682825931704918	-7.077732949103279	-1.8762720586606556
O	5.683170191704918	-3.8027368691032786	-1.4106096286606555
O	8.736998801704917	-4.942655669103279	-3.3613943686606556
O	4.664642091704918	-2.605179539103279	-6.259123828660655
O	7.960783061704919	-0.753534219103279	-6.295676118660655
O	2.810328441704918	3.9800116808967205	-7.949662928660655
O	1.405529241704918	1.329737900896721	-10.311387058660657
O	-0.885983718295082	-0.619054821103279	-8.042835568660657
O	-2.519175758295082	-2.108634089103279	-11.127434758660655
O	-5.743446988295082	0.4993173038967209	-14.321407058660656
O	-4.710452778295082	2.118282900896721	-11.070717558660656
O	-1.728284721295082	4.433691650896721	-11.272362558660657
O	-2.351631626295082	9.32967650089672	-1.3397532386606554
O	-6.8321060182950815	11.28912774089672	0.35462028833934456
O	-6.431690338295082	8.94433675089672	3.2743041013393444
O	-5.133390088295082	9.90907791089672	6.707487271339345
O	-1.398386345295082	9.18029010089672	7.156191881339345
O	-0.9739234172950821	7.607775300896721	3.7963557613393446
O	1.1370402017049177	9.89400345089672	1.7519014613393447
O	3.9098647517049185	9.055108060896721	4.231204541339345
O	3.948474701704918	5.477084780896721	3.1029934213393444
O	3.5049901217049184	6.524131330896721	-0.5468933846606554
O	6.5037492117049185	8.764145270896721	-0.2055855526606554
O	8.660998401704918	5.881365540896721	1.0185159853393446
O	7.459237871704919	3.5043080908967212	-1.7129781586606554
O	7.9952362417049185	6.070166800896721	-4.426516628660655
O	11.497864001704917	6.7841347608967215	-3.1446011886606553
O	11.090031701704918	2.893318130896721	-6.751046278660655
O	13.370434601704916	5.801067670896721	-7.557859728660655
O	8.095726921704918	0.45344171189672094	5.092412941339345
O	6.533349211704918	-2.884068629103279	5.965440591339345
O	6.6093556517049175	-2.107995009103279	9.695222271339345
O	5.332192461704918	1.400896940896721	9.231505721339344
O	2.743774441704918	0.0007687158967209506	7.055892301339345
O	1.3934165517049177	-2.5127818591032787	9.471299971339343
O	1.2355311417049177	0.3093669371967209	11.941647641339344
O	-0.9544324342950821	2.3423248908967214	9.621681291339344
O	-3.134551188295082	-0.6481463871032791	8.697835941339344
O	-3.659117588295082	-1.411454599103279	12.325490241339343
O	-8.445830278295082	1.210093160896721	9.828031231339343
O	-11.270538718295082	-0.633687939103279	8.008117871339344
O	-9.210927398295082	-2.7905659791032793	5.644496151339345
