87

O	-0.6299383595606062	-4.013195529499999	-1.729861061350606
O	-1.0455311325606063	-2.2907456395	1.016104706649394
O	2.101269319439394	-2.3716083395	-3.9683988033506057
O	3.487401599439394	-2.4743607994999994	-3.600264843350606
O	-0.9660900805606062	0.7462874435000004	-2.088115773350606
O	1.875469009439394	-0.9995800394999996	-4.058008353350606
O	3.395797859439394	-2.2830796794999992	-0.8311009180506059
O	0.5692699794393938	-0.8395860094999996	-3.894702633350606
O	0.0365818414393938	-1.7385987994999998	-2.924562433350606
O	0.13665807243939387	-3.0598550094999997	-2.921440743350606
O	1.4328906594393938	-3.2133822694999994	-3.153035693350606
O	-0.9938494835606062	-0.9447074994999995	-2.470999203350606
O	-0.9223299295606062	0.14705680150000033	-0.4718595143506059
O	-2.002275830560606	-0.6330458304999996	-0.6098106533506059
O	-2.0568875605606065	-1.3015035594999997	-1.829063243350606
O	0.33974225943939373	-0.3076965184999997	-0.005841758350605963
O	1.3153809894393937	0.5384881825000003	-0.5841703553506059
O	2.317723709439394	-0.2283133774999997	-0.9851272563506059
O	2.197099589439394	-1.5573803594999998	-0.8207186572606059
O	1.4039894694393937	-2.2732387194999992	0.009016177649394108
O	0.5097498594393939	-1.5057315994999996	0.7021691466493941
O	-10.632144110560606	5.6590263905	-7.411208383350607
O	-10.990604560560605	2.2098018905000005	-5.933513283350607
O	-9.044642920560605	-5.604697069499999	0.7876337966493941
O	-5.8590899005606065	-6.934384789499999	-0.8602713773506059
O	-7.691015250560605	-7.3667127095	-4.153692563350606
O	-9.031581280560605	-3.819797469499999	-3.7863807033506056
O	-5.580229970560605	-2.5146926494999997	-3.0241416033506057
O	-3.7995369905606062	-4.6499222095	-5.579159363350606
O	-6.1752414205606065	-3.563244719499999	-8.304108393350607
O	-5.687836730560607	0.08779892650000035	-7.388754953350606
O	-1.8450353805606061	-0.2815136914999996	-7.335257213350606
O	-1.9886540305606062	-1.8950311094999999	-10.890198973350605
O	-3.903445480560606	0.9902581735000003	-12.420735473350605
O	-1.459823909560606	3.4375996205000003	-10.762850853350605
O	1.3453306194393937	1.8466785105000003	-12.611487673350606
O	3.3003336494393936	6.232188710500001	-13.276128073350606
O	11.606273539439394	2.7312696305	-7.769451013350606
O	7.924058189439394	1.9855729005000002	-8.578010323350606
O	7.022638119439394	0.9581086825000004	-5.024658043350606
O	8.828748599439395	3.8813177005000004	-3.3546704933506057
O	6.8905939894393935	6.074943370500001	-5.865125483350607
O	3.488038469439394	4.4918807105	-5.024488163350607
O	4.284670199439393	4.879365910500001	-1.3544412643506059
O	5.434606589439394	8.4434075805	-1.359834459350606
O	2.268257439439394	9.2984455305	-3.269508603350606
O	0.08688058843939384	7.454280020500001	-0.6945103053506059
O	1.8261248994393937	9.2936002205	2.197220666649394
O	-2.8041815505606063	10.9126152805	3.4696087266493945
O	-4.093789020560607	6.180343430500001	4.694816666649394
O	-5.940611290560605	7.6933525405	1.7131203166493942
O	-5.437760040560606	4.9078251105	-0.817220414210606
O	-8.142208950560606	6.4845501705	-2.892830533350606
O	-13.298393060560606	6.451615530500001	-1.675007604350606
O	-10.880449660560606	4.261057050500001	0.28014136664939404
O	-9.599909360560606	5.7864001605	3.489635896649394
O	-8.119968180560607	3.1327834405	5.769003946649394
O	-4.864070870560607	-3.0873573494999995	8.112519276649394
O	-7.354075500560606	-7.6136552795	8.373931106649394
O	-4.459689860560607	-8.923790259499999	6.268739486649394
O	-1.5887893295606061	-10.9145196195	7.740876986649394
O	1.468731549439394	-8.740399009499999	8.360821586649395
O	-0.010518076560606215	-5.5955709895	6.811746676649394
O	-0.5433061045606062	-3.3646429594999994	9.924592926649394
O	3.2424529494393934	-3.2686028694999996	10.109539926649395
O	3.4230539594393936	-1.6012878594999997	6.675994606649394
O	0.4897205094393937	0.6283140605000004	7.595769126649393
O	2.2030979694393937	1.7395020805000003	10.806362126649395
O	5.3275146594393945	2.8000477805	8.888049526649395
O	3.360276649439394	4.6027853405000005	6.132441536649393
O	1.2090388194393937	6.4423805105000005	8.682064986649394
O	4.297769179439394	7.514109060500001	10.594826526649396
O	2.6976469894393937	10.7889341805	6.704274816649394
O	2.921959819439394	12.2029744805	10.203496026649395
O	9.069601049439393	0.5706292435000003	3.616810256649394
O	9.448174239439394	-0.3314439744999996	-0.02058473635060598
O	11.820290539439394	-3.2274407194999997	0.8123293766493941
O	9.561196539439393	-4.420329049499999	3.545543426649394
O	6.6290880194393935	-4.0362367195	1.2233993566493941
O	8.253598249439394	-6.284961549499999	-1.3958612323506059
O	8.898068749439394	-8.7994507695	1.247651326649394
O	5.218243229439393	-8.756100479499999	2.259785606649394
O	3.9355488594393937	-8.9273399795	-1.228773377350606
O	6.256965909439394	-11.7648412195	-2.089324983350606
O	0.5226119994393938	-13.3417756195	-1.3278333113506058
O	-2.092136670560606	-13.4447852195	-4.090498473350606
O	-1.6424658645606063	-9.981236019499999	-5.522226283350606
