29

O	30.488479222878738	-0.5640670915660408	28.899653446130923
O	31.563797627408945	-1.075825015233293	29.29437463863428
O	32.882359484560496	-0.44545403331407946	29.78379134652679
O	32.65733539584327	0.5087676726862662	30.65432885196885
O	33.68001688760422	1.2913914900577896	31.018189222908596
O	31.449931794201458	0.8710628212623255	30.69841390018555
O	30.216299317785044	0.21225236699505617	30.0320296428332
O	30.747396129650365	-0.06663058221491239	27.490095907065125
O	31.11414910612533	1.2165507360383252	27.830260230870373
O	30.515824770212877	2.1110418309179355	28.925885438024878
O	31.02248890400084	3.4726400211372144	29.025463408974172
O	32.57759494264524	1.7421465657984994	27.649252195999626
O	33.05567446194131	2.7879857760356894	28.37974444278834
O	34.33844625273994	3.1100510291056795	28.713176699931466
O	35.32998932101246	2.25103023585232	28.40190363914851
O	34.94634504071659	1.1507956307105567	27.725480454401165
O	33.67008252682935	1.0863963816200657	27.233813960916525
O	32.04259300944879	-0.6414971047982851	26.859138697251687
O	32.254605745776956	-2.0459261495936514	26.986809039157986
O	32.5451107821199	-2.879918054731561	25.877450235308597
O	32.44117597996134	-2.481621924810248	24.574694583240777
O	32.328583744667	-3.0068681446441183	23.343819434496897
O	32.44116435238053	-1.1154275800168447	24.53084235831814
O	31.92770222087505	-0.3690450273962168	25.55699773655908
O	32.76421489291545	-3.7282858896105555	22.359781503532457
O	33.351721629697664	-3.565540501754479	21.06198415733504
O	33.04264332162389	-4.211712052299167	19.86677501952868
O	33.7397072774778	-5.455907800926097	19.505258544924
O	33.57289458571989	-3.4207367053711586	18.717163239258518
