27

O	30.740678277819352	-1.2718065355072734	30.91985796269677
O	35.362692095777184	-3.0334251237225764	26.252640523245486
O	32.52876765587467	0.5164639877913424	31.129686227245067
O	34.89709298741123	-2.0433558961265414	27.55424720800837
O	31.316837999432657	0.0009157516473050631	30.752602435552333
O	27.28395559038322	-2.16652878487652	27.950916886386633
O	30.365364741379693	0.8089767460690354	30.071296468888892
O	32.89848439805319	-0.035262747500696634	27.79718945635149
O	29.68464518259305	-0.010299071416080885	29.09268522276349
O	35.31629947842731	-2.168671586167808	28.933142005684125
O	30.620516365746262	-0.9945622685251119	28.728426267258016
O	35.098996315087504	-0.5440040392295641	27.34370871282456
O	29.950835554112096	-1.7376643677661592	29.697577198904803
O	31.530417656989076	-1.3435958210003864	27.729192695286567
O	31.539665385307487	-0.3025252904719738	26.936360919569143
O	32.963209664571366	-0.30059017075255967	26.47321080432982
O	30.341709534315754	-0.12359670315595389	26.558878617571175
O	32.89308400425147	-1.3449944463965484	28.31074301091465
O	29.162713043777906	0.41854411112564566	26.96686012216675
O	28.186921415674284	-0.3188401189281763	27.444824273675398
O	27.905542702503823	-1.5398688283813933	26.913913397573914
O	29.12369689773931	-2.100624454496983	26.548621919857645
O	29.777784152012487	-1.2295178394311876	25.750807078829787
O	33.16224428774353	-2.324754651562912	27.162820283940235
O	33.01525965326797	-1.5918517615569383	25.88492320005336
O	36.62894928078762	-2.414209713533147	26.279852688339545
O	34.78896033453968	-2.6025228701693752	24.965492621419564
