25

O	33.33215607004049	-0.9801143496284309	30.380515171710417
O	32.59220644582498	0.32354167464636846	30.250130388325168
O	32.950929111872384	1.3519496877015773	29.51578096359922
O	32.060266518903205	2.0197142010687976	28.47465116104966
O	31.23778270199244	0.9855829473148067	28.171884693852437
O	30.45153332188434	0.36335686122877403	29.06751953668772
O	29.797050122360776	-0.6109837398544661	28.53461695623784
O	28.328549092394095	-0.6583432935751891	28.476890330177177
O	28.09759107276684	-1.5701500617048572	27.451014258315922
O	26.73069567101284	-1.9027461607663931	27.316382950138518
O	25.960264961344844	-0.7803880436661473	27.4154310608566
O	24.631611920630963	-0.9346306219039603	27.738713327332228
O	26.43140130204471	0.4834324243037738	27.77616606060127
O	27.631431588449047	0.5025266154405783	28.411984551898374
O	28.289976984351288	1.5671283481343887	29.00212037776278
O	30.423409729358944	-0.7136657615990084	27.32784185644289
O	30.066962632015418	-1.137107237758908	26.046285817832324
O	30.432572227077337	-0.13427725998279838	25.19050503814504
O	31.891680921676926	-0.3972415818452466	25.170198850968145
O	32.49064867277585	-0.06184866812936585	26.424013210898732
O	33.89419360979451	-0.10646903678637909	26.725590586602088
O	31.69356487108078	-0.15345531297712178	27.568082108364564
O	34.676024342588285	0.9085590428100251	27.037959643804225
O	34.15460938504001	-1.3028154089503046	27.401676066507793
O	34.41304646680111	-0.5014186420337109	25.45500330975379
