84

O	-1.531983284735937	-2.87843736921875	1.0722033926718748
O	-1.517719465735937	-1.52495099921875	1.187710492671875
O	-2.141056062735937	-0.82704443921875	0.13838753767187484
O	-2.566139072735937	-1.53944251921875	-1.007399036328125
O	-2.594490622735937	-2.9483685592187503	-0.8339239080281252
O	-1.2128547747359368	-3.2205197092187503	-0.27186282332812517
O	-1.119178602235937	-0.10870445321875	-0.4377039003281252
O	-1.2481140387359368	-0.08438359021874997	-1.6665083833281251
O	-2.527092672735937	-0.56629750921875	-1.9566084073281251
O	-1.108601563665937	-4.55590780921875	-0.6915140983281252
O	-1.034614915935937	-0.7473256392187501	2.3363475926718746
O	-0.9516379077359369	0.64752865378125	1.8327146226718747
O	-1.326292835735937	1.6703854207812499	1.4739083826718749
O	-0.18322215573593692	-0.43318841621875004	-2.5149539173281252
O	0.9938434572640631	-0.23977906121875003	-1.7753507743281252
O	2.059780917264063	-0.24966310221875	-2.6097688573281252
O	1.8570999172640632	-0.93772391921875	-3.776597807328125
O	1.005541707264063	-1.99440605921875	-3.5991361473281254
O	-0.14426258273593695	-1.75958957921875	-2.9868729473281252
O	2.337421337264063	-0.34416127721875	-4.824342657328125
O	2.1399711372640633	8.06262731078125	-11.077127957328125
O	-1.280688221735937	7.83103261078125	-9.495355577328125
O	-11.550948772735937	6.59571658078125	-3.545133817328125
O	-8.192296352735937	6.2650666207812495	-1.8399082473281252
O	-8.404482542735938	2.45223636078125	-2.0332276773281253
O	-9.282968132735938	2.61951057078125	-5.6960843273281245
O	-6.371821192735936	5.02123294078125	-6.2009422473281255
O	-4.028241212735937	2.71048844078125	-4.319977237328125
O	-5.400991132735937	-0.48025498721875004	-5.817092597328125
O	-5.085498972735937	0.8816792917812499	-9.328629627328125
O	-1.551738478735937	2.02728903078125	-8.720750217328126
O	-0.6510997597359369	-1.43743558921875	-7.356595667328126
O	-2.0293032427359368	-3.26089038921875	-10.251732207328125
O	0.07029433726406298	-1.25344105921875	-12.764046157328124
O	3.233295527264063	-1.90524039921875	-10.692872267328125
O	2.649382057264063	-5.62153055921875	-11.002808657328124
O	7.4915194472640625	-6.2242361692187504	-11.275078657328125
O	6.405621997264063	-12.30889036921875	-2.696808507328125
O	4.547541927264064	-9.64001796921875	-4.730354307328126
O	3.132058207264063	-7.7508931892187505	-1.728501579328125
O	6.470834147264062	-7.8141228892187495	0.20511226267187488
O	8.143643257264063	-6.52447524921875	-2.9925923173281253
O	5.689812957264063	-3.7387134792187497	-3.417377777328125
O	6.000764847264064	-2.7882509692187503	0.22438466267187485
O	9.780506927264062	-2.73518313921875	0.37012082267187485
O	9.721896227264063	-0.45733323721874997	-2.664179687328125
O	7.164814697264063	1.9066147007812502	-0.9883038093281251
O	9.272149327264062	2.07120603078125	2.182672502671875
O	9.313015027264063	7.13313144078125	1.4400873226718747
O	4.360562837264062	7.26769996078125	2.5358746826718748
O	5.266331547264063	8.11041613078125	-1.0575444093281252
O	2.888759537264063	5.86438546078125	-2.943571077328125
O	3.6210707172640633	7.93090782078125	-6.037673987328125
O	1.844324367264063	12.80749973078125	-6.866305037328125
O	0.5095339872640632	10.82135443078125	-3.9348843973281253
O	2.264545757264063	11.44147793078125	-0.6389647723281252
O	0.16330363726406305	10.28728170078125	2.298860742671875
O	-4.7431599927359365	6.31152172078125	6.1936301926718755
O	-9.829508902735938	7.16783092078125	5.906850682671875
O	-10.035747552735938	3.43164120078125	5.193063782671874
O	-8.075221222735937	-0.8073748892187499	9.408985842671875
O	-5.5329268827359375	0.86490865878125	7.212373182671875
O	-3.6877836027359367	3.23242725078125	9.582273042671876
O	-2.392952512735937	0.08513576178124999	11.303177842671875
O	-0.610336785735937	-0.95047932921875	8.124341762671875
O	0.4970377372640631	2.68259803078125	7.486705962671875
O	2.003546307264063	2.7743366507812497	10.925205942671875
O	4.079008447264062	-0.35384958821875	10.218837042671876
O	5.193055527264063	0.85757157578125	6.769705812671875
O	6.189715407264064	4.27946378078125	8.167395222671875
O	8.140309517264063	2.69081037078125	11.001795642671876
O	10.853493027264063	3.56391501078125	6.508436892671876
O	3.3371952472640634	-6.32014944921875	7.019238812671874
O	2.693703047264063	-8.32900772921875	3.906148512671875
O	0.7611477472640631	-10.99833206921875	5.8557701826718755
O	-1.185011956635937	-8.40492429921875	7.737811892671875
O	-1.701602318735937	-6.6560620292187505	4.4769507526718755
O	-3.196064402735937	-9.70627956921875	2.7632996626718747
O	-5.450960052735937	-10.08577646921875	5.711497002671875
O	-6.716592752735936	-6.52386187921875	5.312930832671874
O	-7.0637422727359365	-6.82698452921875	1.5307901026718747
O	-9.004853582735937	-10.02683636921875	1.9096685726718747
O	-13.188917472735938	-4.11104221921875	-2.966233687328125
O	-9.648306172735937	-4.00914596921875	-4.403339677328125
