23

O	31.835000497531617	-0.44731799228603664	30.181094893734866
O	30.881107645611742	1.727774587919146	27.6920610431748
O	32.37918569986588	-2.799338832131907	26.52883194054104
O	26.79862674580903	-1.6037452503142262	28.693348761944392
O	33.73251660836834	-2.151447121078421	25.72720853542488
O	31.749121383207736	-1.7114513759057468	27.343772173307816
O	26.438893937085943	-1.141021470801167	26.12595173038914
O	31.54004284370159	-0.9708868972836573	26.21864717285797
O	34.93502873902141	-1.798031420954549	26.451678242456993
O	32.165184403516236	-1.7683752309219636	25.096650443040602
O	34.539294073804605	-2.5881774578054784	24.579083679404
O	30.5970402240157	-1.5036947776140899	28.167765220995676
O	30.315668488310607	-0.38026443519615655	26.50419040508854
O	30.48338946175591	-1.0866835731270865	29.36560015238308
O	29.067977638252895	-1.116869518916823	29.523892637452267
O	28.12661891886381	-1.8427481723343497	28.99047442923548
O	28.4670661688863	-2.726839691975816	27.970368606792036
O	29.838883547568535	-2.684948151296643	27.812589783651614
O	29.80695915618845	0.5141494542516967	27.132664526693944
O	28.407048683183014	0.39793159138177364	26.881234105442463
O	27.715307031879405	-0.5564313086754055	26.211300623345807
O	28.336206034534825	-1.0975215563756815	25.10423428389128
O	29.66677101117973	-0.8722676637740165	25.307969624263237
