25

O	31.94919355131918	-1.394879529942459	30.25239310603368
O	31.66585560864081	-3.0715150960009168	23.041756564231846
O	33.097119654795	0.782281184104836	30.24339811730862
O	32.96785890093378	-2.8377650632957394	24.12494826209647
O	32.02367516197098	-0.023954236141423113	30.498827679866853
O	33.07351767666693	2.0018192150124126	27.66870384414511
O	30.66283462733958	0.11118517989163168	30.622968436264912
O	30.5372800504332	-1.8187613960753182	25.70655553039715
O	29.69511118211479	-0.6369028403577419	29.62610834351018
O	33.87622002566839	-3.972939526948678	23.83749671220835
O	30.83802140764137	-0.7890888616150395	28.704960315907975
O	33.76370857738596	-1.7053727674150834	23.5811735017991
O	30.581319001221875	-1.7759964471479512	29.48785005626693
O	31.07153339478275	-1.4785834772348048	27.541686628017118
O	30.60929768238462	-0.7274005629408837	26.7156096760479
O	31.74145659152506	-0.9793921745852853	25.67603376921614
O	30.27763021094683	0.2233610179547071	27.661018957303096
O	31.26089361270749	-2.6216306008346137	26.663943132963343
O	29.722452099474882	0.8990245897737608	26.640510688393803
O	31.023966172426526	1.8408749727558795	26.530816083788455
O	31.69563745091932	2.1585626473519754	27.72220321039217
O	30.63782489326446	2.068965655385426	28.57846294468989
O	29.432195871692624	1.0717318890849832	28.236882859060852
O	32.51190368117754	-2.821223493851536	25.786743346264878
O	33.034009616550954	-1.4860813477653774	26.217170564851177
