88

O	-0.827461924725397	3.3621022516666668	2.7947406116984124
O	-0.989172405525397	3.1401234016666666	1.3585314216984123
O	0.15935247927460305	2.961376221666667	0.45149662369841237
O	-0.361076849725397	2.294332191666667	-0.8241993983015877
O	-0.763411166725397	0.9374453556666669	-0.7387138773015877
O	-1.612801394725397	0.7145831426666668	0.23020619369841233
O	-0.998474678325397	-0.20325669833333315	0.9798001516984124
O	-1.106944531725397	0.0350360866666668	2.413274001698412
O	-2.4453696707253973	0.2820286596666668	2.9117046816984122
O	0.20650940927460293	0.42223510166666683	2.7760874016984123
O	1.358619379274603	0.1995892736666668	1.8227925616984124
O	1.1231174592746032	-0.7476288683333331	0.8311032416984122
O	-0.05345874472539702	-0.7198581283333333	0.1906478026984123
O	-0.296947123725397	-0.28500238833333313	-1.0432707463015878
O	0.848737409274603	-0.4013359783333331	-1.9654500083015876
O	0.06652275927460294	-0.24600175833333326	-3.1337081683015877
O	1.011696559274603	-0.13297456233333316	-4.234241358301587
O	2.2472964992746034	-0.7684981283333331	-4.184321518301587
O	3.428711789274603	-0.49507453833333315	-4.874533908301587
O	2.500996459274603	-1.5977024683333334	-3.0852957683015876
O	1.589775229274603	-1.5881707783333332	-2.0444755883015877
O	0.966852389274603	-2.8358470683333334	-1.8132133683015876
O	-3.2053153707253967	1.3839541006666667	2.484760521698412
O	-3.3458715707253974	-0.6780927783333331	2.3835876116984123
O	-2.756501220725397	0.17072352766666676	4.206256431698413
O	3.217696969274603	1.656287981666667	-13.375035298301587
O	-0.26034379872539704	2.7166153116666667	-12.339472998301588
O	-7.526311830725397	6.152887091666667	-5.6439031883015875
O	-8.297649120725398	2.8402268116666667	-3.9035610783015877
O	-9.072040490725398	1.2219303366666667	-7.236357388301587
O	-5.797016730725397	2.651742521666667	-8.569551888301588
O	-3.8517511507253968	1.3517627166666668	-5.499586708301587
O	-5.685108370725397	-1.9187971683333331	-5.307347978301587
O	-5.103866590725397	-2.6189050283333333	-9.006645198301587
O	-1.448382327725397	-1.7869251283333334	-8.706624488301587
O	-1.0582798900253971	-4.123400598333333	-5.710861448301587
O	-2.714100710725397	-6.988512208333333	-7.439187168301587
O	-0.23464766772539702	-6.785110528333333	-10.332645098301587
O	2.7496948192746027	-6.676498528333333	-7.969328598301588
O	1.561091059274603	-9.865966008333332	-6.358035258301587
O	2.365053619274603	-11.911581608333332	-9.458686818301587
O	6.236373239274603	-11.128783508333333	-5.799068398301587
O	3.878727729274603	-11.696282508333333	4.441379011698412
O	2.5606733792746033	-10.261321408333332	1.1710234716984123
O	1.370622899274603	-6.886928628333333	2.6227821016984123
O	4.639601189274603	-6.481802508333334	4.648130511698413
O	6.612760729274603	-7.224874808333333	1.4346992516984125
O	4.629445719274603	-4.760117278333333	-0.6436029483015877
O	4.9599445792746035	-2.1136789283333335	2.124020311698412
O	8.738660389274603	-2.4919243283333334	2.595320531698412
O	9.040352619274604	-2.0919849183333334	-1.1690753883015876
O	6.866143329274603	1.0831153366666668	-1.1344666933015877
O	8.931279139274602	2.577034021666667	1.6994573416984124
O	9.815556619274604	6.463108811666666	-1.4820396483015879
O	4.966370289274603	7.816772011666667	-1.1189018703015878
O	6.041977379274603	6.472827331666667	-4.510565978301587
O	3.403984269274603	3.964278031666667	-5.180079468301587
O	4.505470849274603	3.955146881666667	-8.833595428301587
O	3.577194709274603	7.880317421666667	-12.235961198301588
O	1.864594439274603	7.8612792916666665	-8.854432668301587
O	3.600086099274603	9.912899791666668	-6.169419478301587
O	-4.343077590725397	9.868986091666667	1.5832436416984121
O	-10.029470060725396	7.590896681666667	1.7260521016984125
O	-8.798225840725397	5.973081171666666	7.615040421698413
O	-5.982389800725397	5.920456521666667	5.102154561698413
O	-3.841493500725397	8.914011951666668	6.103274381698412
O	-3.1017874107253967	7.001227631666667	9.297882301698413
O	-1.394095859725397	4.317306931666667	7.336464741698412
O	0.25907337927460294	6.858693491666667	5.0350503816984125
O	1.6709098492746028	8.595513571666666	8.104019521698413
O	3.274257729274603	5.356946941666667	9.352279721698412
O	4.690617359274603	4.460139001666667	5.916607621698413
O	6.1146451692746036	7.935213021666667	5.4028072516984125
O	7.750202859274603	7.847761471666667	8.833936981698413
O	10.650031519274604	5.877615211666667	4.811809671698413
O	9.109661419274603	-13.568417608333332	3.576304331698412
O	1.707844469274603	-1.3638607583333333	9.609990571698413
O	0.6941319292746029	-4.471064148333333	7.625083101698412
O	-1.6356081847253972	-5.537367348333333	10.453041801698413
O	-3.172571580725397	-2.1220051983333335	10.610005701698412
O	-3.3555157007253973	-2.2818336583333334	6.895253091698413
O	-5.2452515607253964	-5.540280038333333	6.776792121698413
O	-7.608720460725396	-4.112465098333334	9.355926731698412
O	-8.309884280725397	-1.122636888333333	7.1038545316984125
O	-8.620300670725397	-3.284577668333333	3.980560331698412
O	-11.030486980725398	-5.5803781783333335	5.723131821698413
O	-14.068619180725397	-2.6168059583333334	-1.9199870383015876
O	-10.467734400725396	-3.6809932183333336	-2.7593531683015877
