23

O	31.659455752858292	-0.036553537232961675	24.5609123337844
O	30.839446501250382	-1.0986511687250131	24.42779647953241
O	30.811286718262515	-2.0432141553745806	25.404675420747907
O	31.56381468063879	-1.8601882502928773	26.524322782439008
O	31.571922161393832	-2.507617375593089	27.750102101365993
O	31.40503026082098	-1.4591843475987754	28.73459483764508
O	32.39210897694963	-0.5791164227018022	28.652854062725204
O	32.09293730903592	0.7056252010486566	28.07841205813516
O	33.58668401320101	1.037586628393431	28.081007826910724
O	34.43614922443055	-0.19358232680200232	28.098382344986664
O	33.43466492707937	-1.1193026074201256	27.666460827575722
O	32.644285587855244	-0.9540603681814941	26.45220938393642
O	32.130729838932965	0.20055320745375865	25.847259336588046
O	30.18709387954911	-0.867288764789951	28.470093820429742
O	29.758296059753487	0.3555004102185458	28.080119045175884
O	29.04020014641168	0.21370279363137928	26.924301224348174
O	28.02746548138273	-0.7297690720962098	26.781328164397276
O	27.791461959630222	-1.119581875312478	25.453998642182597
O	28.32705668122537	-1.8410404502400857	27.460165205011783
O	29.192800748269608	-1.7963276788311728	28.514827761988332
O	32.51248759205584	0.14964490354821575	23.414394506473382
O	33.80268777213729	1.6863137177978	29.294981442058326
O	34.00156731246557	1.7674800181756436	27.020704434348577
