81

O	-0.8107666337253965	-4.7880811927142855	2.453537592238095
O	-0.9371454677253964	-3.5553277627142856	1.8529916722380948
O	-2.0698319487253967	-3.158648312714286	1.111038642238095
O	-2.0359093987253964	-2.102212802714286	0.31525064623809484
O	-0.7259064627253965	-1.6193751227142856	0.10696130723809483
O	-1.1594807947253964	-0.38795080271428584	-0.46112181566190513
O	-1.7359059887253965	0.6039220472857143	0.3640641812380949
O	-1.8900850477253965	1.7047628862857143	-0.42434451736190515
O	-2.5569347657253965	2.876969667285714	-0.6384128937619051
O	-3.4146644257253964	3.0167730272857143	-1.7464693677619052
O	-3.2064405857253964	2.1366953372857145	-2.744304787761905
O	-4.177957465725397	1.4731179632857143	-3.574680617761905
O	-1.8397163227253963	1.7195422162857144	-2.7594184777619053
O	-1.4494644267253964	1.1600410062857143	-1.572158737761905
O	-0.3706611717253965	0.43761228228571425	-1.137709646761905
O	0.1571157842746036	-1.424190152714286	1.130977362238095
O	0.0979389042746035	-2.631371502714286	1.711292492238095
O	1.6732194442746033	0.7765407201857143	-1.1401703127619052
O	-1.8128497327253963	3.855855607285714	-13.027582537761905
O	-0.0014738457253964388	0.6388589742857143	-12.240415137761905
O	5.867636884274603	-9.010466352714285	-8.444113667761906
O	5.8043150342746035	-5.7807077027142855	-6.432182737761906
O	3.0940356542746037	-7.129349282714286	-4.149657347761905
O	1.0579325142746034	-8.216523782714285	-7.1252526077619045
O	1.5938534242746036	-4.792940312714286	-8.672488407761906
O	0.5766631342746036	-3.076744002714286	-5.352699207761905
O	-2.2460612767253965	-5.482590562714286	-4.654545787761904
O	-3.6896744357253963	-5.035381542714286	-8.131922457761904
O	-3.4544747857253966	-1.2640125927142858	-7.843351097761905
O	-5.239305245725396	-1.3927374727142858	-4.445017587761905
O	-8.057091545725397	-3.488388632714286	-5.711695917761904
O	-8.825237515725396	-1.0227976427142855	-8.533480657761906
O	-8.772041435725397	1.9047583072857144	-6.083974567761905
O	-11.416547415725397	0.20403755828571424	-4.0112993977619045
O	-14.061192215725397	0.6263024942857143	-6.668262727761904
O	-13.327059915725396	4.5891784672857145	-3.108774897761905
O	-11.627692015725398	2.3071359072857143	7.028573862238094
O	-10.643246095725397	1.2047350572857143	3.5268164822380945
O	-6.913318255725397	0.6606765872857143	4.267191622238094
O	-6.614536505725397	3.934229447285714	6.267693572238095
O	-8.296744795725397	5.730905557285714	3.332407432238095
O	-5.972689835725397	4.155243157285715	0.8728396722380949
O	-2.9533721857253967	5.087726647285714	3.068757922238095
O	-3.8838509857253967	8.723877127285714	3.6330906122380946
O	-4.253458225725396	9.048872607285714	-0.1398247147619051
O	-0.7871303217253964	7.433486727285715	-0.7523994407619051
O	0.8228009742746036	9.832758887285715	1.7872089522380947
O	3.8561120842746033	11.301759037285715	-2.0259395477619053
O	6.099724324274604	6.777617037285714	-2.049112487761905
O	4.029230174274604	7.5942059272857145	-5.142076967761906
O	1.8628077242746035	4.547041177285714	-5.466110547761906
O	1.0488851042746035	5.6003845472857146	-8.993253947761906
O	4.407946774274604	5.277098207285714	-13.033219837761905
O	5.308889704274604	3.641112867285714	-9.737244477761905
O	7.469515664274603	5.740027297285714	-7.427331307761905
O	10.297692684274603	-1.9561933127142859	-0.016177852761905143
O	12.060158884274603	-6.545655482714285	-1.5381871477619051
O	9.104151884274604	-7.972084782714286	0.3672438432380949
O	8.426299474274604	-7.029693512714286	6.5564449622380945
O	7.323369154274603	-4.273564432714286	4.146577202238095
O	10.062233084274602	-1.620228312714286	4.652496682238095
O	8.629347474274603	-1.205793082714286	8.152424972238094
O	5.307806234274604	-0.07602306671428571	6.681149352238094
O	7.103277394274603	2.012840217285714	4.041699922238095
O	9.073968284274603	3.739692957285714	6.778870952238094
O	5.862314484274604	4.713393947285715	8.596226762238095
O	4.1349066342746035	5.921351847285714	5.423877272238094
O	7.171261594274602	7.980031057285714	4.3772312622380944
O	4.289903764274603	12.070394837285715	4.288075382238095
O	-0.2192780357253965	1.9825143672857144	9.981798762238094
O	-3.4931444157253964	0.4962556672857143	8.796913852238095
O	-3.5481260557253966	-1.9693741527142858	11.690874962238095
O	0.049150574274603454	-2.8853563427142856	11.200202962238095
O	-0.7391229587253965	-3.0947917827142857	7.525511702238095
O	-3.5838069357253963	-5.556074302714286	8.012179562238094
O	-1.2746667406253964	-7.607329082714286	10.205148062238095
O	1.3065297342746036	-7.759663072714285	7.384791432238094
O	-1.2860495481253964	-8.558703022714285	4.761935662238095
O	-2.7612844957253966	-11.276095762714284	6.812709472238096
O	-0.7395851407253965	-13.768723962714285	-1.3348064147619052
O	-2.6086075957253962	-10.486372762714286	-1.9265636877619052
