88

O	-1.215216468315873	2.372338995539683	-0.4807529253253962
O	-1.002090926915873	0.672464184539683	-2.214919353325396
O	-0.10707830431587295	-5.9081361244603166	0.8358969666746038
O	-1.355530888315873	2.798337355539683	-1.839191653325396
O	-1.361080682315873	0.13754452753968305	-1.0140956553253961
O	0.386159019684127	-1.4898602144603168	1.483306176674604
O	-1.744995531315873	4.010059015539683	-2.3456788833253963
O	-1.772622132315873	1.688792646539683	-2.907266703325396
O	0.262824609684127	0.828119098939683	-2.0362009833253962
O	1.033043609684127	1.958508305539683	-2.135747593325396
O	1.0598481696841273	2.7434917755396833	-3.353052643325396
O	2.035707309684127	1.7724049655396832	-1.1893667263253962
O	2.121694579684127	0.6375473795396831	-0.22309756432539618
O	1.7614862396841273	-0.4968410944603169	-0.9171420603253962
O	0.5669175196841271	-0.431596004460317	-1.5172193863253962
O	-0.612183536315873	-0.8943721044603169	-0.9347299063253962
O	-0.470943924315873	-2.2130870944603167	-0.4248600083253962
O	-0.389281098315873	-3.010838784460317	-1.5287834353253962
O	-0.506990401315873	-4.371229394460316	-1.0764884503253962
O	0.10413631968412707	-4.738839574460317	0.08558130867460378
O	0.613162399684127	-3.7671783744603164	0.9602180366746037
O	0.41934178968412705	-2.4784152144603167	0.5689688866746038
O	0.164132869684127	2.488137535539683	-4.398856883325396
O	2.130768079684127	2.5607859155396833	-4.167689173325396
O	1.066377449684127	4.129828485539683	-3.3413439233253963
O	-7.5386236603158725	-11.790995594460316	0.2346118886746038
O	-9.101678570315874	-8.700443124460318	-1.255645081325396
O	-10.448423200315874	1.5262959885396832	-2.652322523325396
O	-7.634919130315873	2.112329215539683	-5.149007263325396
O	-8.966039410315874	-0.531004834460317	-7.472341273325396
O	-9.232532450315874	-2.8469379444603167	-4.4500088633253965
O	-5.654609810315873	-2.0429578544603166	-3.370116413325396
O	-4.217636860315873	-2.027530764460317	-6.871807983325397
O	-5.779274830315873	-5.372276724460317	-7.6336201433253965
O	-4.476978710315873	-6.8432266844603165	-4.380342713325397
O	-0.958706701915873	-5.607556094460317	-5.041844283325396
O	-0.936651210815873	-6.989664184460317	-8.632030923325397
O	-1.749824038315873	-10.482412794460316	-7.353524273325396
O	0.990859499684127	-10.273589294460317	-4.6812624033253964
O	3.4942749696841275	-9.498957194460317	-7.425171343325396
O	6.746754239684127	-12.128981894460317	-4.907536333325397
O	12.468247299684126	-3.327424174460317	-4.832186693325396
O	8.913676889684126	-4.564553874460317	-5.451995593325397
O	7.143746719684127	-1.6881572644603167	-3.7194626933253963
O	9.538495199684126	-1.770888264460317	-0.6740845698253962
O	8.888062889684127	-5.528621314460317	-0.4594332763253962
O	5.140383329684127	-5.100991594460317	-0.5868370483253962
O	5.2699785596841275	-2.3448279244603167	1.997585886674604
O	7.505616449684127	-4.203145544460317	4.4900332866746036
O	5.100622149684127	-7.117464084460317	4.240891136674604
O	2.081999559684127	-4.826743594460317	4.919934986674604
O	3.8023047496841267	-3.301859294460317	7.955861346674603
O	-0.30697453131587304	-4.854644454460317	10.563471626674604
O	-3.126454240315873	-1.4113293644603169	8.164998146674604
O	-3.914714200315873	-5.038176994460317	7.327790516674603
O	-3.8790214003158727	-4.915189084460317	3.5573875166746043
O	-5.674709300315873	-8.302402114460318	3.6543727866746036
O	-10.721146240315873	-8.989654724460317	4.965887746674603
O	-9.378686420315875	-5.481104594460317	4.465444366674603
O	-8.240123660315874	-3.7544476944603167	7.642220106674604
O	-7.004784730315873	6.536794705539683	3.6882223866746036
O	-10.674728380315873	8.717558255539682	0.8099617566746037
O	-8.031628440315874	9.012304555539684	-1.8803881733253962
O	-2.703818710315873	12.229602005539682	-0.9379955533253962
O	-2.934401740315873	8.669737675539682	0.46234343667460387
O	-3.278906070315873	9.296999795539683	4.199715586674603
O	0.2802193896841271	10.643146965539684	4.058352516674604
O	1.510502979684127	7.2271911855396835	2.9641315766746037
O	-0.7959320793158731	5.534588065539683	5.492538776674603
O	0.6415119296841271	7.652982355539683	8.241990676674604
O	4.192281749684127	6.563282445539683	7.384417926674604
O	3.2529216896841273	2.874133565539683	7.057125156674603
O	1.374017389684127	2.920411495539683	10.379318426674605
O	4.301582499684127	4.586763195539683	12.123986426674604
O	4.362141129684127	-0.7481929144603169	12.033781126674604
O	4.437759559684127	0.959583043539683	15.417334126674604
O	7.954247959684127	5.329802395539684	1.794424106674604
O	8.477275439684126	3.3988869055396833	-1.4693078033253961
O	9.804337699684126	6.496629125539683	-3.232949563325396
O	6.975103359684127	8.600113525539683	-1.948072093325396
O	4.681259629684127	5.845515435539683	-2.962945953325396
O	5.962087409684127	5.757548145539683	-6.567316643325396
O	5.4546599196841274	9.470501055539684	-6.648268983325397
O	1.824351949684127	9.153134055539683	-5.5808108633253966
O	1.173455599684127	6.206408215539684	-7.921663613325396
O	2.611786029684127	8.105064725539682	-10.805557573325396
O	-5.385071830315873	4.986255005539683	-12.478973973325395
O	-3.609525260315873	1.9927907455396832	-10.853302873325395
