22

O	32.84054473106262	1.4375879462779693	28.75508789029845
O	31.456056409962446	1.289074029868128	29.148362633895402
O	30.615219579141534	1.4803987006081982	30.270592343720942
O	29.168080249909984	1.267792823546251	30.043486354243218
O	28.9189256095206	-0.06243011883364313	29.679087364655132
O	29.775453802022515	-0.40657686693603257	28.626650873255798
O	30.893301655079895	0.3939050931603993	28.31093511477465
O	30.566175118798828	0.5675680468777414	26.991343628592006
O	30.55171256877371	1.9041329349188925	26.306454512222114
O	29.700248378746288	-0.16873648809289965	26.42313736883461
O	29.3234686796537	-0.9201850484476755	27.408710564342677
O	27.946292607404143	-1.3529358776021658	27.333474319277258
O	28.10625817769323	-2.49735035422591	28.050031552051735
O	26.765393205615972	-3.0052857123465957	28.322560712992686
O	25.63097622505066	-2.3429412834649703	27.837261962138236
O	24.371087628896095	-2.204459830262623	28.404503380534607
O	25.767755989196434	-1.4596907864636417	26.756462441343306
O	27.049508513632542	-1.2500826558308364	26.32708154748697
O	27.56568134485812	-1.4959212402332982	25.0334690262647
O	33.40379414845107	2.5626015151423758	28.344208582763883
O	33.391720437943945	0.5415367103878821	27.821357872764306
O	33.57076808063442	0.9489576066387899	29.841987905522192
