18

O	26.091092458371442	-1.4785249984171787	27.70350287385564
O	26.553411327977436	0.07451522059322846	29.419269802126237
O	27.397827737089052	-1.758585481614494	27.888865380311774
O	28.048512662202764	0.009396063928523435	29.26472780047965
O	28.949792993571105	-1.6418410969534345	23.873696519092675
O	28.767801713066877	-0.5716825802880268	24.747502793399466
O	31.05116640245267	-1.8993624411221535	24.909586054633266
O	25.93529025507288	-0.1059803668974093	28.121724502589707
O	30.25615667233518	-2.0160418368296678	23.756229431117223
O	28.430413772020078	-0.8429416374044424	28.289037470316735
O	30.832303253052277	-1.224762768301639	27.2362900367608
O	29.806847598774155	-0.03298354902190925	25.583486027091237
O	30.77318242112606	-1.0301559552473654	25.9055975254469
O	29.40290993155534	0.4313119280410914	26.802652816500167
O	29.688024337255897	-0.5289090756621022	27.710518696208432
O	24.762916461481705	0.285514205507867	27.998094567214167
O	30.993914460670506	-2.0624546185942982	22.54419665103094
O	31.65347539741325	-1.4828679280027528	28.639005075153324
