32

O	32.54021572585007	-3.8807688053552845	19.811401792765597
O	32.72510362228216	-5.268687839794071	19.529071925408097
O	32.42581880856927	-5.472704512847709	18.10111868522359
O	31.32674457450222	-4.635583963458656	17.56402648382014
O	31.7543582743131	-3.215195581509853	17.548097946878535
O	32.60087780653476	-2.9833697224694458	18.74178538057073
O	33.67338294466204	-3.615645322472396	20.656985885795347
O	33.08573389482862	-3.8802528955421316	21.997636646256083
O	32.517400000667344	-2.8519016412745675	22.66187338940388
O	32.38137097963978	-2.5360553796449476	23.978148175737886
O	33.294461586285806	-2.5379988359574046	24.98468727775824
O	33.0353551106465	-1.8110102475687997	26.172908172231246
O	31.908198198891085	-1.0856742573509535	26.410076661517
O	30.963636656737393	-1.9006305147085645	25.721677990147164
O	31.12103063831064	-2.5183323594064673	24.501794660017104
O	31.255264530710132	-0.25686378795967124	27.25820960977701
O	31.895742539622187	0.8498178410177522	27.693142260535023
O	31.30043326176705	1.9180430372920274	28.563253879627478
O	30.153830418547454	2.1301369990235255	27.767834846764373
O	29.29096262689754	0.8491125115871894	28.102466648651436
O	29.98445761351384	-0.3929594310700131	27.963553668514066
O	30.565958571031032	-0.8054448118813693	29.17623075897087
O	30.53136679488928	0.015490154254539812	30.33659723862111
O	29.0150571977639	0.2181164576091688	30.37562431079276
O	28.617115485052608	0.9897019579186797	29.282067615809673
O	28.98090146299793	0.9160148769720073	31.61970695069385
O	33.18312430643702	0.5334526466668544	28.233911271496083
O	33.987603477593176	1.6019938438619692	28.060688474524206
O	34.57392125007421	2.388549100199623	29.062408455781874
O	34.00465585272504	2.28288900203942	30.3021568184809
O	33.65236468968462	0.9602786546292956	30.597847358320866
O	33.4022064016752	0.07551716430502431	29.51239853317407
