86

O	0.5739286081538455	3.621117638998461	-1.9908647436492304
O	-0.7476641113461544	-1.675292771001539	-1.2610176536492306
O	-0.09668268384615442	0.08671669899846113	3.38990654635077
O	0.6632784781538457	-0.766003441001539	2.5133928963507697
O	1.7420992481538455	0.09625594899846113	2.1951282463507695
O	1.9165343081538455	0.17202104899846105	0.8948873163507697
O	1.5564489281538454	-0.5299126710015389	-0.1831130291492304
O	1.3377826281538456	0.11268191899846114	-1.4419808736492303
O	2.4425871581538456	1.0193906719984611	-1.7688940236492305
O	2.0142893081538458	1.376935020998461	-2.9232067236492303
O	0.8703771181538456	1.774525525998461	-2.65204915364923
O	0.2639264941538455	0.864818156998461	-1.6575913736492303
O	0.03711699015384551	1.4583543859984611	-0.3504776516492304
O	-0.9172911058461545	1.254339159998461	0.5970487803507696
O	-0.7280158903461544	2.099839723998461	1.6865749763507698
O	0.43724705815384546	2.7972785589984612	1.9932526263507695
O	0.3916093181538456	2.905343398998461	3.35462381635077
O	0.9787719481538455	3.174555038998461	0.8389563263507697
O	0.49934498815384565	2.678644498998461	-0.4549884556492304
O	0.39915509815384564	-1.1888526610015389	-0.07070735464923039
O	0.20518429415384554	-1.305702901001539	1.3777422563507695
O	5.3272477281538455	3.8007492989984613	10.54470785635077
O	8.166602808153845	1.451694369998461	9.85066305635077
O	9.665105428153845	0.29501938399846106	6.6227142163507695
O	13.093845128153845	-3.6391517010015386	-4.119376073649231
O	9.687133628153845	-4.422428231001539	-2.6377413736492303
O	8.063352798153845	-1.6311024610015388	-4.658599403649231
O	10.759206628153846	0.8111442329984611	-3.5690930836492303
O	10.305371628153846	-0.34200891100153896	0.03489315135076959
O	6.612081408153846	0.026768128998460927	-0.3016387124492304
O	6.627904788153845	3.2797286689984606	-2.27505743364923
O	8.944242718153845	4.866353308998461	0.2502308833507696
O	6.628501068153845	3.770104988998461	3.06136759635077
O	3.7347304081538457	5.364724778998461	1.2988996763507696
O	5.3083568681538456	8.661718978998461	0.6978361963507697
O	6.0131626681538455	9.007680438998461	4.435964286350769
O	2.3913487681538457	8.10042408899846	5.316464206350769
O	1.1617092281538455	10.983131098998461	3.1749415163507697
O	2.5901205281538457	13.600779798998461	5.460527526350769
O	0.8757765481538455	12.00391529899846	8.378431966350771
O	-2.360659031846154	11.73128979899846	6.436331676350769
O	-9.165526081846155	9.841587778998461	-1.4640685236492303
O	-5.511725831846155	9.397608688998462	-0.4243191696492304
O	-5.224851031846154	5.897234698998461	-1.9107470336492303
O	-8.506992741846155	4.640102608998461	-0.4046930936492304
O	-7.3801050318461545	6.104152028998461	2.9831304763507696
O	-4.085166701846155	4.361280928998461	2.91006453635077
O	-5.800711621846155	1.0654055333984611	1.8207152163507696
O	-8.365595831846154	1.107548989698461	4.577964026350769
O	-5.533534001846155	1.705611231998461	7.065733386350769
O	-3.5593740818461543	-1.2807510310015389	5.733216026350769
O	-6.574731801846155	-3.554404441001539	5.8994557063507695
O	-3.7493648418461545	-6.552229041001539	8.95527897635077
O	-0.8315476078461544	-7.854564851001539	5.050101516350769
O	0.8945592981538455	-5.689934051001539	7.70193117635077
O	2.3980782781538457	-2.8593470510015386	5.50235628635077
O	4.515533128153845	-2.0033204910015385	8.53108613635077
O	5.349580288153845	-3.8419167510015386	11.86574415635077
O	8.629919158153845	-4.859741171001539	10.25810965635077
O	7.0437189281538455	-5.729351271001539	6.9518581263507695
O	4.420842358153846	-8.482493461001539	7.1157762363507695
O	3.1231441681538454	-10.142071601001538	-3.8388333736492304
O	5.890123938153845	-7.6203394710015395	-8.70117847364923
O	0.21647688415384558	-7.645294331001539	-11.41557684364923
O	0.4573972381538456	-6.980355011001539	-7.640167663649231
O	-0.9154429118461545	-10.27967790100154	-6.208586013649231
O	-4.2501347218461545	-9.225751301001539	-7.690343883649231
O	-4.312067871846154	-6.1525737710015385	-5.4825106136492305
O	-2.9660756018461543	-8.14453315100154	-2.5175441336492304
O	-5.770421771846155	-10.626936401001538	-2.97031695364923
O	-8.387944211846154	-7.861262151001538	-2.79579715364923
O	-6.808836881846155	-6.2223472910015385	0.2414752863507696
O	-6.564529851846155	-9.573481501001538	2.0872758963507696
O	-9.249865071846154	-7.628817441001539	5.8495086463507695
O	-11.949777471846154	11.58489739899846	3.0822863763507695
O	-9.113519151846154	-1.4549406510015388	-4.9766482436492305
O	-7.984102231846155	2.146932298998461	-5.08594624364923
O	-8.995369241846154	2.5045073789984613	-8.75570321364923
O	-7.428875051846155	-0.7633064710015389	-9.68398916364923
O	-4.438999411846154	0.31078751399846105	-7.569454393649231
O	-3.9513811618461543	3.5724516489984612	-9.39392526364923
O	-4.186088701846154	1.652397620998461	-12.65773504364923
O	-1.3608152218461544	-0.6309377710015389	-11.51322034364923
O	0.7174698281538456	2.215719058998461	-10.059605553649229
O	8.635945138153845	3.3043055289984613	-11.12166154364923
O	7.035543378153846	4.527613528998461	-7.9029636436492305
