20

O	28.32901821828119	-2.1300682354283076	27.781150422223966
O	27.299490872402046	-1.7403298554998698	26.916837192405122
O	26.432750932091107	-0.8342479658528963	27.53512365914776
O	25.129077099153942	-1.2698750458619619	27.60936623547253
O	27.07746745705893	0.2247352685816884	28.171699218429534
O	28.457440964559943	0.21020709338803206	28.376232543222
O	29.24782241031374	1.2113813807961056	29.15545661738038
O	30.606302505593796	1.2875036254170384	28.53952541513979
O	30.92205972364622	0.1034917129108453	27.68129331883256
O	30.475260903348463	-1.2140285982115209	28.223733724727598
O	29.017086710089114	-1.0631643821974726	28.34627910243042
O	30.87107019037887	-2.332424613450393	27.26063407886501
O	32.30709078361183	-2.6291508397210515	27.238927612541296
O	33.01124874592508	-1.3035884876378099	27.15591949795742
O	32.353719431821276	-0.07038057814766768	27.610062110848013
O	33.04371025877223	0.6645939845759983	28.681171964599155
O	34.43744730913152	0.18193792175239915	28.46570969205086
O	34.3877395985829	-1.1485580874817898	27.669694388971795
O	35.40656766247529	-1.272321734852083	26.759681784640794
O	33.15154015559585	-1.1805762148933399	25.664066872119577
