84

O	-2.837055250454546	-2.296012942621212	-1.115570130366667
O	-1.699119995454546	-1.8859155226212119	-0.30018214636666696
O	0.3854783895454541	1.042411857378788	1.6180659226333334
O	0.31991984954545405	0.41972784837878807	0.35289623263333303
O	-1.814398050454546	-1.2517932226212118	-2.937034067366667
O	1.848385179545454	-0.7239167726212119	1.973296602633333
O	-2.873903880454546	-2.0300854526212118	-2.447610997366667
O	1.580768769545454	0.5841173839787881	2.216633062633333
O	-0.766264313654546	-0.869539362621212	-2.158116177366667
O	-0.663898787254546	-1.8021098926212118	-1.224778763366667
O	0.7547059295454541	-1.8715400426212119	-0.788395463366667
O	0.723786889545454	-1.4664091326212119	1.256540412633333
O	0.952372329545454	-0.7877685526212119	0.06204010163333307
O	-3.600439420454546	-2.0873965826212117	-3.5874387173666666
O	2.008996019545454	1.455585900378788	3.1876261626333333
O	-0.10835733645454593	0.3363211023787881	-2.254515967366667
O	1.075265089545454	-2.991540172621212	-0.1464507773666669
O	1.366809539545454	-2.743298312621212	1.137553612633333
O	-11.493680470454546	-4.447341712621212	-4.110624897366667
O	-12.868678970454546	-2.094360252621212	-1.5218379513666669
O	-11.617900470454547	-1.006699872621212	1.8552398126333332
O	-6.266478370454546	2.747615567378788	11.766750452633332
O	-4.965762030454546	3.637659127378788	8.339507962633332
O	-2.338964360454546	0.8691702793787881	8.559739172633332
O	-4.963418480454546	-1.624650092621212	9.603902452633331
O	-7.118538800454546	-0.428929581621212	6.710566062633333
O	-4.137732630454546	-0.7515900326212119	4.248366942633333
O	-2.928806720454546	-4.013689312621212	5.747190372633333
O	-6.340025360454546	-5.576117292621212	5.561394752633333
O	-6.800328300454546	-4.459956442621212	1.982709732633333
O	-3.343340040454546	-5.833320132621212	0.9706738526333331
O	-4.111545910454546	-9.228046912621213	2.571056522633333
O	-7.341059260454546	-9.674081162621214	0.583343612633333
O	-5.573720940454546	-8.779659342621212	-2.676447847366667
O	-3.075538090454546	-11.55428406262121	-2.0509205473666667
O	-6.641015280454546	-12.713463362621212	-5.918107177366667
O	-2.971861330454546	-12.369833562621213	-6.8732686273666665
O	7.382882739545454	-10.32398676262121	-6.114236237366667
O	4.101463259545454	-9.91031466262121	-4.215720467366667
O	4.839843339545454	-6.386080972621212	-2.898207297366667
O	6.120384289545454	-5.152129742621212	-6.310743757366667
O	2.918594059545454	-6.608777912621212	-7.887499987366667
O	0.6887551795454541	-4.846925972621212	-5.3653728373666665
O	2.683377229545454	-1.6230311626212117	-6.033781947366667
O	2.493803309545454	-1.6117468226212117	-9.718750397366668
O	-1.249968636454546	-2.214861012621212	-9.451930277366667
O	-1.7067240884545458	0.7609691613787881	-7.069257937366666
O	0.308282549545454	3.053783557378788	-9.244079467366667
O	-3.869245750454546	6.009274077378788	-9.275579947366667
O	-3.065797500454546	7.130902107378788	-4.419884457366667
O	-6.158892740454546	5.025216147378788	-5.111081717366667
O	-5.746820230454546	2.3040827573787883	-2.558583377366667
O	-9.381129750454544	1.400627524378788	-3.1871268473666667
O	-12.348418270454545	3.278279647378788	-4.877335357366667
O	-13.459329970454547	4.251982707378788	-1.375819147366667
O	-9.909465130454546	4.993737937378788	-0.203489846366667
O	-8.193174710454546	7.761146227378788	-2.143154527366667
O	-5.281545530454546	9.216490807378786	-0.20480873636666697
O	0.44478055954545415	9.42800427737879	4.549298992633333
O	-0.23607725645454591	10.006541687378789	9.655982652633332
O	2.008573409545454	6.944024987378788	9.943231452633333
O	7.9008548095454545	6.941565067378788	7.735999252633333
O	5.022379909545454	6.279974817378788	5.244934052633333
O	4.987701679545454	9.671018037378786	3.329578452633333
O	8.368545609545453	8.608194977378787	1.9556116726333332
O	6.793150169545454	5.524195757378788	0.326537632633333
O	3.7919186495454538	7.586750887378788	-0.766386011366667
O	6.090482169545454	10.115381677378789	-2.429166087366667
O	7.7989791495454535	7.365891837378788	-4.457710017366667
O	4.516871959545454	5.713221657378788	-5.461879447366667
O	2.971204199545454	9.058626527378788	-6.5190472173666665
O	2.158647509545454	7.158514127378788	-11.077473247366667
O	9.854220329545456	0.9133452893787881	-3.531764437366667
O	9.121142579545452	-2.6991042426212117	-2.669467817366667
O	12.441546229545455	-3.068514112621212	-0.849490405166667
O	11.971747529545453	0.16540689337878806	0.9720312926333331
O	8.405930519545453	-0.950044732621212	1.635114342633333
O	9.470582229545453	-4.228642422621212	3.2037708226333335
O	11.926795429545454	-2.286140302621212	5.318526972633333
O	9.109986829545456	-0.06257629162121192	6.598078062633333
O	6.783179519545454	-3.0295908326212118	7.141826842633333
O	9.435182329545455	-4.875990412621212	9.067100102633333
O	1.8696430795454542	-4.169619052621212	13.435115152633331
O	0.7235530395454541	-5.317495582621212	9.966856852633333
