35

O	33.59447833161593	0.596738995532048	23.620397935650477
O	34.02784137437938	1.5019720123267795	24.620132952623706
O	33.37162590728062	2.125979697959637	25.725860377049887
O	32.09938830308644	1.6470063833698267	25.3365599233558
O	31.59882140223426	0.5843787449988896	24.576628284517426
O	32.25069874699272	0.060712440206815876	23.509812685747214
O	31.86825484161493	-1.533924340195108	25.441031086907525
O	31.61316987572472	-2.7562074619074375	24.27194865076624
O	33.693604829250575	-2.6362053630540268	25.093639496805277
O	33.235431480255784	-3.0237514928341196	26.368049897116038
O	33.29738639970344	-2.0773335788209835	27.425588682446122
O	32.93666267149375	-0.640142218784194	27.290904876238717
O	34.18420027756965	-0.7388760473680384	26.612189588708432
O	34.356614307086595	-1.5868356167128104	25.49575955235386
O	31.56429952390686	-0.3231568945105413	26.78936227205243
O	29.227359255804316	-1.2066709719526183	26.097184209321743
O	29.14704182077229	-2.420716859996905	26.668547598916756
O	29.442559907950596	-2.028013907266542	28.068187909591046
O	29.656171846678134	-0.6142104310425943	28.081800853181825
O	30.841227666364716	-0.0285048963729444	28.908344813104073
O	31.39871717240842	-1.216448286814452	29.37686566441361
O	32.59851224108595	-0.7532730226951664	29.84180947526741
O	33.15061545093841	0.5400503882817825	29.620531366270423
O	32.05856186501678	-0.7366331516826027	24.39635977504476
O	30.235075882530754	-0.755877901480664	26.792486437752718
O	33.004731616007604	-2.8176570919391564	23.87312426190082
O	32.451031681454594	1.2110854575019214	28.589762281015776
O	31.401403452382475	0.547471994054313	27.949311282929195
O	28.881241737661373	-1.5097280879240507	24.75007877490096
O	27.570832791305378	-2.0768161423754004	24.68277220783953
O	26.744642890315507	-2.2097064931469417	25.79755202961781
O	27.647883387417895	-2.5996803473639356	26.77113202823199
O	30.660523608307685	-3.0335274795195346	28.422318671044184
O	34.54322597577269	0.7519402654143855	29.430662167687583
O	25.790830434734886	-3.2449856185786	25.616124837250364
