92

O	0.32803718834920703	1.1716154613904761	0.41207588475714224
O	-0.329772551650793	2.167514270390476	0.9070033877571422
O	-0.663423311650793	2.351723320390476	2.3912362677571424
O	0.258885468349207	1.9264918203904762	3.198903357757142
O	0.15234192834920712	1.2590247993904762	4.341007377757142
O	1.414039078349207	1.865382380390476	2.5379340877571424
O	1.5342942783492068	1.471493920390476	1.0810901377571422
O	-0.466266751650793	-0.07551510860952382	0.4785790147571422
O	0.076483258349207	-0.6529579596095239	1.6059973777571421
O	1.4822096683492072	-0.6350408896095239	2.1605336277571423
O	1.783739508349207	-1.3620722396095237	3.3539066777571422
O	-0.873153717650793	-1.126375089609524	2.7389528677571424
O	-0.4038764516507929	-1.675942579609524	3.8735858877571427
O	-0.9313597616507929	-1.5603307496095238	5.162300637757142
O	-2.267232927650793	-1.294379589609524	5.2176548177571425
O	-2.621790949650793	-0.35161990960952383	4.2957748377571425
O	-2.067942099650793	-0.5417350296095238	3.0291440277571424
O	-1.967988286650793	0.05089127039047614	0.7936840477571421
O	-2.504891263650793	-0.8195678796095238	-0.11131446724285782
O	-3.799664311650793	-0.7616001196095239	-0.6144952062428578
O	-4.088028751650793	0.47498376539047615	-1.2088623562428578
O	-5.330498341650793	0.3400057393904762	-1.785061442242858
O	-3.737320901650793	1.4460843993904762	-0.2615408072428578
O	-2.574661438650793	1.3150005503904763	0.5247242597571422
O	-5.712028621650793	-0.4682540996095239	-2.814948932242858
O	-7.091786831650793	-1.010898809609524	-2.8661532422428575
O	-7.623238661650793	-1.256494339609524	-4.175965992242858
O	-8.727931051650792	-0.4138028196095238	-4.555832192242858
O	-8.193546691650793	-2.605753809609524	-4.126274192242858
O	2.4802535183492074	9.035534120390476	-10.348158142242857
O	-0.01864309165079292	9.861494600390477	-7.633115632242857
O	-7.513449431650793	12.046843020390476	1.332349367757142
O	-4.260877121650793	10.129689070390477	1.798585357757142
O	-6.156404461650793	6.821139690390476	1.6556374477571423
O	-7.898645461650793	7.883984560390477	-1.4926195422428579
O	-4.523943161650793	8.944236370390477	-2.9110270122428576
O	-2.876932501650793	5.567344520390476	-1.925330732242858
O	-5.886327011650793	3.596808770390476	-2.9099989822428576
O	-6.093448581650793	5.185913150390476	-6.3163075922428575
O	-2.372700139650793	4.622503190390477	-6.853745372242858
O	-2.623628779650793	0.9568659937904762	-5.8946035922428575
O	-5.560282311650793	0.36923050039047617	-8.309422362242858
O	-3.643628051650793	1.717833924390476	-11.239486022242858
O	-0.5940386316507931	-0.4056317196095238	-10.479033222242858
O	-2.749547151650793	-3.4949466296095237	-10.520038922242858
O	-3.293688691650793	-3.252730589609524	-14.279824822242858
O	1.035407208349207	-5.891988809609524	-12.446562422242858
O	-2.884266601650793	-14.182805179609524	-3.1871013822428576
O	0.21286004834920713	-12.202480579609523	-4.045146492242858
O	-0.8911088586507929	-8.766815089609523	-5.323148612242858
O	-0.37131026165079306	-6.9708365396095235	-2.021994282242858
O	3.0590136683492073	-8.579166789609523	-1.3849399672428577
O	4.017479878349207	-7.553927689609523	-4.9396556022428575
O	2.891830498349207	-3.9388693296095236	-4.416404302242858
O	4.735956968349207	-3.8125738996095238	-1.1201046642428578
O	8.031542588349208	-5.314671739609524	-2.3623827322428577
O	7.932982758349207	-2.7666524196095237	-5.163411452242857
O	7.4061326783492065	0.09044329839047616	-2.697960982242858
O	10.279261888349208	-1.089918129609524	-0.5009270919428578
O	12.176205388349207	3.5956081803904762	-1.1928769912428578
O	8.481250588349209	5.529019460390476	1.6070996477571422
O	8.335987988349206	6.437872430390476	-2.086686132242858
O	4.736874528349207	5.524431270390476	-3.0017212222428578
O	5.250948308349207	7.594579470390476	-6.133913552242857
O	5.511326558349207	12.857719020390476	-6.332004252242857
O	4.483530478349207	11.161092820390477	-3.1143397322428577
O	-4.673614551650793	7.269114810390477	9.159516427757142
O	-5.691497741650793	5.019958990390476	12.028557877757143
O	-3.380163401650793	2.0250748303904764	12.374936877757142
O	-1.243129379650793	2.850023890390476	9.414315477757143
O	2.0614459283492073	3.903438860390476	10.936009977757143
O	2.383935148349207	0.3028788703904761	12.161941577757142
O	2.5600600283492074	-0.8867801996095239	8.607363267757142
O	4.926904558349207	2.0493221003904765	7.7453278377571415
O	7.436026378349207	-2.539849689609524	8.901089567757142
O	7.902494198349207	-1.390196499609524	5.307576257757142
O	10.571238388349208	1.1709782013904761	6.230258707757143
O	13.665400488349206	-1.0329920996095239	2.9723732577571425
O	4.013461428349207	-14.270303979609523	-7.621412402242858
O	3.2621047483492074	-7.182854809609523	6.138860807757142
O	0.783026398349207	-8.104479779609523	3.3977038077571424
O	-1.349026082650793	-10.021227579609523	5.867744327757142
O	-1.275879796650793	-7.240896269609523	8.354517597757143
O	-2.043197080650793	-5.002642799609523	5.480043797757142
O	-5.122863381650793	-6.883330839609524	4.3862657077571425
O	-6.248163261650793	-6.786597219609524	7.971142867757143
O	-5.927215271650793	-2.9971443196095238	8.028727707757142
O	-7.537311851650793	-2.576191149609524	4.6076012677571425
O	-10.416701901650793	-4.761616029609524	5.654736387757143
O	-11.735737011650794	1.0532876203904762	5.594857837757142
O	-13.146923511650794	2.897516670390476	2.5491079577571423
O	-10.620648701650794	1.8293361193904762	-0.0588427852428578
