95

O	-1.5488849955238098	-2.8965246547515884	-2.2134022303968255
O	-2.0771681175238097	-1.472452804751588	-2.5364091163968254
O	-1.7338956575238096	-0.3849302547515878	-1.7555131361968257
O	-1.8805287005238096	0.8754470492484122	-0.9698524563968256
O	-0.6096427825238097	1.4514457762484123	-1.2522158053968258
O	-0.4092461955238097	1.6326446242484123	-2.6584543593968255
O	-0.3658559455238096	0.5069616882484123	-3.4359186953968255
O	-0.4121548005238097	0.6635096302484123	-4.794890585396826
O	-0.49708326152380966	1.9503955082484121	-5.229687355396826
O	-1.3797971175238097	2.4864943852484123	-6.140526065396825
O	0.43612084847619026	2.6279401052484124	-4.504738405396826
O	0.6299529384761904	2.3045397452484124	-3.1316072253968255
O	0.052473618476190254	0.5006167112484122	-0.6383819353968256
O	1.0963122784761903	0.0021945152484121877	-1.4120425553968257
O	1.3550353284761902	-1.1883325747515878	-1.9864093383968258
O	1.9230965684761903	-1.0166428947515878	-3.2606371053968255
O	2.7934343184761903	-0.04010344475158778	-3.595520845396826
O	4.140717178476191	-0.2107396047515877	-3.8159442053968258
O	2.7787209184761905	0.9568016372484123	-2.731072065396826
O	2.2534497284761903	0.7885568292484122	-1.4199576043968256
O	-0.8170855225238096	-0.27116086475158774	0.2572156746031744
O	-1.8523826915238097	0.7082558072484122	0.35771360460317436
O	-1.5928807885238097	-1.173491604751588	-0.5785637853968257
O	-3.0423936815238095	-1.1262208447515876	-3.1787688353968253
O	-3.9353245215238095	-0.001205824751587814	-3.2841374453968255
O	-3.39194834152381	0.7045802642484122	-4.348583595396826
O	-3.9296748215238098	2.0069596912484124	-4.4210284953968255
O	-3.2196608915238096	2.6961618652484125	-3.3922371253968255
O	-3.86633923152381	2.2101370442484125	-2.2209370993968256
O	-3.8174127315238096	0.7900376012484123	-2.1281432373968254
O	-4.560866881523809	0.14937882524841228	-1.0335297223968256
O	-3.79145699152381	-2.2588294047515873	-1.1989695333968258
O	7.21732099847619	-8.138867784751588	-7.458823235396825
O	-2.6520050015238095	-9.313390094751588	-4.256458325396825
O	-4.05242283152381	-5.956597914751588	-5.435260985396826
O	-2.8712718615238098	-6.644685154751588	-8.948087715396825
O	0.5412858684761903	-7.606348204751589	-7.537825425396825
O	0.6664820284761903	-4.452947184751588	-5.484570155396826
O	-0.8311268925238097	-2.353167234751588	-8.227887145396826
O	1.7016427084761903	-3.4357584247515875	-10.701319525396826
O	4.573706208476191	-2.904026514751588	-8.347482315396826
O	3.2719185484761906	0.7102045002484122	-7.579612865396825
O	3.17924366847619	1.6007724372484122	-11.189427475396826
O	6.758048438476189	0.6043463752484123	-11.860703865396827
O	7.98197519847619	2.5810306352484123	-8.830688025396826
O	6.48401867847619	5.719175355248412	-10.271010705396826
O	2.9385743184761908	13.747982905248412	-2.9170910953968257
O	3.4666785184761904	10.521815125248413	-4.923654355396826
O	1.4240439084761904	8.333030215248412	-2.4784338073968257
O	3.0761668884761906	9.732892325248413	0.6245114446031745
O	6.46322891847619	9.128215665248412	-1.1201087363968256
O	5.71415446847619	5.569689935248412	-1.9311117753968257
O	4.44669212847619	5.008826905248412	1.6295976046031744
O	7.38363585847619	6.488680265248412	3.416940744603175
O	7.592002498476189	1.1295740852484122	2.227867534603174
O	7.74515355847619	1.9961072492484122	5.941700984603175
O	5.461228868476191	-4.779285314751588	5.331829794603174
O	8.27979257847619	-5.312765464751588	2.8531291646031747
O	6.612174148476191	-4.390471174751588	-0.3365143053968256
O	9.41232473847619	-6.037318944751588	-2.2541808273968256
O	10.08256113847619	-11.238623494751588	-2.578397465396826
O	6.867317598476189	-9.869033194751587	-1.1135339363968257
O	6.82433674847619	-9.569330194751588	2.6635210746031746
O	3.2618579184761907	-9.228795994751588	3.940959434603174
O	-3.94426343152381	-7.580984474751588	4.235370334603175
O	-7.54211823152381	-10.549422294751588	1.9701619046031744
O	-8.725522201523809	-7.311179664751588	0.3789855346031745
O	-11.73880646152381	-5.370751034751588	1.6477369846031744
O	-10.712751921523811	-2.4492073347515877	3.8895463646031745
O	-6.9923178715238095	-2.9459360947515876	3.4402464646031747
O	-5.84673121152381	-4.199180834751588	6.850893084603174
O	-6.774687841523809	-0.7412510447515877	8.145320864603173
O	-4.14377344152381	0.8263926582484122	5.9710519346031745
O	-1.6858772785238096	-2.007400474751588	6.763929234603174
O	-2.1944886385238096	-1.3419005947515876	10.449914934603173
O	-1.2754214905238097	2.3443925752484125	10.026362534603173
O	1.7737848884761904	1.5868909712484123	7.828746674603175
O	3.0386854784761907	-1.0656714447515878	10.259892134603174
O	2.6061537984761904	1.2979503535984123	13.185576034603173
O	4.57477522847619	3.981170595248412	11.366984834603175
O	7.3179975884761905	1.4650241642484123	10.733629734603173
O	7.30404632847619	0.6600528772484122	14.448011434603174
O	-2.3249590015238097	7.323901375248412	5.466593354603175
O	-1.9837015415238097	8.693937455248413	1.9578887646031744
O	-5.39466966152381	10.374967775248413	2.166882294603174
O	-6.9747452215238095	7.291560905248412	3.5654452346031746
O	-5.09941170152381	5.339053375248412	0.8978044946031745
O	-6.56324795152381	7.489832355248412	-1.8972391693968256
O	-9.96868711152381	6.982081865248412	-0.43062738539682566
O	-9.53120151152381	3.200609495248412	-0.47908056539682553
O	-8.06823251152381	3.146389665248412	-3.9523081353968257
O	-10.92268072152381	5.276776285248412	-5.2627861353968255
O	-11.32882016152381	-0.5512808547515877	-6.835722845396825
O	-9.73350105152381	-2.077366424751588	-9.962681055396827
O	-6.165565701523809	-0.7303838647515877	-9.674403585396826
