86

O	-2.593016219390625	-1.7401031025468752	-0.4016729486875003
O	-1.9951187473906251	-0.693667322546875	0.3107836883124997
O	-2.739311199390625	0.439986043453125	0.3660863033124996
O	-2.070576619390625	1.803384313453125	0.7086702733124998
O	-0.7780859983906252	-0.7192712725468751	0.9375524433124997
O	-0.3698713213906252	0.521370333453125	1.1262686933125
O	-0.8329774453906251	1.7618188034531248	1.3844197433124994
O	-0.10990151639062518	2.762703037453125	0.8397631633124997
O	0.7306998206093749	3.7440339674531247	0.8952643133124997
O	1.2343212506093748	3.726096377453125	-0.5132262946875004
O	0.6652059906093748	2.6077583274531246	-0.6247624212875003
O	-0.8629120583906251	3.376542117453125	-0.5684075831875003
O	-1.1912239313906252	4.793439527453125	-0.19688443868750033
O	0.7793645806093747	1.3969618364531249	-0.9143361466875003
O	-0.4411656493906252	1.2645197124531249	-1.6223982176875005
O	-0.7502707503906252	-0.16773852254687505	-2.1479754666875004
O	0.18087778060937487	-1.1806058025468749	-1.8697237066875
O	-0.10520121439062524	-2.5113033125468753	-1.6866120166875005
O	1.4160083406093749	-0.733829542546875	-1.4900954786875005
O	1.3625107606093747	0.629859185453125	-1.7641922066875004
O	-2.816694019390625	2.9334788574531245	0.5790119033124997
O	-1.6611610113906252	1.7982002764531249	-1.7029969966875003
O	-5.170065539390625	-2.5810458425468754	-12.579645046687501
O	-2.905686629390625	0.4143863854531249	-12.2091127466875
O	4.676129550609375	6.110214867453125	-7.7956807466875
O	2.635377250609375	7.582102737453125	-4.9156652566875
O	0.11461586060937479	8.987420387453124	-7.3659354866875
O	-0.02132340939062516	5.603749417453125	-9.1040325266875
O	-0.4530416323906252	3.9273697774531247	-5.747269096687501
O	-2.8895860393906254	6.521154987453126	-4.3620672766875
O	-5.052776239390625	6.262395217453125	-7.3552967766875
O	-5.078106489390625	2.464813707453125	-7.1073918966875
O	-6.018504239390625	2.564874207453125	-3.4532608866875005
O	-8.835686519390626	4.993559147453126	-3.9732934066875005
O	-10.452963609390626	2.731328127453125	-6.5887385266875
O	-10.139063829390626	-0.291441692546875	-4.2904530366875
O	-12.122024239390626	1.571165738453125	-1.6811340466875002
O	-15.057587939390626	-2.2090720325468753	-4.1502012266875
O	-14.242980039390625	-2.6424047325468747	-0.46165390068750034
O	-10.178267859390626	-0.938079492546875	9.1909723833125
O	-9.887342089390625	0.18357102145312498	5.5464007933124995
O	-6.081804699390625	0.3737783694531249	5.5837113133125
O	-5.638696739390625	-3.0295492025468747	7.367084523312499
O	-8.068916609390625	-4.507473822546875	4.7387429433124995
O	-6.233821119390625	-3.1112545425468747	1.8048014733124997
O	-2.915389389390625	-4.385521242546875	3.3753807333124994
O	-3.996752309390625	-7.872198572546874	3.978700353312499
O	-5.199390459390625	-7.978681212546875	0.3765492633124997
O	-1.8301125873906252	-6.684617162546875	-0.9568449426875003
O	0.06957504060937492	-9.252118082546875	1.1227976333124996
O	2.002155280609375	-10.934596982546875	-3.2781832866875003
O	4.635698340609375	-6.6737734325468745	-3.7350076366875005
O	1.8473691006093749	-7.121464042546875	-6.2754346966875
O	-0.0908920973906252	-3.9470452025468745	-6.1297623566875
O	-1.6878965743906251	-4.676485562546874	-9.310477736687501
O	0.6827925606093748	-4.613299172546875	-14.031801746687501
O	2.4976731706093744	-3.1857731725468748	-11.0290964466875
O	4.859328200609375	-5.614014712546875	-9.3022621266875
O	10.060789560609374	1.589227518453125	-2.5595306566875005
O	11.925982760609374	6.058445897453125	-4.3732937666875005
O	9.589440460609374	7.6854963474531255	-1.8513103366875003
O	10.061420360609374	6.574594357453125	4.2927589133124995
O	8.302172860609375	4.012522597453125	2.1722382433124996
O	10.796128760609374	1.1119852714531249	2.0429079133124994
O	10.132505460609375	0.716865235453125	5.7645217933124995
O	6.502589780609375	-0.07420556554687507	5.071130083312499
O	7.482379220609375	-2.2337363925468754	2.0674953033124996
O	9.793695960609375	-4.221442362546875	4.275309333312499
O	6.955739340609376	-4.944421462546875	6.7196968533125
O	4.473193380609375	-5.872144662546875	3.992576463312499
O	7.007367280609375	-8.201604122546875	2.2998418033124994
O	7.798868940609375	-9.900900382546876	5.5763052333125
O	3.7489462106093754	-11.965522182546875	2.7661826633124997
O	6.667229890609375	-14.247868382546876	3.5831416533124996
O	1.651732730609375	-1.7395339525468752	9.536429153312499
O	-1.6628063303906253	0.09766496545312497	9.1579985833125
O	-0.7971801903906253	2.515091167453125	11.959989753312499
O	2.643849570609375	3.0930260074531253	10.6140108533125
O	1.075642770609375	3.432407227453125	7.1269366533125
O	-1.2983228823906252	6.155314897453125	8.3385682333125
O	1.6108738106093747	7.929728347453125	9.9643517533125
O	3.4602241906093747	7.881333617453125	6.6070518833125
O	0.4174492106093748	8.897347677453125	4.6074847633125
O	-0.2252775793906252	11.779457917453124	7.0174181933124995
O	0.15231062060937473	14.470208117453124	-1.2341844076875002
O	-2.0989815793906255	11.358688117453124	-1.4314654576875003
