18

O	31.5282785758119	-2.078518859135997	25.009914594371747
O	33.06812951714818	-1.3984239071200917	23.230301168906184
O	32.61120971340887	-1.3767334842088745	24.555952170670757
O	35.18367124073411	-1.4642567689220043	28.635328870936117
O	32.542579127628464	-0.07548084539102848	25.052469618173205
O	31.31231032533399	0.26891070267791184	25.796709251570743
O	31.45004369241326	-0.49533110142044917	26.86343465815612
O	30.767504103342084	-1.6193149690325899	26.128287529122613
O	30.586030105086312	0.06835124531107431	27.988681882846965
O	31.160909716982236	0.006083529899293526	29.327223897447972
O	32.52462904831479	-0.4630039555134233	29.018249624796344
O	32.80666096533457	-1.539491974218596	28.10105820727876
O	31.48968030848423	-2.2154359425653256	28.260218130884393
O	30.179959506477356	-1.2391298286542358	28.524111882959318
O	32.72612697826264	0.9070791002816515	28.154799962513213
O	34.12281747867108	0.5097621482386475	28.54271317003249
O	34.106897740348394	-0.8868938332978799	27.914450466816273
O	33.49006282766019	-2.623247259706115	27.508170920600726
