87

O	0.40243798769841277	-1.0036623860698417	2.4088940021269845
O	1.2521572876984128	4.786214983930158	-1.1695854978730156
O	0.4534996276984127	0.2539519439301585	3.2692040521269847
O	-0.44888176030158733	4.3707791039301584	1.2626191721269844
O	1.2920101376984128	0.9047997829301585	2.1649202321269847
O	0.08823274769841283	1.1391255579301585	1.5029369821269842
O	-0.9562272133015872	1.0428724689301585	2.7282495921269847
O	-1.7706098043015874	-0.16352525606984147	2.9188066321269845
O	-1.6010146913015872	-0.9594953660698415	1.6287613621269843
O	-0.12019443930158724	-0.9139060560698415	1.0561401421269843
O	-0.6022958713015873	0.26560016593015845	0.7468466511269845
O	-1.0067822505015873	0.24383514993015853	-0.5011044198730156
O	-1.9931753383015873	1.3040490629301584	-0.03742176087301558
O	0.2957039076984127	0.5919230639301585	-1.1417041778730157
O	1.4523945576984125	1.1005102479301585	-0.6417671708730156
O	1.5867180776984127	2.5893259539301585	-0.4594842918730156
O	1.2073375476984125	3.4115876739301583	-1.4767194378730157
O	0.05832517769841283	2.9428392139301582	-1.9136849478730156
O	-0.026378102301587214	1.4696316689301585	-1.9864954878730157
O	-0.8531433933015873	1.9454046129301585	0.6327961061269844
O	-1.2911469633015873	3.3411840139301585	0.7497641921269844
O	-2.5785477623015876	3.6049030339301584	1.2365203021269844
O	-3.270528452301587	2.4833949239301587	1.5940188021269843
O	-3.037437862301587	1.3866638439301584	0.7718016501269844
O	-1.2365857343015874	-8.24697073606984	-10.837374687873016
O	-3.885131422301587	-5.617860606069842	-10.258343487873015
O	-11.906337212301587	2.7000083239301587	-7.237263657873015
O	-9.955299142301588	0.7576475989301585	-4.647769477873015
O	-7.479655072301587	3.6267658439301584	-4.232463917873016
O	-7.038211822301587	3.8711549539301586	-7.961494157873015
O	-6.537891302301587	0.10069020393015848	-8.104760497873016
O	-3.974567432301587	0.27172207793015846	-5.266662767873015
O	-2.338898532301587	3.3982467639301586	-6.529945797873015
O	-1.8978767493015871	1.9945653929301583	-10.009729987873015
O	-0.4261093993015873	-1.2234432760698417	-8.629265257873016
O	2.1348792976984123	0.6755135309301585	-6.627417647873015
O	3.2643373376984126	2.864972793930159	-9.439237177873016
O	4.0984007276984125	-0.24839257606984155	-11.452885787873015
O	6.037663247698412	-1.8082653560698416	-8.572679287873015
O	8.186296317698412	1.2729050763301584	-8.321984827873015
O	9.847005087698413	0.5781925019301585	-11.632009987873015
O	11.896603287698413	-1.6437055560698415	-7.165810257873016
O	12.624706887698412	4.050080363930158	1.6506401221269844
O	10.219334487698413	3.2808582139301583	-1.2300552778730156
O	7.128167327698412	2.9913194039301585	1.0219801321269844
O	8.843914657698413	0.9377353219301585	3.6775724921269846
O	10.001584887698412	-1.3643373460698416	0.8065367021269845
O	6.5312959076984125	-1.6644456360698414	-0.7345043898730156
O	5.068374947698413	-2.2850920460698414	2.6873642321269844
O	7.532214877698413	-4.983458876069841	3.7725852821269847
O	6.830036217698413	-6.740301746069841	0.47960163312698445
O	2.9432127376984125	-6.343285096069842	1.0411256821269843
O	3.4016513876984122	-7.959948586069841	4.5573422321269845
O	0.23205169769841283	-11.574040336069842	2.9973501721269846
O	-3.5437833523015874	-8.255069896069841	2.7621790721269845
O	-2.3578739423015875	-9.57785913606984	-0.5744233708730156
O	-1.8516737253015871	-6.343896906069841	-2.5514813078730154
O	-1.7650643763015874	-8.740628626069842	-5.633108267873015
O	-5.934176322301587	-11.193624936069842	-7.772378627873016
O	-6.453577032301587	-8.619414996069843	-5.040390747873015
O	-6.733323162301588	-10.014398936069842	-1.5428518678730156
O	-10.179871642301588	-1.0539583660698417	3.959266172126984
O	-11.494640812301588	4.660633373930159	2.0819728121269847
O	-8.590867602301588	6.562704273930159	7.294866602126985
O	-7.254896302301588	3.4501883639301583	5.571587472126985
O	-8.389900372301588	0.6496313769301585	7.947680922126985
O	-5.955574962301587	2.1336805359301585	10.467344612126984
O	-3.0592449423015875	1.4166688119301585	8.207166762126985
O	-4.572316872301587	-2.0026841360698415	7.278839732126984
O	-4.6867723323015875	-2.8701939960698413	10.888672512126984
O	-0.9739089533015872	-2.1096594960698414	11.412294812126985
O	0.09783605769841275	-4.0432834060698415	8.302300172126985
O	-2.024069085301587	-7.086490626069842	9.176304972126985
O	2.1289386876984127	-9.90474133606984	8.855925232126985
O	16.923269287698414	0.44935129993015843	1.3655666521269842
O	3.6132688276984126	2.558478333930158	9.168077542126985
O	5.440689317698412	4.2165559439301585	6.255827382126984
O	5.294027737698412	7.611861853930159	7.976673092126985
O	1.6649914776984127	7.187702733930158	8.847047422126984
O	1.1703510276984128	6.0730976739301585	5.3415864021269845
O	2.720677117698413	9.106234903930158	3.7569944121269847
O	0.5292748276984127	11.17187005393016	6.046085032126984
O	-2.5760667023015875	9.403912513930159	4.707292062126984
O	-1.4424805543015873	9.63043329393016	1.1184668121269843
O	-0.7112284283015873	13.266463463930158	1.4696484221269843
O	-5.968739122301588	11.591438563930158	-5.244364087873016
O	-3.208441272301587	9.006166833930159	-5.701109157873016
