28

O	31.45941219955503	-0.38568727509664824	25.1148023892604
O	30.100026233104554	-0.07639897500907733	25.241753795647856
O	29.752256534843244	0.5469481083858736	26.378815841778202
O	30.413714320567912	0.3017640112933042	27.495991665341307
O	31.77034177736767	-0.02312451006855004	27.401388070263767
O	32.34969293333238	-0.013268563229349162	26.18026994941285
O	29.955132747118295	-0.2801960223393616	28.68120678890714
O	28.555216695405466	-0.6174266053048773	28.720100772763075
O	32.831540749018075	-1.740675108222121	28.784689776218745
O	28.36641641640053	-1.456906739841752	27.569098591597236
O	26.99690993435999	-1.7712783330891768	27.54023403394346
O	26.20211137245851	-0.7086174346756516	27.812197847904564
O	26.53917839883765	0.44298622128653775	28.52453732517503
O	27.895497209959313	0.6139079240918764	28.661006067410767
O	33.72633387265789	-0.613219526047521	28.904606667032073
O	34.94109946818512	-0.957055350831956	28.662881681700295
O	35.96167346082627	-0.1630325612315987	29.113421135545963
O	35.62926695648986	1.1438847460560906	29.300442837309813
O	34.37775636362778	1.6180877974647023	29.077682421671817
O	33.35465822085529	0.7295560804532873	28.962776695156272
O	33.62001703912561	-0.6601916019222144	25.897798652677654
O	31.057438532209957	-0.28579613564480055	29.29706914568584
O	31.777697747335047	-0.9392491960978645	28.34467915919702
O	28.41886966162629	1.4854723921371713	29.631196728121658
O	24.873019885457403	-0.9190190789036657	27.995671666289336
O	34.52370588977811	0.3056611341048999	26.1115008185853
O	33.90125428415157	-0.8135534911620287	24.55896386019298
O	33.51516699755083	-1.9537873938348738	26.215883031727202
