88

O	-1.6879978422121216	-1.2085700119393938	1.7020478199242426
O	-0.6440652932121216	0.08117863806060605	4.793082859924243
O	0.21818384878787833	-3.8150246519393938	2.5482133199242427
O	1.1608012287878782	-2.928992321939394	3.1516312499242427
O	2.443426948787878	-2.623743601939394	2.8761606999242426
O	2.6118691787878783	-1.272755101939394	2.9672530799242427
O	1.496237468787878	-0.5651486119393939	3.3016432999242427
O	1.1198497887878784	0.423463474060606	2.4186795399242427
O	-0.0531651912121216	1.053807034060606	2.6907898399242427
O	-0.5761724422121217	1.463634211060606	1.5641724499242426
O	-2.0904180612121217	1.6849266280606061	1.5153228399242427
O	0.08731525078787838	1.105551122060606	0.5053054579242425
O	-0.3299013152121216	-0.214614698939394	-0.09378076827575745
O	-0.43419099421212165	-1.4010467719393938	0.5405394339242425
O	0.7299233287878782	-2.084097221939394	0.3749092609242426
O	1.9263796787878782	-1.586230301939394	-0.15981704657575743
O	3.2400010987878787	-1.4220606219393939	0.034596221924242554
O	1.5077572087878783	-1.1375166619393942	-1.4118980600757574
O	0.6923989187878784	-0.11961415493939398	-1.0856685870757574
O	1.7045487287878784	1.019688485060606	1.1363926999242426
O	0.6942957587878783	-0.974807701939394	4.309821389924243
O	0.37901987878787835	-2.2313211119393936	3.970516999924243
O	11.57419416878788	7.995059198060606	-1.2875952600757574
O	8.799267688787879	9.092157388060606	1.0214358799242427
O	-1.0441328432121217	9.521494738060605	4.570870009924243
O	-1.0666563012121215	6.222435948060606	6.498974909924242
O	1.9547317487878781	7.338664048060606	8.501584899924243
O	3.6611548987878786	8.320943208060607	5.241446669924243
O	2.7991603287878783	4.973215678060606	3.6827433999242425
O	3.4912187887878785	2.9480495580606063	6.796222469924243
O	6.905503558787879	4.561467418060606	7.204065429924243
O	7.737369358787878	3.885528608060606	3.5617601399242425
O	6.618925298787878	0.234912462060606	3.795901249924243
O	8.85893697878788	-0.27226907693939395	6.970843759924243
O	11.97899506878788	0.9384881950606061	5.191058209924242
O	11.26051606878788	-1.322235941939394	2.2016923699242428
O	11.228415668787878	-4.297530631939394	4.489102689924243
O	13.355976668787878	-6.852372191939394	0.9481654799242426
O	4.956007938787878	-13.247338391939394	1.3829346499242425
O	6.207124668787878	-9.776488391939393	2.4395149199242425
O	2.9179207687878783	-7.964549661939394	1.6292947299242426
O	2.452767808787878	-9.762251791939395	-1.7741460300757574
O	6.094438468787878	-8.695563851939394	-2.4836847400757573
O	5.516071278787878	-5.044268741939394	-1.5132045000757575
O	2.365477458787878	-5.099543721939394	-3.699320250075757
O	3.8044399987878785	-6.588332451939395	-6.816158560075757
O	6.572862308787879	-3.9931678919393936	-6.553755280075757
O	4.051799768787879	-1.1066762919393938	-6.157234990075757
O	2.0755985787878783	-2.360464891939394	-9.253504920075757
O	2.904807848787878	2.235100368060606	-11.218086770075757
O	-0.0580839092121217	4.341980348060606	-7.709830220075758
O	3.6551215387878786	5.258449708060605	-7.530849700075757
O	4.350957088787879	4.530213218060606	-3.8544089500757575
O	7.532169888787878	6.497373598060606	-4.227551380075758
O	7.757347798787879	11.761982008060606	-4.724112240075757
O	4.475412308787878	10.100103508060606	-3.7813003800757574
O	2.1592456687878783	9.412865608060606	-6.680933920075757
O	-1.3945623632121218	8.815448368060606	-5.502893300075757
O	-7.110147411212122	6.864461288060606	-1.1941110800757573
O	-8.834350521212121	9.858400988060605	2.6589278999242425
O	-8.433383291212122	6.746536628060606	4.815714199924242
O	-11.334655531212121	4.5164010280606055	5.812741419924243
O	-11.60069803121212	1.438424032060606	3.584360179924243
O	-8.443283801212122	2.167025538060606	1.5994968499242426
O	-9.845029571212121	3.099595998060606	-1.8544283700757573
O	-10.906443231212121	-0.538377291939394	-2.0604663200757574
O	-7.265559401212122	-1.6604538219393938	-1.8711221900757573
O	-6.242877451212122	1.129677118060606	-4.212885490075758
O	-8.868273871212121	0.05650359806060601	-6.756251370075757
O	-7.520600321212122	-3.5108412419393935	-6.776920530075757
O	-3.896175011212122	-2.424368591939394	-7.081221830075758
O	-4.657879771212121	0.03505413106060601	-9.898882520075757
O	-6.545316861212122	-2.6605409519393937	-11.775493470075757
O	-1.2810292392121216	-2.354366341939394	-12.730462770075757
O	-3.634130931212122	-1.9482321719393938	-15.666266970075757
O	-5.021265351212122	-8.001996121939394	-2.3007880700757575
O	-2.502149641212122	-9.061022941939394	0.26741810492424256
O	-5.161345211212121	-10.863029691939394	2.3388945599242428
O	-7.448489931212122	-7.932595701939395	2.0742844499242428
O	-4.514799941212122	-5.6461694919393945	2.8847054799242424
O	-3.8346416112121218	-7.557087661939395	6.1004919099242425
O	-7.429746381212122	-7.325182451939394	7.002008519924242
O	-7.3616512412121216	-3.542381511939394	6.521719039924243
O	-4.1472606912121215	-3.1122204419393937	8.369974769924243
O	-5.385188221212122	-5.187236411939394	11.264804729924242
O	-5.326243611212122	0.722758891060606	12.354754529924243
O	-2.3430420812121215	2.639100278060606	13.766436929924243
O	0.38515609878787826	1.449284070060606	11.403526929924242
