83

O	0.6634680968573015	-2.019146278228572	0.970077779774603
O	0.3489329768573015	-2.1537825282285716	2.4429838097746033
O	-0.9648999221426985	-2.093181478228572	2.800927429774603
O	-1.2722705321426986	-2.269871098228572	4.123941809774603
O	-1.6715502361426986	-1.8096830382285718	1.698558879774603
O	-1.0473080935426986	-1.512275618228572	0.4124679117746031
O	0.1705223068573014	-0.705554458228572	0.801225149774603
O	0.9347681868573017	-0.14356687322857198	-0.35405293912539687
O	2.1675447868573015	0.6355507721714281	0.3240302687746031
O	2.8411663868573016	0.14112095977142802	1.508705269774603
O	0.24950713685730141	0.754404870771428	1.5539714397746032
O	0.11460996685730152	1.166748552771428	2.964843799774603
O	-1.2550281791426985	1.232580276771428	3.2054869697746033
O	-2.0038815091426985	1.4024735357714282	2.077998999774603
O	-1.5475374381426985	1.0879099577714282	0.689033311774603
O	-0.2880600001426985	1.702193933771428	0.7608303197746031
O	0.12182207685730151	0.883279119771428	-0.6145349402253969
O	0.9577599768573015	2.0635481417714283	-0.8734404492253969
O	0.2885796368573015	3.4517582817714283	-0.8015582212253969
O	-1.5837518471426986	0.771447862471428	4.4807151497746025
O	-7.871427623142699	-4.3039744882285715	-10.336105850225396
O	-9.326019333142698	-2.1343015282285718	-7.618771520225397
O	-12.809741123142699	5.082788891771428	1.2165224597746032
O	-9.287395683142698	5.164895961771428	-0.20548184772539688
O	-8.019389333142698	3.0148089517714283	2.6870965597746035
O	-10.8005630931427	0.519763760771428	2.1751536597746033
O	-10.024869573142698	0.512399135771428	-1.561641900225397
O	-6.274010653142699	-0.013147328228571897	-0.868116690225397
O	-6.883569583142698	-2.470565938228572	1.9653098497746029
O	-9.160561573142699	-4.581496178228572	-0.14557116222539687
O	-6.656729093142698	-4.559948128228572	-3.0191638402253966
O	-3.8323705431426984	-5.670208678228572	-0.7626497082253969
O	-5.797259673142698	-8.507231538228572	0.7609800097746031
O	-6.506645153142698	-9.964682558228573	-2.685951440225397
O	-2.8397392931426984	-9.706027458228572	-3.6735381502253968
O	-1.9032240161426985	-11.759530258228573	-0.662182766225397
O	-3.5110907631426986	-14.904994558228571	-2.066758750225397
O	1.5939009668573014	-13.813150158228572	-3.3686153302253965
O	8.269397416857302	-10.171352358228571	3.9337584097746032
O	4.688134356857302	-9.756957458228571	2.6446182697746035
O	4.701237296857301	-5.9721414182285715	2.966269199774603
O	8.133567486857302	-5.512112828228572	1.344870179774603
O	6.848618026857301	-7.769941718228571	-1.490172750225397
O	3.640849696857302	-5.714793198228572	-2.0023304402253967
O	5.6712845768573015	-2.544070638228572	-1.9393982002253969
O	8.376449626857301	-3.6135343882285715	-4.3823309502253975
O	5.590713716857302	-4.674941698228571	-6.710769860225398
O	3.8469924668573015	-1.268631078228572	-6.381090750225397
O	7.133995716857301	0.5539787797714281	-7.127948020225397
O	4.6569301468573014	2.698317021771428	-11.031087050225397
O	1.7555741868573014	5.250622931771428	-7.789575300225398
O	-0.0392282731426985	2.555160261771428	-9.770050660225396
O	-1.8402160491426987	0.633254653171428	-7.012302790225397
O	-3.9281970131426984	-0.892952188228572	-9.816214380225396
O	-7.681644203142699	1.627590285771428	-12.546930650225397
O	-6.149622573142699	3.2713257117714285	-9.498594310225396
O	-3.2949549231426984	5.634559781771428	-10.246054220225396
O	-2.2062285231426984	10.305414091771429	-0.3217018275253969
O	-5.3249839631426985	9.688768281771429	4.900407129774603
O	0.2169647968573014	10.081241101771429	7.795501199774603
O	0.05024531685730138	8.442465511771427	4.418489049774603
O	1.7280140368573016	10.958843841771428	2.110912029774603
O	4.917441426857302	10.185793721771429	4.035503029774603
O	4.766495826857302	6.587674701771428	2.828369759774603
O	3.7592748068573014	7.783220991771429	-0.6603566862253969
O	6.7466645668573015	10.033026861771429	-0.788822961225397
O	9.098751776857302	7.136221891771428	0.0067188017746031
O	7.476659326857302	4.785012501771428	-2.5008516202253968
O	7.541703966857302	7.412303391771428	-5.276580190225397
O	10.1466771768573	4.2287514017714285	-8.135032380225397
O	9.230949476857301	1.623901312771428	4.030830779774603
O	7.743109786857302	-1.6895119082285721	5.108867649774603
O	8.543566786857301	-0.993541418228572	8.742596849774603
O	7.208153146857301	2.502621731771428	8.537165149774603
O	4.2415963468573015	1.0669173577714282	6.731957149774603
O	3.476204496857301	-1.456402468228572	9.496199559774604
O	3.7536934768573014	1.370216580771428	11.997589749774603
O	1.1487846368573016	3.3546526617714276	10.017374449774604
O	-1.1140234391526984	0.38024155877142807	9.479880509774604
O	-0.9754785001426985	-0.44818815822857183	13.157590849774603
O	-6.093045403142699	2.1513988917714277	11.482426249774603
O	-9.130024803142698	0.20822691077142808	10.251543849774604
O	-7.420343093142699	-1.938049708228572	7.578242559774603
