31

O	30.402177634906625	-1.5827122474954503	30.56460370903739
O	30.857246270934986	-1.6119906920522933	29.184916643983325
O	32.159526472581504	-1.7597106370589395	28.776655495817295
O	33.25070154538173	-2.479859929041953	28.47340855581665
O	34.54339979595909	-2.0211638097912905	28.24817479017944
O	34.53121135036601	-0.664070745765516	27.889183565764483
O	33.383152678801046	0.06337960113933294	28.004712135392253
O	32.42137683727807	0.46258314428798863	26.99947426870546
O	32.99902324898762	0.06405196839575733	25.794276897322096
O	32.47457173173919	0.6610589252232096	24.742389713988135
O	33.336985290097324	1.0463944049826956	23.770624617487076
O	34.40068167925302	0.1756184408730429	23.503622162260818
O	34.92136344642988	-0.2947838568950646	24.68710385711355
O	33.99985809688342	-0.8031113617580269	25.629391459429847
O	32.556571981278715	-0.4481303377713032	28.923122602140413
O	30.295484286006403	-0.6784808999438624	28.1846086667962
O	30.75749584239342	-1.2788375209311305	26.87866701376671
O	31.1608615727176	-2.533999565339518	26.777759669991482
O	31.739191857562837	-2.941355066284231	25.56343426237003
O	31.418899860802654	-2.418905166637903	24.347179598832106
O	32.31351464863953	-2.233617990267513	23.280799211310658
O	30.33110024134104	-1.642002218441676	24.532059090150312
O	30.059590193647537	-0.9389933447419861	25.72040787685265
O	28.92429567800536	-1.154127824159369	28.154186674214767
O	28.805196304365733	-2.505499410262842	28.044125597559088
O	28.346818230813874	-3.1002411028045125	26.85274929092388
O	27.44820339311447	-2.4314549575431004	26.144962153154975
O	26.108570371240354	-2.629559451776934	25.98197303411209
O	27.616944166198603	-1.144106976617186	26.16214928870844
O	28.272890478312576	-0.46025250404823526	27.20350380494525
O	34.56776475468176	-0.3856363772709709	22.259309478880503
