87

O	0.19429636142380913	-0.4610334030571426	1.8642761118398417
O	-1.9638011295761908	3.5600309169428574	1.2553033418398418
O	0.283245121423809	0.9925204404428574	2.554148691839842
O	0.46726649142380916	4.627757416942858	-0.7578673301601582
O	1.521004501423809	0.7003277009428573	1.526315211839842
O	1.0487907414238091	1.3326881409428573	0.41688153283984186
O	1.686887411423809	-0.18160698305714273	0.08915728083984187
O	0.5712262214238091	-0.7164227130571428	1.0432610118398418
O	-0.21702621957619095	-1.3438164830571426	0.04287512783984182
O	-0.8721734195761909	-0.12151156305714261	0.9490657318398419
O	-0.26741027357619096	1.1610171749428573	0.3848465258398418
O	-0.047043907576190924	0.28510303194285735	-0.9493393171601582
O	-1.338311006576191	0.33611945494285733	-1.2141421451601582
O	0.8496337114238091	0.7681565199428573	-1.8602351981601581
O	0.2444535514238091	1.6578201739428573	-2.6563437581601583
O	0.37368861142380916	3.1378957769428575	-2.7530947881601584
O	0.992890711423809	3.8083539269428575	-1.7785858881601582
O	2.032256431423809	2.9675201369428574	-1.5374677181601581
O	1.950362231423809	1.5034640709428573	-1.6309221681601582
O	-2.386199678576191	0.2722585249428573	-0.3659164321601582
O	-3.063963658576191	1.4085830429428574	0.30501500583984187
O	-2.466804778576191	2.6964191269428572	0.27345926383984187
O	-2.216809848576191	2.8535452869428575	-1.0856574011601583
O	-1.528615974576191	1.6679267319428575	-1.5714838381601581
O	-0.6091900825761909	-9.721152193057142	-9.570183088160158
O	-3.1386151185761912	-6.924937493057143	-9.712895098160159
O	-10.91335999857619	2.0996604069428573	-8.934322198160158
O	-9.38509212857619	0.4969449929428573	-5.868771348160158
O	-6.824356898576191	3.3183756669428575	-5.638790048160158
O	-5.910462838576191	2.9328933569428575	-9.241025768160158
O	-5.616278558576191	-0.8275535130571428	-8.695646768160158
O	-3.3539350785761908	-0.31337121305714266	-5.624062948160158
O	-1.411513784576191	2.515815096942857	-7.268829488160158
O	-0.703266305576191	0.5037789849428573	-10.353521648160157
O	0.3946558714238091	-2.462996383057143	-8.202028718160157
O	2.8026469014238087	-0.4425425730571426	-6.240045088160159
O	4.395333631423809	1.2207856019428573	-9.298182358160158
O	5.223374181423809	-2.189733453057143	-10.684620018160158
O	6.732866251423809	-3.368958483057143	-7.405237688160158
O	9.02349728142381	-0.3981274730571427	-7.379698818160159
O	11.00733948142381	-1.7008556930571426	-10.362187008160157
O	12.427132881423809	-3.297546983057143	-5.433946328160158
O	12.63111768142381	3.6696350569428575	2.4551602418398417
O	10.45573058142381	2.567683226942857	-0.5167707187601582
O	7.20377935142381	2.787358166942857	1.3705622018398418
O	8.484085021423809	1.0836321505428574	4.513146631839842
O	9.78113878142381	-1.6974291730571425	2.1430263418398416
O	6.459765381423809	-2.0705677030571428	0.27546903083984187
O	4.70577366142381	-2.1617829330571428	3.649127141839842
O	6.83326045142381	-4.761632853057143	5.358234821839842
O	6.30153972142381	-6.878986913057143	2.231562501839842
O	2.4956103014238087	-6.408766403057142	2.3219380418398416
O	2.4089407614238088	-7.349774613057143	6.069045771839842
O	-0.8141414165761909	-11.039411093057142	4.707718051839842
O	-4.262881318576191	-7.530933473057143	3.505446761839842
O	-2.847398538576191	-9.476803693057143	0.5817683518398418
O	-1.9108718205761908	-6.636412153057143	-1.7917366381601583
O	-1.6824538435761909	-9.393501193057142	-4.458343768160159
O	-5.790633318576191	-11.880577493057142	-6.632265438160158
O	-6.383642488576191	-8.890699363057143	-4.380360318160158
O	-7.119195898576191	-9.770558193057143	-0.7907022671601582
O	-10.666074728576191	0.009223636942857327	2.9424670918398417
O	-11.37227611857619	5.439205016942857	0.08310477683984185
O	-8.885550998576191	7.983643236942857	5.242034821839842
O	-7.547541948576191	4.583375646942857	4.136812701839842
O	-9.098482378576191	2.2605886869428575	6.7651833018398415
O	-6.84187763857619	3.9863412269428573	9.297091051839843
O	-3.7998678685761913	2.8049747169428576	7.403497371839842
O	-5.423034608576191	-0.6672649130571426	6.933130511839842
O	-5.960845258576191	-0.9318046530571427	10.598682881839842
O	-2.276884878576191	-0.2634515030571427	11.331958281839842
O	-1.033110606476191	-2.6890856530571425	8.664503771839842
O	-3.4016517385761906	-5.451845863057143	9.763336481839842
O	0.542859151423809	-8.475543463057143	10.408797881839842
O	16.702571581423808	-0.13528743305714275	3.1836156518398417
O	2.7638797614238086	3.7818541369428575	9.005886221839841
O	4.977958381423809	4.882013116942858	6.1056994618398415
O	4.878711201423809	8.517277336942858	7.305671341839842
O	1.1603082514238092	8.372756676942856	7.769714241839841
O	0.944000581423809	6.694104516942858	4.3904821618398415
O	2.852885891423809	9.445947946942857	2.6296270118398417
O	0.5810668814238091	11.924490806942858	4.330803651839842
O	-2.475878588576191	10.130628406942858	2.948121191839842
O	-0.967311351376191	9.715821746942858	-0.4931405344701582
O	-0.04148767557619093	13.348882206942857	-0.6112002921601581
O	-4.662549738576191	10.942404916942857	-7.5554982081601585
O	-2.040114298576191	8.189799486942857	-7.278415148160158
