94

O	1.6606963557074632	-1.1840344991940297	3.0211560031822384
O	0.8353637557074631	-1.13909468919403	3.947154203182238
O	1.6111449457074631	-2.02788442919403	1.8453300931822385
O	1.7717824857074633	3.7820051408059703	-4.074375296817761
O	1.7344843157074632	-3.16956740919403	2.7258999231822383
O	2.361864175707463	-2.1438354391940297	0.6368000251822383
O	2.613963725707463	-0.9387574091940296	-0.2565175649177616
O	1.4973799157074632	-0.11279827919402985	-0.27039564431776164
O	1.588067875707463	0.9647300408059702	-1.2402190678177616
O	2.799887535707463	1.2352132398059703	-1.8114879268177617
O	2.970021295707463	2.38923851080597	-2.5192343668177615
O	1.779065845707463	2.98953804080597	-2.9498364868177616
O	0.8784055557074633	3.07466218080597	-1.8813191868177617
O	0.8786638257074633	2.08672049080597	-0.8950213808177616
O	-0.0780256252925369	1.9494455368059702	0.16638404318223837
O	-0.2762987473925369	0.8423845108059702	1.0005442531822384
O	0.4344175427074631	-0.3275883991940298	0.5529195241822384
O	0.4353793847074631	-1.2352035091940299	1.6717297531822384
O	0.651041084707463	0.17942323880597022	2.5223828731822384
O	1.9330063257074632	-0.08285575919402977	1.8573732431822383
O	2.419996705707463	1.0671320825059702	1.8248649131822385
O	3.812456235707463	1.1828621686059702	1.8949811031822383
O	4.654275495707464	0.12512769780597022	1.5960259731822384
O	4.855500615707463	-1.0202248891940298	2.420006993182238
O	4.661008285707464	-0.8847773591940298	3.7576826131822387
O	4.317351315707463	0.3416200138059702	4.2109608831822385
O	4.141085595707463	1.3512802308059702	3.2486101031822385
O	7.995786365707464	2.39150556080597	-12.025877606817762
O	6.101626415707464	-8.60268238919403	-3.6209592968177615
O	6.686775405707463	-6.80351449919403	-0.3079835820077616
O	10.227524205707462	-5.98906555919403	-1.3681031368177616
O	8.859341675707462	-4.73385680919403	-4.692575846817761
O	6.169390815707463	-2.6504424091940297	-2.9220277868177615
O	8.509679765707462	-1.5131308091940299	-0.14983442181776163
O	11.118601205707462	-0.3600271091940297	-2.6230367668177617
O	8.471882315707463	1.51080073080597	-4.624092526817761
O	7.102472385707463	3.21618816080597	-1.4822605868177616
O	10.576416705707462	4.35009122080597	-0.4059351348177616
O	11.293993805707462	6.05508697080597	-3.7445241068177615
O	7.948911685707464	7.85717551080597	-3.6749827168177616
O	8.819049345707462	9.309690590805971	-0.3136156676877616
O	6.501602005707463	13.38802916080597	-1.6361336668177617
O	0.4701979797074631	11.74685376080597	6.878495123182239
O	2.950539515707463	9.96044130080597	4.574479053182238
O	1.0791043857074631	6.560676400805971	4.3865299231822386
O	-2.291273754292537	8.27900274080597	3.899961183182238
O	-0.7016625342925369	10.38357242080597	1.1084105431822384
O	0.7808253857074632	7.28336334080597	-0.5686609168177617
O	-2.591420094292537	5.57916229080597	-0.3236864629677616
O	-4.772911074292536	8.35132617080597	-1.6913911868177618
O	-2.333733574292537	8.45670062080597	-4.632215676817761
O	-2.590310254292537	4.65911744080597	-5.211534216817761
O	-6.426795234292537	4.822568770805971	-5.134978286817761
O	-4.504730494292537	-1.6270939791940298	-7.7422070768177615
O	-2.055565764292537	0.2558892608059702	-9.980147026817761
O	1.0113583557074632	0.39581879180597024	-7.743946706817761
O	3.016915175707463	1.3152043368059703	-10.825076406817761
O	4.267620845707463	-2.04353757919403	-14.682390606817762
O	2.721550835707463	-3.38605071919403	-11.501034806817762
O	-1.030548398292537	-3.8346744891940294	-11.595471806817761
O	-2.213021644292537	-6.14876921919403	-8.821106226817761
O	-2.421714214292537	-9.610811739194029	-2.2430649368177615
O	0.4788730137074631	-13.75299013919403	-1.2431549058177616
O	1.5034052257074633	-11.88455063919403	1.8901645331822383
O	0.047250944707463105	-12.61916543919403	5.324208123182239
O	-2.731542744292537	-10.164575939194028	6.219508783182238
O	-2.303660974292537	-7.95677950919403	3.126163283182238
O	-5.493828724292537	-8.76685673919403	1.1720384831822384
O	-7.314353954292536	-7.003758559194029	3.993355203182238
O	-5.517940704292537	-3.77476274919403	3.1198074731822385
O	-6.033038754292536	-4.467630169194029	-0.6251092668177616
O	-9.694658474292538	-4.89875942919403	-0.05854328881776161
O	-9.940161824292538	-1.5058063191940296	1.6524127031822382
O	-7.920389754292537	0.2787857808059703	-0.9992553238177617
O	-9.890010114292538	-1.2891451891940298	-3.8567181268177615
O	-13.136168794292537	-0.3009504891940298	-2.1936902068177617
O	-11.942689994292538	3.28166305080597	-1.8369503368177618
O	-11.003770394292538	3.31535845080597	-5.4953465268177615
O	-14.486783194292537	2.0651612768059704	-6.289488296817761
O	-4.411547104292537	15.285585360805971	4.448282253182239
O	-8.045448794292538	6.79780798080597	4.327850223182239
O	-6.418676614292536	2.25413492080597	6.034387343182239
O	-3.210216254292537	4.03865793080597	6.9188540731822386
O	-3.552208744292537	3.0492301008059703	10.58271709318224
O	-4.327383544292537	-0.4925027491940297	9.69184829318224
O	-1.4342684542925368	-0.2998857991940298	7.198544233182239
O	0.9707143857074632	0.7675986138059703	9.908144493182238
O	-0.22907090669253688	-2.03079150919403	12.080722493182238
O	0.49718315870746316	-4.53844700919403	9.312320373182239
O	3.844972535707463	-2.9712691191940297	8.401613963182239
O	4.827085465707463	-3.16991436919403	12.13548369318224
O	7.428257225707464	-7.365598329194029	8.71782388318224
O	10.714213405707463	-6.98664088919403	6.814299083182239
O	9.978383905707462	-3.71781062919403	4.968685573182238
