36

O	35.202802770509635	1.099885978642295	28.08269981196334
O	31.5571850422272	0.22090770213655397	27.448269356660532
O	32.654717212586064	0.43583445424639716	25.36079310650272
O	33.21438181295617	-2.248826342733458	24.21033430917897
O	32.78772546741175	0.13524416484284013	26.666411155747504
O	27.654911984937872	-2.112022040495856	26.769762531917735
O	33.17582109722931	-1.3604166959663344	26.039996249725224
O	33.724827304297406	-2.71816152105033	28.35271770971351
O	32.5328659697628	-1.6400832100427223	24.818626652681175
O	34.536806884662745	-3.397431518732759	25.092996102894094
O	31.077301898139016	-0.5306635127537221	26.521631708988778
O	31.602485803537665	-0.47124414784608215	25.121657192730993
O	30.380934494096696	0.39393776745346065	28.31591468659941
O	34.8493962069004	-1.0782689708586712	23.96986487075456
O	30.752085486850923	-1.8831294214018843	26.914132557347028
O	33.83494256190416	-3.1015357148133216	22.89043486447371
O	29.69885956411603	-0.5138529313453615	29.130506730520462
O	28.447917067189234	-1.0495071488818235	28.84591658794751
O	27.9331945790079	-1.0363275369932994	27.534431070279112
O	28.53600763793704	-0.09588032869430793	26.811126269485854
O	29.208910342372622	0.840398330681014	27.648149416088646
O	31.08067626701497	-2.9965746588166287	26.099908265644654
O	32.15126211367473	-3.811606269712156	26.582707890223595
O	32.772658257140364	-3.287354721563728	27.652434567142524
O	33.68027080160791	-1.6878576005048014	29.249587965399936
O	31.811366157027862	-3.057602867326007	28.529516916281324
O	30.56895618162185	-2.609447247131122	28.060178166425512
O	32.61362941654468	-1.3409547796520822	30.14874978122066
O	32.886539289832704	0.13597401585216373	30.47955387225619
O	31.848802760898472	0.7454917162979212	31.348200306580498
O	35.0403035209984	-2.5829283436571764	25.969451651815
O	35.28433035440681	-1.1823249441316557	26.148187073919118
O	35.55253147962503	-0.45661452975216077	27.31615889244148
O	36.50151875493458	-0.9921316742508671	28.093155066949944
O	36.64356650827148	-2.3127899547752238	27.894798345839394
O	36.153200151743874	-3.012158645142993	26.750431605010874
