95

O	1.2222400736507937	4.173395413507936	0.9037847085714292
O	2.0578959636507936	4.891870903507936	1.7029703285714295
O	-2.986959156349206	1.6904529965079358	-0.3020358114285706
O	2.0545828936507937	3.336318083507936	0.28933469857142935
O	-0.8447428833492063	5.319443783507936	-4.0713564914285705
O	1.8108255936507938	1.9354295832079358	0.23967046857142926
O	-1.2988162511492063	-0.7495293164920642	-1.9682565304285706
O	0.4742482536507937	1.4952504605079358	0.28394951857142936
O	-3.3551460663492065	2.343838721507936	-1.3059150474285708
O	-0.06451434634920639	2.1432239825079358	1.3446086085714295
O	-4.014555106349206	-0.2773882764920643	-1.5648656524285707
O	0.07589457365079366	3.5388919735079356	1.2684998385714292
O	-4.052661906349206	1.0493259045079357	0.6316618885714294
O	0.19139095365079362	0.5211928935079357	-0.6982780914285707
O	-0.05916181634920625	0.9865069695079357	-1.9233971904285707
O	-1.4967671333492063	0.5716606935079356	-2.0148296984285707
O	0.17550972365079365	2.393938017507936	-1.9863866914285708
O	-0.6018056393492063	3.2269046335079357	-1.2407172924285708
O	-0.8516719353492063	4.496230893507936	-1.7230694174285708
O	-0.26408022634920636	4.8389442035079355	-2.8898196614285707
O	0.9633735636507939	4.292011803507935	-2.9202625114285707
O	1.2457241436507935	3.1099326435079355	-2.1942593604285707
O	-0.7368541143492063	-0.6523725664920643	-0.6566336234285707
O	-1.9577573283492062	-0.06079605649206421	-0.09147356142857066
O	-1.8027555723492064	1.2247698635079356	-0.6174860764285707
O	-3.0730901863492064	2.0941073215079355	-2.5937407314285705
O	-2.5643247563492064	2.8179444145079358	-3.5717338314285705
O	-1.8634557663492064	2.1380781555079356	-4.561736981428571
O	-2.3261503943492063	0.8530188135079357	-4.836316041428571
O	-3.6156369663492063	0.5117423435079358	-4.381744561428571
O	-3.958868476349206	1.1864520165079355	-3.2076088014285706
O	-0.6282002673492063	2.461242279507936	-4.979708151428571
O	-1.7099929313492064	9.641109203507936	8.791986948571429
O	-8.926202586349206	3.415975283507936	4.589455668571429
O	-8.101907816349206	3.9830128935079356	0.9080686985714295
O	-8.476853816349207	7.703620673507936	1.3196288385714292
O	-6.248402436349206	7.487458463507936	4.40429566857143
O	-3.6568278163492063	5.475835073507936	2.532444588571429
O	-4.0718104763492065	7.566098233507936	-0.5901033554285707
O	-3.472033976349206	10.739135453507934	1.1842379985714293
O	-0.48865290834920627	9.418191063507935	2.99041055857143
O	1.0692316836507936	8.194729423507935	-0.36213870142857063
O	0.7146718836507939	11.574879163507935	-1.9200792524285708
O	2.5247048136507937	13.387549123507934	0.8353376485714292
O	5.410371283650793	10.895798343507934	0.7652089185714293
O	5.991271193650794	11.668319963507935	-2.8753599114285704
O	10.289780863650794	3.3294186335079354	-9.45769629142857
O	8.124758273650793	5.491850133507936	-7.13977019142857
O	5.823999403650793	2.571892315507936	-6.10566382142857
O	8.636077163650793	0.14585705350793576	-5.469582491428571
O	10.305495363650794	2.9284229435079356	-3.3859605114285705
O	7.302725473650794	3.549650583507936	-1.2968544304285707
O	6.845029013650793	-0.22164971649206433	-0.7979730594285708
O	10.363258063650793	-0.9763206064920642	0.2443898885714293
O	6.817031073650794	0.36637761350793574	4.214015628571429
O	8.337143953650793	-3.118653166492064	4.48943460857143
O	2.1716409436507935	-3.096861226492064	8.167562638571429
O	3.3046535436507933	0.18595822350793578	9.69356084857143
O	1.9402805736507935	2.6213036695079355	7.254639908571429
O	2.4525129336507936	5.404714963507936	9.72099544857143
O	-0.48322556934920624	6.0853806635079355	14.020824648571429
O	-1.5977059583492064	3.5951240135079354	11.39305074857143
O	-0.5330653203492063	0.013963023507935768	12.04108694857143
O	-2.606776496349206	-2.397003826492064	9.97261894857143
O	-6.761446756349207	-5.118323916492064	4.466149808571429
O	-11.820978336349206	-4.069293026492064	4.012607808571429
O	-10.939965786349207	-3.0106485864920645	0.45797367857142923
O	-11.593612136349206	-5.230475226492064	-2.550100111428571
O	-8.452687996349207	-7.089466636492063	-3.6433791514285705
O	-6.1611557463492055	-5.421886416492064	-1.1349460204285706
O	-5.349780896349206	-8.248699076492064	1.2918390285714294
O	-3.501932516349206	-9.850684476492065	-1.6211166954285707
O	-1.0878833553492062	-6.976953746492064	-1.7240021264285708
O	-0.9268771633492063	-6.8757139664920635	2.111125198571429
O	-0.008710586349206295	-10.544927576492064	2.139582138571429
O	2.9224912336507933	-9.927021776492065	-0.23544839142857077
O	4.144033563650794	-6.833574206492064	1.6632338185714295
O	3.9365960436507934	-8.638397876492064	5.01351089857143
O	5.821828293650794	-11.612286276492066	3.6191416085714296
O	8.555003233650794	-9.330157076492066	2.321730978571429
O	8.795940963650793	-7.762866226492064	5.74816005857143
O	9.137258063650794	-11.253173776492066	7.214354148571429
O	4.2583440036507945	-6.084753416492064	-5.7022776014285705
O	4.573859033650793	-2.729334356492064	-7.38731399142857
O	3.240500843650794	-4.131990616492064	-10.67420590142857
O	0.4222710236507936	-5.865061086492064	-8.92296987142857
O	-0.09969679634920636	-2.6672541664920644	-6.9253845714285704
O	-0.4126417243492063	-0.6503090464920642	-10.182839951428571
O	-2.921237766349206	-3.1243094964920637	-11.40034085142857
O	-4.986528356349206	-2.7236511964920638	-8.18355594142857
O	-4.783157186349206	0.9756667425079357	-8.204894781428571
O	-5.872670946349206	1.1438607655079358	-11.863468851428571
O	-10.178502076349206	2.715728053507936	-7.91989955142857
O	-10.758927756349207	6.235255523507936	-6.55232244142857
O	-7.240911806349207	7.0695645135079355	-5.363016151428571
