25

O	33.3118530156677	-0.9038900687680905	30.406196063866872
O	32.571344625762926	0.3969547235497838	30.26373060313419
O	32.91899790065604	1.4285481607469954	29.5267446658138
O	32.02009116250008	2.0678542032914917	28.466470608483075
O	31.2251792302027	1.0058368522454089	28.173539318673
O	30.446978202925166	0.37392573813378466	29.071557586903157
O	29.79829592706001	-0.606862973939145	28.53816445530361
O	28.331239460422644	-0.6647686122219231	28.47203343526131
O	28.10124241167036	-1.5720225520143534	27.44332396979596
O	26.73497851728198	-1.904062200895829	27.304020438938416
O	25.962979872021	-0.7845221875801501	27.41180260013803
O	24.633185633575344	-0.9393513188966821	27.73255966589734
O	26.432177655478736	0.4794455487762853	27.773865142361792
O	27.62733135471626	0.4937924904832031	28.419829248815915
O	28.27313821211505	1.5509621392293416	29.033308254837728
O	30.430082724936298	-0.7070821451537909	27.334507680319387
O	30.0796209784646	-1.1295719468554508	26.04972504560434
O	30.442900643255978	-0.12087761506330652	25.199644946391256
O	31.90335008768169	-0.383525691121834	25.181612495846917
O	32.49459852404879	-0.04578011891258271	26.439647183931818
O	33.89521252392111	-0.07758799415100393	26.75245859806034
O	31.694394834254286	-0.136219123208129	27.581813875889086
O	34.15639608916172	-1.27215402301624	27.434513677992843
O	34.42114178382707	-0.4759379464146035	25.485830585101514
O	34.67242570522109	0.9365936174631165	27.06773982619021
