89

O	0.31093297384127017	3.944226752984126	2.7206161535396824
O	-0.16115050115872998	2.8174379529841262	-0.5052585604603175
O	-3.2993925161587296	-0.783698347015874	4.550864923539683
O	0.07587679284127002	2.761077942984126	1.8347133135396825
O	-1.3467982971587298	2.371916882984126	1.6115116335396826
O	-1.68373868415873	1.957525488984126	0.1628089955396826
O	-0.8287733385587299	0.663874356984126	0.05534918853968257
O	-1.31561496615873	-0.08094282701587385	1.2035681235396827
O	-2.71189388615873	0.008774162984126033	1.3598768335396825
O	-3.0693334561587298	0.47197066298412604	2.6832785535396826
O	-2.5089507061587297	-0.5416912470158739	3.4761816535396823
O	-1.12626117315873	-0.236819337015874	3.4778667235396825
O	-0.49148355315872994	0.00619403298412613	2.3157935435396824
O	0.96106225384127	-0.15723903701587405	2.3244011635396826
O	1.4634162638412702	-0.014484037015873863	0.9190661935396826
O	0.55997445384127	0.947210013984126	0.33595510653968264
O	1.0121588238412702	1.8937585489841262	1.2954348035396825
O	2.37244475384127	2.306020181984126	0.8985515935396825
O	1.85744533384127	3.548960252984126	0.30372614653968255
O	0.43790773384127013	3.235726052984126	0.5722817815396826
O	0.46187703384127	2.9511916029841263	-1.7295048864603175
O	1.6395624338412702	2.222093452984126	-1.8776534564603176
O	2.8025709438412703	2.707740582984126	-2.4035435464603174
O	2.81387696384127	4.006798562984126	-2.9137577964603176
O	1.5065067438412703	4.431133112984126	-3.1609210164603176
O	0.6649123938412701	4.289712552984126	-2.0480616664603173
O	-13.236770036158731	-4.144092177015874	3.9589662035396826
O	-12.66346193615873	-1.7436967170158741	1.0986005635396827
O	-7.31235342615873	2.7271846929841264	-6.655860606460317
O	-5.22132597615873	5.167528392984126	-4.582024466460317
O	-8.37345333615873	6.601921072984126	-3.0789932964603177
O	-9.516151736158731	3.0497201229841258	-2.3340904364603174
O	-6.11981255615873	2.208221134984126	-0.7577797994603175
O	-5.87531590615873	5.580398762984126	0.9997433735396827
O	-9.23973672615873	5.257567812984126	2.4967369235396824
O	-8.66769449615873	1.719918342984126	3.6576594135396823
O	-5.397213806158731	2.801241902984126	5.315060513539683
O	-6.849244796158731	5.654273222984126	7.128243353539683
O	-9.50658659615873	3.414154392984126	8.765337503539683
O	-6.845260206158731	0.866612904984126	9.841018593539683
O	-4.97607139615873	3.632523192984126	11.646416693539683
O	6.23615791384127	2.8329404729841263	12.600195593539683
O	2.6726399438412702	3.113992052984126	11.281184993539682
O	3.5809241638412703	2.395726102984126	7.626170213539683
O	5.87818501384127	-0.588773057015874	8.552539763539682
O	2.98601023384127	-1.9076048870158742	10.697544493539683
O	0.48833871384127014	-1.537944767015874	7.951542653539683
O	2.8061444838412704	-3.182517007015874	5.441853803539683
O	3.7262824038412705	-6.209447607015874	7.6381523835396825
O	-0.6628250031587299	-6.614561537015874	4.3110845735396826
O	2.16415192384127	-9.124293387015875	3.6635710435396827
O	-1.7658547721587299	-8.644042927015875	-2.3353410864603177
O	-4.84944285615873	-8.989042787015872	-0.1131504654603174
O	-5.51787609615873	-5.396672647015874	0.7777159735396827
O	-8.97598201615873	-6.422408587015874	1.9312150135396826
O	-12.88648203615873	-7.701621637015873	-1.3140290474603176
O	-9.72425856615873	-6.187547607015874	-2.7513622764603176
O	-7.15960504615873	-8.686812387015873	-3.9805246164603174
O	-4.65586687615873	-7.037593937015873	-6.316560966460317
O	-0.40888226215872997	-1.8042688770158741	-9.376792666460316
O	-2.27793108615873	1.627358522984126	-12.761934806460317
O	-0.6332799991587299	4.222206762984126	-10.545454406460317
O	2.70357329384127	5.869733262984126	-11.403586606460317
O	5.59123376384127	4.251934922984126	-9.484292726460318
O	3.4617342138412703	1.8125666759841261	-7.603411846460317
O	4.2560418338412696	-1.5620475970158738	-9.035625096460317
O	7.73595454384127	-1.0794939070158738	-7.573214216460317
O	6.25057719384127	-1.079885097015874	-4.0750468264603175
O	3.90899192384127	-3.951271067015874	-5.018023716460317
O	6.863683903841269	-5.971666047015874	-6.215328036460317
O	8.64645671384127	-5.527879717015874	-2.8705090664603174
O	5.54607717384127	-6.364437497015874	-0.8290378784603174
O	4.804057373841269	-9.472761587015874	-2.9186306164603173
O	8.38650197384127	-10.658897687015873	-2.5454157864603175
O	4.98459455384127	-12.207765787015873	1.2668925735396828
O	6.78769601384127	-14.909637587015876	-0.6907340724603175
O	9.56355206384127	-0.6694085570158739	1.8134599035396826
O	8.13279671384127	1.776713587984126	4.3367951835396825
O	10.77782806384127	4.384139762984126	3.4810608635396827
O	10.309641963841269	3.885589062984126	-0.2061894284603174
O	6.61456886384127	3.975134312984126	0.4454573045396826
O	6.71431742384127	7.311545922984126	2.2217622735396825
O	8.76734135384127	8.618749582984126	-0.6590542324603175
O	6.08086069384127	7.568591552984126	-3.1402679164603176
O	3.28400171384127	8.931692972984127	-0.9336525264603174
O	5.01671228384127	12.209663212984125	-0.5968549094603174
O	0.36765514384126996	12.343549712984125	-4.424699076460317
O	-3.23983893615873	13.029607412984127	-3.3589297664603177
O	-3.53670706615873	10.535392842984127	-0.45957844846031737
