24

O	27.473791500128357	-1.069950087266136	28.745856272406286
O	28.63591533717372	-1.9186875085805735	28.957623570824314
O	29.41031327175775	-1.8823484892694284	27.914407942372385
O	27.469753930124345	0.15059427451755325	28.028361759084913
O	28.795235823854977	0.3498938599627939	27.595541118078913
O	29.54116873053653	1.600825389839093	27.94727010348821
O	30.959674759426495	1.397561940476224	27.655655360553556
O	31.246409590915622	0.07349070218695519	27.256685741998393
O	32.41652977211829	-0.3863050444961662	27.91406299993532
O	33.35791038057081	0.7323669285048383	28.0463826164882
O	34.639159687795456	-0.019489265538338407	27.98485211317423
O	34.33608089945498	-1.4268575498989375	27.45605863671031
O	32.92612929770483	-1.4817198069219195	27.073161287061982
O	32.8622710026598	-0.9726934104690941	25.637690934795025
O	32.005918856635134	-2.5991000931404336	27.186629266767934
O	30.831192008016405	-2.296890397828299	26.235618896295282
O	30.555488305942344	-0.8763677178602065	26.481367954430585
O	29.183815029029375	-0.8459209921670763	26.978858632461733
O	29.186144985638297	-1.602873816958466	30.23851629613425
O	30.39139561388917	-1.2746783479103958	30.564442825191673
O	30.90139403543181	-0.03694085770104427	30.485787860858643
O	30.55788814847894	1.215645457601655	31.12502531506566
O	26.334877209931996	-1.74609162193024	28.735118758941773
O	35.12010446407271	-1.7926200483327803	26.38318267044438
