27

O	30.402069109108023	-2.7859931203072263	28.898818360396213
O	30.900957744841186	-1.3808148152716824	29.077988629290335
O	30.563629833038647	-0.3854281538170708	28.223672805211088
O	30.831683153606082	-0.9004203594320724	26.861166240784744
O	30.06722561355133	-0.24857920378664172	25.918272011984982
O	30.557291756157813	-0.6575345993424727	24.672112159464003
O	30.849991874321383	-1.918301496154028	24.38271984202409
O	31.816113571422356	-2.0461349674684413	23.375046828977204
O	30.871841795103382	-2.684662011100323	25.43342515604551
O	30.306224603001017	-2.193916497477851	26.620311617705575
O	29.239091606192325	-0.4760951513384621	28.472812252084402
O	28.37832572770213	0.0905670283524241	27.537857059983843
O	27.85342634755441	-0.8721493659645101	26.655125212097552
O	27.277103710295027	-2.0325440288292973	27.00129242019453
O	27.254381365555314	-2.613117313887511	25.78663824989573
O	28.064303655060435	-2.4719476261533453	27.958593673253088
O	28.458358938756277	-1.548216367762324	28.953542706191303
O	32.27448569605918	-1.7699879315051255	28.962073078500993
O	32.50939102758961	-0.57190337483871	29.578851113355547
O	33.73466585074452	-0.17749211492031253	29.052929580852304
O	33.79499700516808	-0.16603626459765525	27.732778910866056
O	33.42735128970942	1.10671321476263	27.24392340208045
O	32.981591887750646	1.2735955976099407	25.95038771131729
O	33.40460460144684	0.21028315928338864	25.158722950913194
O	33.7094731371632	-1.0384431576924946	25.69719848333009
O	33.566052810925555	-1.3234708836029985	27.01716814271447
O	32.58747420775404	-2.055246461942183	27.6770517842137
