81

O	-0.1341198343593759	0.04013953981249996	-4.131105512609376
O	1.6322931856406242	-0.23520572118750005	-1.4341236426093762
O	-2.090264826359376	-0.1274707571875	2.8391816373906242
O	-1.203780673599376	-0.6259066341875001	3.805482457390624
O	-0.7181351833593759	0.34162748181249997	4.677074227390624
O	-0.34201015535937584	1.5088680588124999	4.070237427390624
O	-0.9509236503593759	1.8926799558125	2.876894747390624
O	-1.9412316023593759	1.1318894738125	2.251499737390624
O	0.24369066564062414	-0.009087793187500082	-1.8523780626093762
O	-0.7377059563593757	0.08390865581249995	-2.934831052609376
O	-1.8769817233593757	-0.6642883541875	-1.3684088326093762
O	-1.5883227513593758	-1.0143898441875001	-2.553524022609376
O	-2.943493904359376	-0.6858907441875	-0.3818131095093761
O	-3.2363991443593756	0.36459753381249993	0.3508422643906239
O	-2.039526701359376	1.1267789668125	0.7524476873906238
O	-0.7760410933593758	0.6633013001124999	0.24031932839062392
O	-0.6469842183593758	-0.1692495071875001	-0.8353463366093761
O	1.3615598856406244	7.3842650558125005	-11.855573322609375
O	0.7668424056406242	9.173480145812501	-8.587223972609376
O	1.1529647656406243	10.5318962158125	1.732550257390624
O	-1.894866858359376	8.4533139058125	2.7102863473906242
O	-4.072344304359376	10.459941945812501	0.37324627339062394
O	-1.4482807993593758	9.9691447558125	-2.343814152609376
O	-1.302599805359376	6.1672716258125	-1.6437504926093762
O	-5.062097074359376	5.865644375812501	-1.159063431609376
O	-5.767234844359376	7.6352176358125	-4.413115802609377
O	-3.2508550243593755	5.5181839358125	-6.290953102609376
O	-4.778806594359375	2.3056008358125	-4.8232162526093765
O	-8.260063424359375	3.2692662558125	-5.8359216026093765
O	-7.282262514359376	3.8269050658125	-9.489598832609376
O	-5.493269184359376	0.4624054798124999	-9.632054432609376
O	-8.665735354359375	-1.2448036141875	-8.526804592609375
O	-10.420626204359376	-0.4817119541875001	-11.799487222609375
O	-7.521063054359376	-5.0013483441875	-11.430401922609375
O	-7.886619844359376	-10.7770077841875	-2.590582472609376
O	-7.655821124359376	-7.1456553541875	-3.779259052609376
O	-5.154574664359376	-5.9990501741875	-1.139332562609376
O	-2.9176012843593755	-9.0836628941875	-1.587975162609376
O	-3.024730284359376	-8.494689364187499	-5.380077712609376
O	-2.057762237359376	-4.895760774187501	-5.0423473826093765
O	0.7468509456406243	-5.8256557141875	-2.607788742609376
O	2.266184855640624	-8.556244144187499	-4.731355952609376
O	2.320335725640624	-6.1113685141875	-7.638368642609376
O	4.142903755640624	-3.4656778641875	-5.553916672609376
O	6.722027885640624	-5.9528849841875005	-4.322503242609376
O	10.142458395640624	-2.6460500741875	-6.208468342609376
O	9.013650695640624	0.6317490939124999	-2.530401432609376
O	8.060422515640624	1.7334343158124998	-6.052820632609376
O	4.476233245640624	2.7586372958125	-5.567131852609377
O	4.584630665640624	4.5342117158125	-8.870928122609376
O	7.118500395640623	9.0753145258125	-9.668614722609375
O	6.710852545640624	7.783434635812499	-6.121032202609376
O	9.656719295640624	5.7786739858125	-4.807341362609376
O	6.812144885640624	5.368485315812499	5.8960335573906235
O	2.172090145640624	7.828382225812501	9.091613557390625
O	1.3629230556406242	6.1284313358125	12.395664977390625
O	2.0027725256406246	2.3693926458125	12.246254277390625
O	2.9208009056406237	2.3054669358125	8.550112157390625
O	6.678115195640624	1.5789378248125	8.628462457390624
O	5.713782615640624	-1.8309620441874999	10.003375777390625
O	3.8630701756406243	-2.6173085841875	6.782980997390624
O	6.621308915640624	-1.0342322641875001	4.685413117390624
O	9.169252995640624	-3.2286073741875	6.4581373673906235
O	7.218571235640624	-6.3748627741875	5.539161527390624
O	6.720464555640624	-5.2976674841874996	1.9196065173906238
O	10.419739895640625	-4.419927494187499	1.5323041073906238
O	11.482155395640625	-7.751287164187499	3.0064106773906243
O	10.761599895640623	-7.6533170941875	-2.272123602609376
O	0.7188253956406241	-8.3463087641875	5.085084187390624
O	-2.7299675243593757	-7.914458834187499	3.589675027390624
O	-4.396563124359376	-8.8488321341875	6.8981456073906235
O	-2.136703022359376	-6.5787007541874996	8.840809047390625
O	-2.7694683843593757	-3.9831482641875	6.1782293973906235
O	-6.546041484359376	-4.1669568741875	6.520809717390624
O	-6.073806804359376	-3.8320241841875	10.255344577390625
O	-4.0611415343593755	-0.6312472641875	9.795097577390624
O	-6.458070534359376	0.7446790337125	7.180560347390624
O	-9.391197794359377	0.09073030481249988	9.425172227390625
O	-7.777403174359376	5.888340225812501	9.129327507390624
O	-9.132592874359375	8.319480345812499	6.512902877390624
O	-8.490585034359375	6.251101905812501	3.340576957390624
