27

O	29.65844545528776	-1.064328320880748	29.54749031352103
O	29.91700441114443	-1.3021849779579069	28.04114511960603
O	28.785328570282953	-0.9771693581754817	27.281669911954605
O	29.393557240647386	-1.3390939137384297	26.017898818967023
O	30.267149693182905	-0.30670690849085364	25.608271381197593
O	30.784814744802482	0.09627877995951895	26.7613214248666
O	30.859553281641496	-0.06613669239299574	28.06230022597763
O	32.23570398898847	0.5432486619406374	28.209472859639252
O	33.031133488787646	0.2598559721740262	26.75718057477568
O	32.606589838450326	0.8075332038046914	25.587219719251838
O	32.296965739661225	0.301381804184418	26.72359585735556
O	33.165888905719434	-0.9262598424978408	27.167407533535428
O	34.24159985380164	-1.1248273537409115	26.448810606328724
O	34.09615905268477	-2.213733071464361	25.44587692890256
O	32.980655790189445	-2.2438712011193886	24.656536344348602
O	32.22029175306086	-2.692437516846438	25.73721660803049
O	32.360745119832686	-1.88990099060953	27.003949703132925
O	33.273820694230515	-2.7803713444420803	23.335598468917457
O	32.70835851081494	-3.075443474196914	22.04747616080128
O	33.883309214943836	-3.3694907940381973	21.120332202068465
O	33.667251619676435	-4.447205606525332	20.457252079618833
O	34.444108820990586	-2.5114012385855236	20.203740176163446
O	33.44630427790362	0.1112678475758348	24.552654949528403
O	33.29860430497894	0.43792013453084094	23.214659724592078
O	34.50566411966183	-0.26377714705437055	22.494206571343152
O	33.054565490361696	0.15041902824361014	21.854666475829973
O	27.480078953257486	-1.2545324839132064	27.60330054957295
