98

O	1.1497856002126983	2.437448614968255	0.6582797042698414
O	1.6174664802126983	1.3782626669682547	-0.26570290573015853
O	0.8476302402126984	1.4413643979682544	-1.5438852131301586
O	0.9179815202126983	0.1642900769682546	-1.5502361803301585
O	1.9942672202126985	-0.6099054050317454	-1.7189915627301586
O	2.6806556402126986	-0.5393656650317455	-2.8316058857301583
O	2.9327422802126986	-1.7485368950317453	-3.4026903357301586
O	2.9832321302126985	-2.8130820750317453	-2.5924858957301584
O	3.831975000212698	-3.8024482250317453	-2.3141095087301586
O	1.9514786102126984	-2.8091759950317456	-1.7611425327301586
O	2.2145299002126984	-1.6837418250317455	-0.9150995977301586
O	0.29166193021269826	-0.5900918650317455	-0.5806782937301586
O	-0.09891465178730163	-1.9199822450317456	-0.6883212827301586
O	-1.2907330797873016	-2.0009099750317456	-0.030463745730158642
O	-1.3414487217873017	-1.3803378950317455	1.1416432842698416
O	-2.4274212797873016	-0.6170858950317455	1.5223409642698416
O	-0.15864848578730173	-0.8016421850317454	1.4907227342698413
O	0.9227350902126984	-0.6652815450317455	0.6111781742698414
O	-0.4477977067873017	1.7213199329682545	-0.9692191407301586
O	-0.9197679787873017	2.9575536349682547	-1.1463439897301586
O	-2.296365009787302	3.2500459949682545	-1.2654730237301586
O	-3.1497939997873017	2.2305373749682547	-1.6731069627301585
O	-2.5339634997873017	1.0399679879682546	-1.5593240756301585
O	-2.324690099787302	-0.030501843031745413	-2.2629716297301585
O	-1.3551455157873016	-0.19380772503174537	-3.1316174257301586
O	-0.7539020930873017	-1.2707054750317455	-2.9820761757301586
O	-0.050808426787301686	-1.6780336250317456	-4.006198135730159
O	0.3302583502126982	-0.7586810850317454	-4.926879315730158
O	0.27102261021269836	0.5375425369682545	-4.510346525730158
O	0.4073547702126984	1.2758919579682546	-5.601901545730159
O	-0.3264030347873017	2.4174819149682545	-5.629074145730159
O	-0.7883565320873017	2.9094487649682548	-4.445426095730158
O	-1.5315499977873017	1.8593148949682545	-3.9072392957301587
O	-0.6660730810873017	0.8019492804682545	-3.6052710757301587
O	-1.4575270577873016	0.9794412049682546	-0.7281463697301586
O	3.3768750202126983	-13.727803415031744	-0.8805810087301585
O	-0.17010461878730165	-12.449045015031746	-0.9948521327301585
O	-10.834703859787302	-7.0920443950317456	-1.0215803927301585
O	-7.867776159787302	-5.637181045031745	0.7955478342698412
O	-7.062077999787301	-3.1757526450317455	-1.9860946977301586
O	-7.366806919787302	-5.998775405031745	-4.524890015730159
O	-4.977341279787302	-7.987241305031746	-2.3322524817301584
O	-2.532253169787302	-5.019753695031746	-2.1369791697301586
O	-3.0338263697873016	-4.161461115031745	-5.790318095730159
O	-2.285186029787302	-7.625612625031745	-6.907904485730159
O	0.7513924902126984	-7.916409165031745	-4.689430755730159
O	2.1352152402126983	-4.588273015031746	-6.001566015730159
O	1.7431670002126984	-5.638597545031746	-9.665539735730158
O	3.8043265202126983	-8.780427585031745	-9.161049835730157
O	6.563705880212699	-6.780586415031745	-7.354388985730159
O	6.945622550212699	-4.588995495031745	-10.45729173573016
O	8.467055720212699	2.8648760049682545	-8.617766775730159
O	6.060118610212698	3.7981233149682545	-5.712331875730158
O	8.868196670212699	5.238570314968254	-3.5755063557301585
O	10.835211240212699	2.0070261449682545	-4.229949095730158
O	7.969288360212698	-0.15301602503174538	-3.2462759657301588
O	7.382769870212698	1.8858360649682546	-0.12304975573015864
O	10.973230940212698	1.8982444049682545	1.0888677642698412
O	10.956938340212698	-1.8719268850317454	0.7114516842698415
O	7.686049640212698	-2.2024485450317455	2.736736874269841
O	9.090049010212699	0.0031864429682545437	5.510557964269841
O	3.2016246102126984	-3.162336245031746	8.00812959426984
O	4.519188120212698	-6.393404055031746	6.4835530842698414
O	3.1161839702126986	-6.257468625031746	2.9882635642698414
O	3.8811801902126986	-9.969579915031744	2.7216333842698415
O	1.2617125202126984	-13.829080415031747	5.1039199042698415
O	-0.10876497978730171	-10.316817515031744	5.203603344269841
O	0.8464284502126983	-8.294359505031746	8.251735324269841
O	-1.4633507907873016	-5.313342135031745	8.739459264269842
O	-6.1299624597873015	0.3338325189682546	7.259776484269841
O	-9.258914609787302	2.0958926249682546	8.180103214269842
O	-11.078435859787302	-0.4746850950317454	6.077437274269841
O	-10.3178125997873	1.5075978489682544	2.9227085542698417
O	-11.262481359787301	5.170694444968254	2.557197704269841
O	-8.284726859787302	7.454391594968254	3.209526524269841
O	-5.809263289787301	4.675398054968255	3.699795034269841
O	-4.977177709787302	4.864636344968254	7.414371234269842
O	-3.3372572197873014	8.183855054968255	6.574233584269841
O	-0.8290095601873017	6.469400674968255	4.322501934269842
O	-0.4245805887873017	3.6826435849682544	6.828817374269841
O	0.33997490021269827	6.188699384968254	9.590353364269841
O	3.1418935702126984	7.727716714968254	7.520518804269841
O	4.6340489802126985	4.351510044968254	6.502250644269841
O	4.559064910212698	3.0580094549682544	10.101906764269842
O	9.481338240212699	2.2084205149682545	9.817310364269842
O	4.292122030212698	9.256175384968255	0.9400331542698415
O	4.571881090212698	8.208324204968255	-2.6995093657301585
O	3.0728342302126985	11.572607684968254	-3.7916167257301585
O	0.29650381021269834	11.259684884968255	-1.3172836697301586
O	0.05096450021269827	7.581282654968255	-2.3734179617301585
O	-0.4630623737873017	8.639033954968255	-5.989627125730158
O	-3.1258018097873017	11.043361384968254	-4.948040765730159
O	-4.914120099787302	8.171205614968255	-3.0833110257301586
O	-4.597547869787302	5.725413454968255	-5.839667945730159
O	-5.918955799787302	8.265051334968256	-8.376070875730159
O	-9.853125449787301	3.9643517149682546	-6.931270185730159
O	-10.139918499787301	0.5765188759682546	-8.663975435730158
O	-6.451811029787302	-0.5251478650317454	-8.43891114573016
