20

O	28.524795896125667	-2.1824126731325095	27.61001656238581
O	27.704020886049765	-1.7210506641207173	26.54871588143263
O	26.724337947908023	-0.9093075029049573	27.155795350228473
O	25.500534389043953	-1.1934992365093706	26.62731776417706
O	27.31045008661089	0.20303930877094384	27.75930038930618
O	28.61294989429621	0.10181434540580409	28.238641050062135
O	29.325032096285934	1.110394725065126	29.043663149556906
O	30.662588287801658	1.3241482761484349	28.434207409079114
O	31.007751045197406	0.10668596150812032	27.62629299586403
O	30.639051308560386	-1.202462939096515	28.251383662591678
O	29.168271004086517	-1.158431145442316	28.251281702824954
O	31.02324125443947	-2.2913380545769524	27.25226514781262
O	32.45695034190243	-2.517426504050435	27.416732987370548
O	33.1112015284203	-1.2079957838435589	27.13911576108906
O	32.44205822811829	0.03419042369743375	27.538865552103143
O	33.02491076862622	0.6123002741410413	28.762609346005874
O	34.4311125736671	0.22211829304845504	28.55403290836912
O	34.488543972823635	-0.9839829868389045	27.60405349024222
O	35.39433718085805	-0.8322944366191751	26.581902850198816
O	33.12408672102008	-1.1890564220786712	25.647413436795397
