41

O	30.19975171959653	0.026361129026330688	27.877036672550442
O	31.272820599197033	-0.9335322657682712	22.29621225903949
O	33.249864664935714	-3.3712392154515753	26.550648288639803
O	30.082250676389755	-1.5843360422048123	27.98604038865169
O	34.529204780885394	0.07139651672152807	25.134914388446365
O	31.298202754900554	-2.1406038777165395	27.12565601057194
O	35.034408938582416	-3.1790265894323273	26.975573094717827
O	33.95212933741529	-0.13069134659713394	23.936369142607653
O	35.133644118826055	-5.112705612552495	22.940728259775167
O	34.29686824557214	-0.7819760622857528	22.63172580909296
O	36.03864973494293	-3.606869244610561	21.565319038903084
O	33.756261802534326	-2.205618934316957	22.916029076187357
O	33.26627447918753	-3.7635136040196104	25.23016303620286
O	34.35238477170162	-1.9260725133354215	24.096806497929723
O	33.21043482824983	-3.648557850056648	25.21851967015779
O	35.71866215068089	-1.67821536998246	24.467406615329576
O	30.80987584039513	-1.2987990168515937	29.064160515524712
O	35.97245054506023	-3.050732823019886	23.94204822153097
O	34.38413971974299	-2.096686249401382	27.160260668251127
O	35.40213117498503	-0.9442173640004108	27.890738594923867
O	35.14318278174853	0.3825617181924888	28.52779974883736
O	33.96598479718575	0.8989915351105031	29.49054090706372
O	33.85838168582696	-0.6484972476330789	29.652886516652725
O	34.27016328719565	-1.6086673645442064	28.68200871015601
O	35.34622489861069	-3.7727798011243006	22.750208229781208
O	32.438023605943684	-2.2692922558070485	27.528691985108768
O	31.579121423969784	0.29750865624462863	28.342319248964277
O	31.9688290944453	-1.0797628318376953	28.184608215659107
O	30.621000111406207	-0.11565020757547063	26.560403002213864
O	31.605443524887708	1.6178907499385469	27.782577997826014
O	30.606676179465243	-1.5152547845686537	25.768196532326456
O	31.14236304251448	-1.8046865570421189	24.4176529718959
O	31.01485225018407	-0.5252325534601148	23.613997120793975
O	29.68809887345116	-0.9705005863542263	24.14183191321776
O	29.454391727900784	-0.6169842968045609	25.65634163824069
O	31.39751785020134	1.3498352944037553	26.240328422557464
O	32.467857690732146	0.8767038984081038	25.348318579158384
O	33.390929301781085	-0.16211994784381928	25.85067558613382
O	33.45979759280963	0.7993557012787122	26.76191897137042
O	32.94862115586811	1.8152731703612508	27.502027545830853
O	33.90628312826913	1.8127373725717317	30.904131809350282
