21

O	33.34501356407087	-2.2720032507605312	27.209850126307476
O	32.490142359690665	-0.9110270093134716	30.055340922232993
O	31.555933637597455	-0.4813374480153578	24.250447465274682
O	31.982403902328194	0.829706172492064	23.842120247682445
O	28.709354013022228	-1.3580699999966195	27.96444215409333
O	30.20340196446961	-0.3212017520238146	24.544542585097314
O	32.625084853578215	2.0389046234882433	26.258325714575143
O	29.896347543039294	-1.3115535249807972	25.37118864108159
O	30.95070858379177	-1.5886036379881978	26.29027442991279
O	32.209541537078685	-1.8794491231704382	25.996180110193354
O	32.488305068067525	-0.9261011855198509	25.118202682466805
O	30.17894943565843	-2.0347534827670826	27.340564793879473
O	29.76808543225099	-0.7727148651576649	29.19315031958238
O	30.289442130765625	-1.9734595916421582	29.476475357348235
O	30.540736881546298	-2.753236361479156	28.351666843783462
O	30.535488598664685	0.3761016242590446	28.864345825957287
O	29.719070145184798	1.188412768018219	28.042168861835428
O	30.476832179463475	1.6418654676443891	27.055447348021865
O	31.75694832732018	1.2332366780660247	27.007233566306144
O	32.55561931339935	0.7249419258549262	27.973513986868117
O	31.90255620998696	0.493482940159951	29.152126738657095
