88

O	0.8142802045246154	-0.0183891150444615	-0.7273732248507692
O	-0.8928672154753847	-2.8579840160444614	-2.6746836568507693
O	-0.2118701314753847	4.705182753955539	-0.09149397585076918
O	0.24709675452461521	-1.1844560960444612	-1.5192972668507692
O	-0.4952339324753847	6.078114323955538	-0.6887357348507692
O	-0.7954237934753847	-1.6844037860444616	-1.9180983568507692
O	0.44037567452461523	5.526998803955538	0.9337586231492307
O	-1.4463445724753847	-0.6079210560444616	-2.630061636850769
O	-2.7949737554753846	-2.7174590060444612	-0.43684469315076924
O	-0.9922185875753847	0.6402025819555385	-2.178281136850769
O	-0.14609713847538475	0.7444127409555384	-1.0735949888507692
O	-0.16207778047538468	2.2501140539555387	-0.9201327348507692
O	-0.44161647947538474	3.5771669339555388	-1.3884923088507692
O	-1.3009864184753848	3.4970429539555385	0.2737216301492308
O	-0.7009166314753847	2.2031886939555383	0.3969230691492308
O	-1.0657712276753848	0.7370773989555385	0.5501254301492308
O	-0.7792929174753846	-0.15609194604446153	1.4185924431492307
O	-1.2704818384753847	-1.3101002260444616	0.5035451941492308
O	-2.4598104554753846	-1.7041936460444616	0.5014342181492308
O	-3.1730033454753848	-0.5032070760444615	0.12856042814923074
O	-2.469214235475385	0.7165184969555385	0.2511048411492308
O	1.4719786445246155	0.4210026759555385	0.2261047621492308
O	-0.024852665475384672	0.18164780995553842	2.316644713149231
O	-10.025267305475385	-5.6878091560444615	-5.659014076850768
O	-12.167519315475385	-4.693029396044462	-2.7279573668507693
O	-11.993037815475386	-1.7018756960444614	-0.4512244735507692
O	-9.854008005475386	7.491990073955538	7.009290313149231
O	-7.506912365475385	4.529629153955538	6.715094593149232
O	-5.167087545475384	6.441538423955538	4.377355383149231
O	-8.122812365475385	7.523045533955538	2.2486511631492307
O	-9.402876205475383	3.9340038539555384	2.1928224331492308
O	-5.986344915475384	2.7795938739555384	1.2494874931492308
O	-5.284316735475385	5.636850313955538	-1.2547595368507691
O	-8.431629735475385	4.901620003955538	-3.0337486668507694
O	-7.637578295475385	1.1395377289555384	-3.233089286850769
O	-4.244161065475385	1.8521899749555386	-4.678698016850769
O	-5.475770645475385	4.228145003955539	-7.327660606850769
O	-7.844379065475385	1.5224096739555386	-8.590995906850768
O	-5.064933465475384	-1.1086268960444614	-8.662076746850769
O	-3.0787444754753848	1.1726417579555384	-10.959032106850769
O	-5.472157895475385	0.8175435104555384	-13.83205760685077
O	-5.303151905475385	-2.9328511060444615	-13.598271106850769
O	-1.5180183144753847	-2.8053066860444615	-13.30139040685077
O	8.194701404524615	0.3419819469555384	-10.465699106850769
O	4.500598114524616	0.9087608744455384	-9.656604226850769
O	5.049691274524616	1.0275823709555385	-5.918016766850769
O	7.3284942845246155	-2.0583695960444612	-5.796750836850769
O	4.676762804524615	-3.8951001760444615	-7.92319029685077
O	1.8110461045246153	-3.0579043660444616	-5.6488965968507685
O	3.974146964524615	-4.030627606044462	-2.5911110968507693
O	4.965058374524616	-7.3796774960444615	-3.894406556850769
O	1.2881711145246153	-8.030362936044462	-4.625562776850769
O	0.22033375452461534	-7.0016536660444615	-1.0803604548507693
O	2.9100626445246154	-9.236791416044461	0.44427707114923076
O	-0.8857733544753847	-11.604137216044462	2.8698225131492308
O	-1.5933540244753845	-7.4518769960444615	5.61992341314923
O	-4.416801355475385	-8.305871676044461	3.239383553149231
O	-4.972451905475385	-5.096199546044462	1.5124484831492309
O	-8.209141035475385	-6.320041446044462	0.21876307214923074
O	-12.527093315475383	-6.970432186044462	3.206990143149231
O	-9.553880685475384	-5.121371346044462	4.644440983149231
O	-7.182110055475385	-7.281370496044461	6.697148613149231
O	-0.9196756064753847	0.7699238879555385	11.123009493149231
O	-1.1784246915753847	6.893273063955538	10.833411593149231
O	5.133965914524615	6.745414583955538	10.593478793149231
O	3.1777044645246155	3.9270447539555384	8.93940914314923
O	3.7795300345246154	0.9770472468555385	11.318785793149232
O	7.427504624524615	1.1509332079555386	10.21217949314923
O	6.411187074524615	0.3373520369555385	6.656107033149231
O	3.853376304524615	-2.2558278660444615	7.868066303149231
O	6.587805094524615	-3.938958146044462	9.815104393149232
O	8.779846184524615	-4.271263656044462	6.71097056314923
O	5.900217994524615	-5.564179256044462	4.55338293314923
O	4.849878064524615	-8.123505436044463	7.182329063149231
O	5.401544604524616	-11.721026316044462	3.7683480831492306
O	8.526433864524616	-4.055361816044462	-13.93096590685077
O	10.258613984524615	-0.5300416560444615	1.1667830831492307
O	9.128295284524615	1.2601287459555386	-1.9847966168507691
O	11.707885284524615	4.033514483955538	-1.4635745568507692
O	10.886593484524614	4.386693453955538	2.1791017631492307
O	7.254725474524615	4.293665423955538	1.1316814231492307
O	7.579175164524615	7.1381365739555385	-1.3282827568507694
O	9.362033384524615	9.104560203955538	1.3846876231492309
O	6.418451674524615	8.608951483955538	3.757300033149231
O	3.8109260345246154	9.293050773955539	1.043137033149231
O	5.5985959245246155	12.464213783955538	0.1003845781492308
O	-2.8424214554753844	13.820289483955538	1.678436843149231
O	-2.891521835475385	10.778193983955537	-0.6437998188507692
