86

O	0.5327026658095235	1.4173273870666663	2.972273812460318
O	-0.4895160923904764	0.8879075110666662	2.233846212460318
O	-0.11531558219047638	-0.3495635629333338	1.7651636224603175
O	-0.40579034319047635	-0.8237176829333337	0.4372546574603177
O	-0.9097828071904763	0.08861054706666627	-0.5189828529396823
O	-0.11733156919047638	1.2127460777666663	-1.0353184415396823
O	0.6615720658095237	0.5377186450666662	-2.032633717539682
O	1.7936513358095234	-0.17831727293333377	-2.003946187539682
O	3.1039334258095237	0.44847435706666616	-2.154407107539682
O	3.4067148858095235	1.7484975950666661	-2.312046457539682
O	4.5481487958095235	2.2132209270666663	-1.6145886175396824
O	2.3207662758095235	2.5178089370666665	-2.2895181475396824
O	1.0644142358095237	1.7769503700666662	-2.3525960775396824
O	0.6501154658095236	1.459326735066666	-0.041197840539682284
O	1.5768283358095236	0.3223940900666662	0.14642649246031775
O	2.5099755658095235	1.3479488840666662	0.5893839024603176
O	2.8820899558095237	2.4828222370666664	1.1316953024603176
O	1.8823088358095235	3.492204567066666	0.8328718924603176
O	1.5479456858095237	4.228510387066667	2.572254852460318
O	2.1676405258095235	5.919026427066666	2.262366352460318
O	0.7740291758095237	2.8969503570666664	0.24115102746031775
O	-1.8575532241904764	0.7891737670666662	0.2655716054603177
O	-1.4307269871904764	1.5416939060666661	1.4415767324603177
O	-9.093915664190476	-1.9471120229333336	-10.021941637539681
O	-8.388321814190476	1.588296925066666	-8.902472127539681
O	-5.623633104190477	12.266994887066666	-4.2443437175396825
O	-5.677630804190477	9.119110617066667	-2.1626209975396824
O	-1.8946159041904764	8.774512877066666	-2.4419966375396824
O	-2.0794323641904766	9.239049277066666	-6.1797717075396825
O	-4.887638504190476	6.661213337066666	-6.327956647539683
O	-2.862932014190476	4.240390347066667	-4.203919677539682
O	0.37955704480952357	5.000343987066666	-5.956599637539682
O	-1.0755001491904763	4.417781317066666	-9.38083052753968
O	-2.6014060041904763	1.119804800766666	-8.214156817539681
O	0.6520612558095236	-0.15365920293333368	-6.882614747539683
O	2.644191505809524	0.7440160140666663	-10.001816607539682
O	0.2915142798095236	-1.3882587929333337	-12.051783867539681
O	0.5903898758095236	-4.343305832933334	-9.680969717539682
O	4.338205275809524	-4.254835012933333	-10.017174567539682
O	4.202112845809523	-5.394262172933334	-13.626288267539682
O	4.284995595809524	-9.138724512933333	-9.755934387539682
O	10.674607015809524	-7.9617823429333345	-1.4481579385396823
O	8.226375845809525	-5.970792252933334	-3.664150777539682
O	6.726239635809524	-4.109740502933334	-0.7775787495396822
O	6.308337355809524	-7.075081912933333	1.4964726624603177
O	4.670640525809524	-8.854509312933335	-1.5088338775396823
O	2.2219403758095235	-6.024867932933334	-2.206179707539682
O	1.4297278358095236	-5.8696548529333334	1.4917660224603178
O	0.8160802458095235	-9.540579612933334	2.057287212460318
O	-1.4947007741904765	-9.416867112933334	-0.9543542225396823
O	-3.4000051541904766	-6.399633172933334	0.4700131234603177
O	-3.8057999441904764	-8.199186112933333	3.8566858724603175
O	-8.801159374190476	-7.5877343329333335	3.170024972460318
O	-8.312302934190477	-2.6072042429333337	3.715116672460318
O	-9.270532974190477	-3.7658915429333337	0.21771007146031768
O	-6.6961139341904765	-1.9394909429333338	-1.9221766775396822
O	-8.974753174190475	-2.748633522933334	-4.851470297539683
O	-13.633277884190477	-0.47466914293333384	-5.852157427539683
O	-11.413035884190478	0.9364841960666662	-3.1369451275396822
O	-12.184531984190475	-0.3171068029333337	0.33780920546031773
O	-6.012432564190476	6.771066857066666	6.290249512460317
O	-2.4282191941904765	11.473722987066667	4.631705412460318
O	1.5964086558095234	9.412864707066666	9.050249092460318
O	-0.4231424471904764	6.8297306470666665	7.070441232460317
O	-2.9493164641904763	5.622782067066666	9.677583632460319
O	0.028980997809523568	4.129615957066666	11.545218832460318
O	0.7033696258095237	1.8441510530666663	8.579445932460319
O	-3.0791844641904764	1.1979577281666662	8.235519242460319
O	-3.2271125041904765	0.1027694370666663	11.784038632460318
O	-0.43173607719047635	-2.4509708429333337	11.265367732460318
O	-1.9042212741904765	-3.861384102933334	8.056128982460319
O	-5.406455264190476	-4.148488972933333	9.529499352460318
O	-5.385832654190477	-9.025519812933334	8.379426342460318
O	10.149620615809525	-13.418119212933334	-2.6436889475396823
O	5.509679055809523	-2.921363262933334	7.908813032460318
O	7.439533825809524	-2.8688431429333336	4.642798122460317
O	10.393058415809524	-1.1096760529333336	6.301113702460317
O	8.148372235809525	1.3759111200666663	7.998855742460317
O	6.386327075809524	1.7409311440666664	4.755539452460318
O	9.486411415809524	2.570189387066666	2.7582485924603177
O	10.361537515809523	5.086928537066666	5.461399672460318
O	7.008885545809524	6.830973827066666	5.005276042460317
O	7.254879075809524	6.662534257066667	1.1656388824603177
O	10.661552615809523	8.143231877066667	1.2528851724603176
O	5.2151294658095235	12.498444987066666	-4.038868687539682
O	4.618170595809524	8.886143447066665	-5.100573427539683
