86

O	-3.5413544024900006	3.1385264799166666	-4.394013909296667
O	-2.3777000794900003	3.045888219916667	-3.3954036892966664
O	-2.1613078974900004	1.7310462319166666	-3.8977673792966665
O	-2.6854486224900005	3.1146905799166666	-1.9782632142966663
O	-1.5043959484900005	2.9745650299166666	-1.0458670782966664
O	-1.3251529444900005	1.6884851169166666	-1.7497770322966664
O	0.19394233750999956	2.0428291529166667	-1.1760690902966664
O	0.35055034750999936	1.0114889949166666	-0.1570699492966665
O	1.4215208975099995	0.3409778409166666	0.4135268707033335
O	1.0804487875099997	-0.35125315008333335	1.5698680007033334
O	0.18350461750999947	0.4460322849166667	2.3456304807033335
O	-1.0020523654900004	0.4833868349166667	1.5506923107033335
O	-0.5503892124900005	1.5033289399166667	0.7898426507033336
O	-1.4405501954900004	2.6406032699166664	0.34010075070333357
O	-2.7857692124900004	2.1256315309166665	0.5329836507033336
O	-3.7644327024900006	2.8552389399166667	0.013408570703333567
O	-4.71819053249	1.9640021139166666	-0.7338599212966664
O	-4.270695362490001	1.2249643705166666	-1.7559944772966665
O	-3.5081378324900006	0.27463449191666667	-1.0571863212966663
O	-2.6489402464900005	1.0055262379166667	-0.07704562929666636
O	-5.09028498249	1.1213378838166665	-2.9539693692966664
O	-5.21162790249	0.2328291929166666	-4.081024819296666
O	-6.3847833324900005	0.7742138839166666	-4.875058379296666
O	-7.19539922249	-0.09401309008333336	-5.251846169296666
O	-6.333649572490001	1.8441907079166666	-5.737291389296667
O	1.3026206775099995	-1.6608286000833334	1.4737932507033338
O	-2.9883684124900007	-12.986728560083334	3.116375390703334
O	-5.35330289249	-10.332389860083333	4.375370400703334
O	-11.895506102490002	-1.1381537700833333	8.294921160703334
O	-8.12540047249	-0.9401837000833335	8.003146190703333
O	-8.43453986249	0.8799882809166666	4.728466200703334
O	-10.861986022490001	-1.7394097600833331	3.437329310703334
O	-8.47763182249	-4.449874330083333	4.609656270703333
O	-5.486924362490001	-2.7111012700833337	2.9779285107033338
O	-7.45597404249	-1.8361492400833332	-0.13489156929666635
O	-8.64485594249	-5.353455570083334	-0.6416963642966664
O	-5.14057718249	-6.716069220083334	-0.20279256929666634
O	-3.6599477624900008	-4.348786810083333	-2.7289283692966664
O	-6.29870708249	-5.171082170083333	-5.371723859296667
O	-5.48165019249	-8.809971350083334	-5.183184149296666
O	-1.7350016537900004	-8.225042440083334	-5.511950139296667
O	-2.3385997044900004	-6.330282730083334	-8.706782569296667
O	-3.3787544724900007	-9.466818360083334	-10.571619009296667
O	1.8680846575099996	-8.198840120083334	-10.382394499296668
O	3.1863029575099997	4.404088979916667	-13.735681299296667
O	5.00400894751	1.8816330899166667	-11.576339299296666
O	2.44104760751	-0.3938510200833334	-9.871936559296667
O	2.5053767675099996	1.6580924499166667	-6.659539419296667
O	6.27706970751	1.8440445079166667	-6.363195609296666
O	6.26118322751	-1.9780229700833332	-7.011037179296666
O	3.7665241075099996	-2.7571323500833333	-4.2871325592966665
O	5.61442288751	-0.39109834008333344	-1.9091946442966665
O	9.068498697509998	-1.8553035300833332	-2.514151509296666
O	7.52712648751	-5.274344360083334	-1.9312660832966664
O	6.07669684751	-4.1735430400833335	1.4155570207033334
O	9.407694497509999	-2.663539050083333	2.5474859407033335
O	8.980115797509999	-5.768526600083334	6.580490360703333
O	5.09406741751	-3.0661946400833333	8.315136020703333
O	4.206503737509999	-6.571585430083333	7.108591090703333
O	1.2884073475099995	-5.846828960083333	4.750189290703334
O	0.5031480375099997	-9.585063560083334	4.990502230703333
O	-1.5251211644900005	-12.036987660083334	9.220244200703332
O	-1.3971978454900005	-8.229594410083333	9.101222000703332
O	-6.66519830249	6.660965349916666	9.239284100703333
O	-2.9207115024900006	11.269890939916666	7.152869880703333
O	-1.7329711937900005	7.6492448199166665	6.936433790703333
O	2.8834542275099997	9.863280959916667	7.346069030703333
O	2.9736811675099997	7.165905649916667	4.638771210703334
O	3.7007184875099997	4.5264341799166665	7.186432720703333
O	8.203589307509999	6.847326509916666	5.197909980703333
O	7.79010067751	3.160417959916667	4.427004500703333
O	9.175064397509999	2.1312962859166666	7.821721480703333
O	12.65519999751	-0.6421285600833333	5.513792730703333
O	8.861046297509999	-1.5571735400833335	-13.709054599296667
O	6.3238044875099995	7.6402864199166665	-1.2899512144966665
O	4.38290093751	6.499817699916666	-4.362322309296666
O	3.5605940575099995	10.038978559916666	-5.295183149296666
O	2.6315457975099994	10.950451969916667	-1.7720813412966665
O	0.6570407975099994	7.854542479916667	-1.6867974862966664
O	-1.3359861614900006	8.877272819916668	-4.821772849296666
O	-1.9914710544900005	12.108335439916667	-3.159491809296666
O	-3.3547561024900006	10.563645699916666	0.05730803070333357
O	-5.489182262490001	8.085232599916667	-1.8080119042966665
O	-6.9194185924900005	10.671638289916666	-4.032015159296666
O	-13.10608250249	5.452784999916666	-0.23029175929666645
O	-10.67919570249	2.8596603399166667	-1.6277982082966664
