22

O	29.88393584660163	1.461193805171424	28.251610292723598
O	29.648044113619846	0.2923305817317887	27.579767065850337
O	29.74768638739063	-0.7436080588151948	28.336394548220554
O	30.065700922838626	-1.974155867972951	27.694414058799
O	31.08826950538002	-2.0075358746187355	26.64312063166783
O	32.39028069363922	-1.7131110563988392	27.393533432647185
O	33.04479625369451	-1.1052743799983278	26.350084346271785
O	32.56173664281782	-0.48100416165153004	25.187304968397026
O	33.68435520993006	0.4466630841361886	25.083058529740573
O	34.097633134550016	1.3121088095369515	26.09520454249082
O	35.23946103931695	1.6214932135653413	26.784791252127494
O	32.9245987559985	1.4335755289040528	26.896920526492227
O	32.44928442488803	0.10765936138123369	27.018047332348086
O	32.41303513070058	-1.7974820401224272	28.691957081553078
O	32.679081159726756	-0.48877244856006596	29.141708466256382
O	34.08220027271888	-0.2848206268068586	29.13716097140543
O	34.53446134302987	0.9014146742554457	29.720249659600967
O	33.69185031030169	1.8995381050234723	30.12167037761776
O	32.36073528155515	1.5622518799744074	30.235302861249217
O	32.04870369568695	0.24047090363812004	30.069313911744093
O	30.45951458343919	-1.048366098360333	25.784138261162663
O	30.019511109746173	0.18795734488654384	26.315321035752174
