30

O	26.575014296102445	-3.0193542857003126	27.680909523012446
O	27.854971021853725	-2.8565020262068783	27.309712314066676
O	27.98094424754546	-1.7672719124069107	26.53143954973806
O	28.54423134141871	-0.6733930610289582	27.20590302664034
O	28.987085489753127	-3.0595121510218943	28.103538256937
O	29.361040807397004	-1.9090132796766455	28.80904362685176
O	29.793512319044005	-1.1061794158083897	27.861438974698533
O	30.544683490151378	-0.04281066740128364	27.431349730897548
O	31.027031734779605	-0.624930136839223	26.252664180594902
O	30.30711795139142	-0.16947637164665602	25.19455538209866
O	31.285324844869763	-0.2926180279599859	24.130525963192973
O	31.98447747611425	-1.4536975978422644	23.99318607179784
O	33.28250175335797	-1.336695055184152	23.548835742749258
O	31.354174613073848	-2.429409393631962	24.657800649743944
O	30.636673451909743	-1.954919640857319	25.78459962380309
O	30.610058788038344	0.550616345891715	28.50289429364749
O	31.297251688990446	-0.2933946407255884	29.4689569890425
O	31.18125299036252	-1.051877616126094	30.539754194587182
O	32.296707438635	-1.8676264185903846	30.767589009421823
O	33.11152976770289	-2.2066581154296805	29.69358740857353
O	32.26264760165623	-2.358090081222551	28.55810056607271
O	32.66132769817527	-2.3526822013045785	27.21736890425026
O	33.825037928162416	-1.5304635507863698	27.00630576136054
O	34.416373369970415	-1.2424009322059442	28.180658225547
O	34.75009991015199	-0.03517023607966124	28.721769882464272
O	34.16271984440088	1.0721483536799143	28.24527047821479
O	33.629249995185205	0.9498865113137802	26.995965681728407
O	33.55362562752613	-0.31870650209464235	26.490833332670185
O	32.03280475137394	-0.9813552723805543	28.560911412929503
O	33.42013125629422	1.8010500394818474	29.132764605950122
