33

O	33.01710625017944	-3.922606126320286	19.615802697643883
O	31.886682029814402	-3.215459212208162	20.127106002446396
O	31.41798560875252	-3.1189595876533494	21.50267549310812
O	32.54932667782608	-2.7104625968761353	22.322641264349507
O	33.671487444025416	-3.2225429904253957	21.65347737739414
O	33.53520267287461	-4.434751140315293	20.813354255551253
O	32.35659948266524	-2.1533729531686436	23.636075296789578
O	32.16680834971863	-0.7830151038929695	23.49527272244173
O	32.16570274126072	0.09032329491224478	24.58287569607443
O	32.56981394535354	0.052965115939188956	25.834851066940775
O	33.235635717333615	-1.2102415760934278	25.76333561391913
O	33.274458516057464	-2.1481702784428256	24.700621655777745
O	31.241525230060244	-0.19685810235247392	26.643812275344832
O	31.832473614779783	-0.6410752083241658	27.841656073728945
O	30.834924423115304	-0.8337968380669001	28.779513359027685
O	30.051194862002106	-1.520723664920659	27.71791871492972
O	29.36114329175056	-0.14499537016733255	27.56640839656686
O	30.45179440350657	0.7491522829370556	26.89048898723262
O	30.612986436231708	2.0590286714876926	27.327531671407836
O	30.01073985824525	2.265278969487664	28.54353384542136
O	30.262521546086457	1.3344808953809182	29.575982650855362
O	30.15898775080015	0.2986901483219524	28.896860393357926
O	31.343845341491168	1.7994558983931481	30.386355114516846
O	32.9698366338174	0.09822335476834143	28.155553143406053
O	33.491511531554615	-0.1238279137662821	29.358710995851304
O	33.835791478354295	1.0174065522204396	30.082643153272564
O	34.29421114981499	2.184456098101191	29.534556806670974
O	33.5760470377335	2.3407100956536944	28.345232002334054
O	33.65504403722774	1.161900981251418	27.56212646199743
O	31.012696493244196	-3.0716882646079764	18.953382043188448
O	31.69348204132434	-3.3591079238399013	17.59912681529279
O	31.87584098956747	-4.881020352150308	17.593364381935363
O	32.70343180659116	-5.104298250484246	18.825498028058405
