84

O	2.79910138068254	-2.1072091308730156	0.09001295015079369
O	0.17241990268254004	-1.0658094508730158	-0.6133446968492063
O	4.63580232068254	0.16959917512698425	-1.7145905658492064
O	0.29436886668254003	-1.7612238208730155	-1.9082573028492065
O	-3.99695081931746	1.9468694091269843	-2.0294852328492063
O	1.6114557006825398	-2.1807851508730156	-2.359334602849206
O	2.50591015068254	-1.1206413908730157	-1.9230778428492061
O	3.0671836706825397	-0.4709454808730158	-3.0529747328492065
O	3.39566968068254	-1.4862224208730157	-0.7592276895492063
O	4.01466778068254	-0.18204901087301573	-0.5518238958492063
O	2.84551964068254	0.8857500011269842	-0.6977806423492063
O	1.8963747906825401	-0.02045535887301575	-1.1252705008492063
O	1.2473458406825402	-0.4888167508730157	0.0950331391507937
O	1.1771419206825402	0.5280586251269842	1.118527827150794
O	-0.12976976131745993	1.1985839151269841	1.1485746871507936
O	-0.97736486431746	1.0151716001269842	-0.03524960084920625
O	-2.08831658931746	1.8154686291269841	-0.34182939284920627
O	-2.82323669931746	1.510990100126984	-1.4997981698492064
O	-1.92817174931746	1.1293141611269841	-2.526706062849206
O	-1.09233416231746	0.15632896612698421	-2.190127082849206
O	-0.86535209431746	-0.07659104887301571	-0.8332950495492063
O	-11.761966799317461	-4.707567280873016	-5.128276642849206
O	-8.752994689317461	-6.9398670608730155	-4.787629052849207
O	1.1275519506825402	-13.362195540873016	-2.9767729028492065
O	0.16578220268254007	-10.481373940873016	-0.7242198963492062
O	2.57025724068254	-8.189606860873015	-2.5625030328492064
O	1.1592215806825399	-9.264393400873015	-5.905914392849207
O	-2.33382150931746	-8.674620400873016	-4.513484482849206
O	-1.3692380513174598	-5.230081280873016	-3.2179209828492064
O	0.6883055106825401	-4.3452127308730155	-6.308982082849206
O	-2.10397219931746	-5.250364890873016	-8.609468402849206
O	-4.5849253493174595	-3.2279359908730156	-6.558923022849206
O	-2.29225923931746	-0.1937543248730158	-6.636535382849206
O	-1.78512975931746	-0.3130889038730158	-10.322396002849207
O	-5.55201733931746	-0.25467485587301575	-11.005805002849206
O	-6.058387179317459	2.7025258691269842	-8.661713962849205
O	-3.49497440931746	4.663088389126984	-10.612844502849207
O	-8.56445581931746	6.274259399126985	-11.514688102849206
O	-6.155713279317459	8.667236049126984	-9.796425412849207
O	2.57061555068254	12.446581559126985	-5.288155502849206
O	1.0224835706825401	9.132191249126985	-6.406279522849206
O	2.11815859068254	7.0794328391269845	-3.4004460328492065
O	1.1179583406825402	9.841936059126985	-0.8782660128492064
O	-2.28362265931746	10.020208239126985	-2.613376472849206
O	-2.80187089931746	6.320132799126984	-2.4671739228492062
O	-1.72440501931746	6.289574789126984	1.2181002671507937
O	-3.9976798993174603	9.054819209126984	2.3520737971507937
O	-6.8691094693174595	7.248613499126984	0.6741488871507938
O	-5.985246239317459	3.913460539126984	2.4038654671507937
O	-5.8095517593174595	5.656875149126984	5.812582347150793
O	-9.32290495931746	2.2705941091269843	7.266877507150793
O	-5.9127943093174595	-1.4369819308730158	6.957042517150794
O	-8.74683758931746	-1.599779030873016	4.417122017150794
O	-6.8323289893174595	-2.0188902908730157	1.1922842171507937
O	-10.10125340931746	-3.1249024808730157	-0.4083316338492063
O	-12.43056349931746	-7.741172200873017	0.4228398671507937
O	-8.91862460931746	-7.158284390873016	1.7515549671507937
O	-8.78285942931746	-6.010929590873015	5.354646107150794
O	2.02656213068254	-7.318497940873016	7.178968907150794
O	4.42148733068254	-11.719631740873016	5.922946207150794
O	6.57546519068254	-9.509379640873016	3.7137015571507934
O	10.095066400682539	-4.9035539508730155	6.165799937150793
O	6.381406990682541	-4.211268270873016	5.505208047150793
O	4.96607586068254	-4.216038100873016	9.071214797150793
O	6.995335190682541	-1.0568740308730158	9.633712797150794
O	5.002823110682541	0.7328039541269842	6.992009407150793
O	1.75550174068254	-0.8902794408730157	8.192348757150794
O	2.4815964006825397	0.43619199512698426	11.651759197150794
O	2.84591900068254	3.9968070991269844	10.307122197150793
O	-0.2973515523174599	3.7855590491269844	8.176535147150794
O	-2.34673984931746	2.359298959126984	11.062856297150793
O	-5.54443352931746	6.188344249126985	10.615854397150793
O	5.45242422068254	7.125333179126984	4.837289487150794
O	5.539348440682541	7.648775029126984	1.0876474171507935
O	9.31550448068254	8.093855059126984	1.1037820071507936
O	9.84908390068254	5.147353479126984	3.3536152571507936
O	7.43037422068254	3.3215195391269843	1.1503002671507936
O	9.30193894068254	3.994894939126984	-2.050085552849206
O	12.46581720068254	2.879740149126984	-0.2729353088492063
O	10.815851000682539	-0.4587909208730159	0.5577823271507937
O	9.36299021068254	-0.8600394108730158	-2.9266900528492066
O	12.684039600682539	-0.13897056487301573	-4.497450942849206
O	9.053370230682539	-7.490418210873015	-7.423996262849206
O	6.15971696068254	-4.992586820873016	-7.625901892849207
