26

O	31.600538565999297	-0.36448669887468466	24.95897253377938
O	30.17083921400284	-0.02005847954074208	25.11718782044524
O	29.836911259557507	-0.9752504264192202	26.026174027267245
O	30.386010760642183	-0.6410053594976538	27.234943195212406
O	31.6830861279579	-0.22043195656054004	27.293789157906
O	32.37223289045447	-0.12173882760535826	26.115640287906484
O	29.913962653077945	-0.5502881456826376	28.51431290263248
O	28.448787243106022	-0.5975886424513993	28.610921401406898
O	32.94118745406913	1.1585733783074754	28.529154225209872
O	33.42136161976495	-0.017413525523605866	29.115445641842086
O	34.35278252823949	-0.9915077112438632	28.99891745883621
O	33.569377204630136	-2.1318762184891926	28.568891240292697
O	35.70149695154413	-1.082533431916183	28.489790093324963
O	28.163311949670142	-1.6342714541812438	27.707901895331965
O	26.804794726333476	-1.893265353916303	27.432565004492062
O	26.08775632325885	-0.7344531634775405	27.455800640324004
O	26.51432461918474	0.5010402200434709	27.93834374171449
O	27.781834885180896	0.5648350204409078	28.411153370485916
O	33.77317595518639	-0.10201456405026821	25.939249562336197
O	30.645852633069403	0.41469028450250034	28.97529529164303
O	31.601704468409093	0.8322995069115954	28.178879886094567
O	28.465646555706172	1.654466250963913	28.930302309590875
O	24.725688869205154	-0.8786081516633891	27.74239895258578
O	34.06190752220264	0.06285104755527715	24.610415475277502
O	34.539491790558785	0.8615190349645118	26.460099524454527
O	34.21781093998016	-1.4216218830781888	25.85635988374908
