91

O	-1.8542477909140624	-1.2688224331874998	1.6110673367187502
O	-3.5653772509140627	-0.8770172831874999	-4.9591499432812505
O	-1.0304005209140625	-3.4620895131875	0.6363580567187503
O	-2.9593416309140625	-1.7818775331875	-3.65333666328125
O	-0.9063641409140626	-2.1888359031875	1.1264558867187504
O	-0.3791174109140625	3.1341943268125	1.5722790767187502
O	0.37153373008593743	-1.5738512731875	1.2323458667187503
O	-0.5539533809140627	-1.5773143131874998	-2.1506202632812497
O	0.23224594008593746	-0.16919255518749998	0.9164269667187503
O	-3.6755828309140623	-2.7684877531875	-2.8746276132812496
O	-0.8501603209140625	-0.10355003418749997	0.021216798718750318
O	-1.6617775509140624	-2.5402226431874997	-3.9260774832812495
O	-1.5660543609140627	0.1698009198125	1.1842738167187503
O	-1.1625852809140627	0.01954623281250001	-1.3335711792812497
O	-0.0011128789140625317	-0.059052992187499986	-1.9313166232812498
O	-0.3743555609140625	-0.7509189231875001	-3.2052873932812496
O	0.7215235925859375	0.8618219268125	-1.4420391332812497
O	-1.8587864009140624	-1.2127226031874998	-1.7716120632812498
O	1.4952707320859373	1.1524531258125	-0.3616469981812497
O	1.0587033680859375	1.9010331168125	0.6249590367187503
O	0.27561370408593744	2.9883123268125003	0.38716512271875025
O	-0.5428038009140626	2.6569634668125	-0.6862337312812496
O	0.2339362630859374	2.2351804668125	-1.7069880432812496
O	-2.433563710914062	-0.2676850731875	-2.8330445932812496
O	-1.3230669509140627	0.18074737381250003	-3.7033763532812496
O	-3.504676970914063	-2.0426112131875	-5.749897533281249
O	-2.5564216309140626	0.010408439812500003	-5.564194363281249
O	-5.823843560914063	10.7130034568125	6.59111963671875
O	-7.915268290914062	8.1342006368125	4.78771864671875
O	-13.633422020914063	-0.6452866031875001	-0.8491579332812498
O	-10.353326220914063	-1.2092598731875	0.9582870567187503
O	-8.476221870914063	-1.0032344031874998	-2.2513213932812497
O	-10.196397120914062	2.1969775868125	-3.23062207328125
O	-9.428138420914063	3.5275108168125002	0.24271044871875025
O	-5.771645740914063	2.4991020068125	-0.10714320428124968
O	-5.5530431109140626	3.7254606468125	-3.70127931328125
O	-6.905849670914063	7.0053958868125	-2.93747787328125
O	-4.6089761909140625	7.4621547168125	0.0072915327187503265
O	-1.5671857209140627	6.5459262168125	-2.1314036132812495
O	-2.4165551309140625	8.9013933268125	-4.880056283281249
O	-2.544129360914063	11.833781156812499	-2.4106080532812495
O	0.8121334985859374	10.8192997568125	-0.9047719452812497
O	2.3822996090859374	11.0598689568125	-4.32107510328125
O	1.9592785790859375	14.8067236568125	-4.50794384328125
O	6.389102799085937	12.8070123568125	-2.2193516432812497
O	11.286074979085937	4.5069825868125	-6.515894223281249
O	7.785997299085937	5.8064147568125	-5.63413698328125
O	6.494998949085937	2.4744690168125003	-4.43148791328125
O	9.604000049085938	1.6861446268125002	-2.3096653632812494
O	9.306892689085938	5.2235950668125	-0.8339866932812496
O	5.670022669085937	4.7841808568125	0.0595537977187503
O	6.462610769085937	1.3819993168125002	1.6068095767187502
O	9.356065749085937	2.4761063768125	3.7346358667187505
O	7.127837669085937	5.2487452568125	5.024682976718751
O	4.277661819085937	2.8120420768125003	5.885739436718751
O	6.724734289085937	0.5211344918125	7.73113972671875
O	3.689820799085937	1.1641271338124999	11.77106850671875
O	0.0688543470859374	-1.4628968431875	9.54106608671875
O	-0.6949341409140626	2.2456877468125	9.986540406718749
O	-1.7887008109140627	3.2653247568125003	6.51990638671875
O	-3.2446367209140625	6.3870119768125	8.08216632671875
O	-7.632389240914064	6.5244048968125	11.00041660671875
O	-6.7351345309140624	3.3645097368125003	9.117593646718749
O	-4.816611120914063	0.8331151258125	11.18175530671875
O	-5.574166050914063	-7.8414620131875	4.28528687671875
O	-8.326315230914062	-8.493550563187501	-1.1155520002812498
O	-6.980631670914063	-11.2726164431875	-3.31758615328125
O	-3.226943020914063	-11.7011769431875	-2.8684049032812498
O	-2.778317750914063	-8.8287448431875	-0.5033957922812498
O	-2.0326823609140625	-10.5651974431875	2.8270507967187504
O	1.2164667150859374	-11.7401666431875	1.2076348167187503
O	2.2988756390859377	-8.0891160031875	0.8280873167187504
O	1.0095532360859374	-7.3372023831875	4.343676616718751
O	3.052905629085937	-10.1275680431875	5.76903690671875
O	6.251340529085938	-8.750756223187501	4.20313234671875
O	5.569226719085937	-5.1659532931875	5.300420716718751
O	4.716732449085938	-6.2103360531875	8.87445704671875
O	8.286682589085938	-3.1107817231875	10.53374880671875
O	8.167537769085937	-5.8207996731875	-1.6666634532812497
O	7.902059619085938	-2.9989194831874997	-4.1710519932812495
O	8.384262249085937	-5.3910897331875	-7.090811493281249
O	5.944696569085937	-7.8547295431875	-5.686746633281249
O	3.667343049085938	-4.9347192431875	-5.030721153281251
O	3.7467778590859373	-3.7141265731874995	-8.60613403328125
O	3.040347899085938	-7.283424123187499	-9.70716892328125
O	-0.06171448291406256	-7.2880746631874995	-7.44820212328125
O	-1.0883820209140627	-3.9236850331874997	-8.65592166328125
O	-0.7385367809140626	-4.8119266731875	-12.242768993281251
O	-6.518414120914063	-4.6881864631875	-10.430526193281251
O	-8.743168730914062	-1.5465572631875002	-10.46943249328125
O	-6.477513860914063	1.0677378198125	-8.81426277328125
