87

O	-2.278014406412698	-2.170426138657143	2.9413887203476192
O	-0.9818444834126978	-1.8125283486571429	2.665028990347619
O	-0.19100495641269766	-2.675215528657143	1.978116400347619
O	0.5402326035873022	-2.065207068657143	0.9314197603476191
O	0.9599793335873024	-0.7626326086571429	0.7210951103476191
O	0.23001948358730218	-0.476952303657143	-0.4441379670523808
O	0.8228117535873021	-1.2326709686571429	-1.4873647496523807
O	0.7968974735873022	-2.536414738657143	-1.1436265826523808
O	0.10264501358730227	-3.592382588657143	-1.8007394496523808
O	-0.6284947254126977	-3.413742868657143	-2.907964089652381
O	-1.7088300304126978	-4.109394908657142	-3.454221929652381
O	-0.9195733664126977	-2.095116558657143	-2.9834200296523807
O	0.04807281358730231	-1.0880994586571429	-2.5819375696523807
O	-1.0268613484126976	-0.363801279657143	-0.3668541082923808
O	-1.4444107124126977	0.6868605263428571	0.5268608143476192
O	-2.8635363264126976	0.19305888934285703	0.8581000103476191
O	-3.432118386412698	-1.1006870986571429	0.5874152253476193
O	-2.846116346412698	-2.164818138657143	-0.1926604196523808
O	-2.6678986564126976	-3.5496817886571432	-0.6480299346523808
O	-2.015438814412698	-4.646201498657143	-0.03236632565238079
O	-2.386807736412698	-4.702857678657143	1.2546356303476192
O	-1.4403971804126978	-1.7929467786571427	-0.27682346635238075
O	0.4989240035873024	-0.02295901165714298	1.772413380347619
O	-0.30174376141269776	-0.646489288657143	2.8184283503476193
O	13.600202443587303	0.744735241342857	-0.8908255216523808
O	12.063226843587302	-2.146836508657143	0.9790121703476191
O	6.321535043587303	-10.746811658657142	6.97376270034762
O	5.094910823587302	-7.168490688657143	6.816144000347619
O	2.6678248835873024	-8.155710228657142	4.0263371503476195
O	5.349131903587303	-9.807804558657143	2.081610980347619
O	7.5512516035873025	-6.729388458657143	2.6100829703476194
O	4.7386433135873025	-4.4184611186571425	1.3981090103476193
O	3.6888613935873025	-6.776956518657142	-1.3626501776523807
O	7.158285033587302	-7.032576098657143	-2.717268449652381
O	7.569192753587303	-3.2391910186571433	-2.580533129652381
O	4.472403723587302	-2.625863938657143	-4.522710659652381
O	5.226304413587302	-5.183880928657143	-7.24881684965238
O	8.431151933587302	-3.369526018657143	-7.91519413965238
O	6.759640223587302	0.027387033342857026	-8.111410139652381
O	4.393349493587302	-1.295975398657143	-10.722278699652382
O	7.116018723587302	-1.651404918657143	-13.298577299652381
O	4.653650733587302	3.134410921342857	-12.846991399652381
O	-5.812594066412697	3.308320541342857	-11.592309199652382
O	-2.6603121464126978	1.468958011342857	-10.35152631965238
O	-3.843066946412698	1.3734844613428572	-6.81492966965238
O	-4.964889806412698	4.9440538913428576	-6.5853379896523805
O	-1.5509837034126979	5.8895411813428575	-8.12647089965238
O	0.44920810358730234	3.872883651342857	-5.59698678965238
O	-1.6776513474126977	5.340380701342857	-2.7973053896523807
O	-1.3980383244126977	8.969277501342857	-3.800229989652381
O	2.354376103587302	8.407996811342857	-3.983293419652381
O	2.4257635135873024	6.8198832513428576	-0.46786510485238075
O	0.4010822035873023	9.760716391342857	0.9587850303476191
O	4.303541353587303	10.483041241342857	4.124897930347619
O	3.231553403587302	6.112377501342857	6.41269418034762
O	6.4984874835873025	6.173738061342857	4.456429350347619
O	6.129441123587302	3.0063737613428567	2.350212150347619
O	9.876654543587303	3.334727571342857	1.724891910347619
O	13.683575243587303	2.376869611342857	5.23706076034762
O	10.111853143587304	1.469350331342857	6.0610079103476195
O	8.204210333587302	4.047976581342857	8.04004978034762
O	-0.8141700974126977	-1.807814848657143	10.884504700347618
O	-2.3670634964126975	-7.649506428657142	9.66510880034762
O	-8.166775446412696	-5.457555468657143	8.62048408034762
O	-5.2140327364126975	-3.281851358657143	7.640785730347619
O	-5.307328286412698	-0.509829385657143	10.285324800347619
O	-8.598945876412698	0.6038461763428571	8.699946330347618
O	-6.732164436412698	1.264476795342857	5.42039269034762
O	-3.870278956412698	2.913340341342857	7.370607020347619
O	-6.241544056412698	5.181698901342857	9.082460710347618
O	-7.614700426412698	6.383636621342857	5.7463192803476195
O	-4.180511726412698	6.847209881342858	4.16222836034762
O	-2.8347001964126974	8.711468911342857	7.193836690347619
O	-1.7244693224126977	12.591176041342857	4.26325643034762
O	-4.215438246412697	7.824239201342857	-14.53937799965238
O	-9.308924116412697	3.836436081342857	-0.32842052135238076
O	-8.309665216412697	2.051361521342857	-3.516721419652381
O	-11.660870956412698	0.22465202674285703	-3.656589549652381
O	-11.5151283564127	-0.674575012657143	-0.01379526465238079
O	-8.017556996412697	-1.652579678657143	-0.6315624666523807
O	-8.741709606412698	-4.044061568657143	-3.444412719652381
O	-11.437474656412697	-5.5322187986571425	-1.2265156346523807
O	-8.877043926412698	-6.209804298657143	1.517517940347619
O	-6.335064316412698	-7.560350368657143	-1.0076074756523807
O	-8.818144966412698	-9.852944358657142	-2.477709099652381
O	-1.5457078694126978	-13.954077058657143	0.11808523834761925
O	-0.16838120641269771	-10.963980058657143	-1.7457233996523809
