19

O	31.0634097029419	-1.1611337693154733	26.39228490483841
O	31.142850579629915	-1.7705179296662967	27.69522361027771
O	31.35667215462657	-2.0848313760447557	25.55376172451888
O	30.73050154193748	-0.7678699911449708	28.694105846847062
O	30.70077667306133	-0.09350105819585164	25.655329362053788
O	34.5974690180605	-1.7354481851120256	28.15583914628062
O	31.800129585638018	0.21039937602716152	24.7734100149259
O	31.853230029556766	-2.003267376722935	24.2360260769827
O	32.06228459751502	-0.7866708621444982	29.548466352445608
O	32.33561842257083	-0.7644973503301377	23.93523976706127
O	33.38773282253986	-1.6501896809979564	27.096445974006624
O	32.10754486710035	-2.0846714094384806	30.215677062742536
O	33.57221462572983	0.5244407450343541	28.440524130955616
O	31.30437741102845	0.0885560522923069	27.713785909689918
O	32.80926631887407	0.2622278869200171	29.718988539160556
O	32.8799964555235	-0.23554358240660433	27.44082955927687
O	34.39080952823159	-1.781865196386343	26.08975892628977
O	32.46129995602614	-2.309991092065962	27.791926726750763
O	33.55376457480245	-0.5959909259830277	23.257752799361235
