91

O	0.07804280271666653	-1.2663457403583325	-0.7218581467033334
O	-0.8160412799833334	-1.4961138403583325	-1.7529869054033334
O	-1.5875667632833335	-0.26361171435833236	-1.8180780754033334
O	-1.9208048102833333	0.4817567446416677	-0.6043093182033334
O	-0.5020409242833335	1.1761319196416675	-0.25929561640333343
O	-0.5830836322833335	2.307551769641668	-1.0775325604033335
O	0.16740142271666658	2.2288060696416676	-2.253525065403333
O	-0.46274363028333343	2.729895089641668	-3.413346085403333
O	0.42219343971666656	0.8218252866416675	-2.7209085954033334
O	1.3000385897166669	0.5921927946416676	-1.4811756734033334
O	0.46953410971666665	0.17380298064166766	-0.46500628740333344
O	-1.3792478602833333	-2.3409353303583322	-2.7550400354033338
O	-1.6482037242833334	-1.7536366203583325	-4.018274285403334
O	-2.2417556802833336	-2.520923620358332	-4.971004315403333
O	-2.8038939502833333	-3.7035772603583323	-4.5912590454033335
O	-3.0662628302833332	-3.8615462003583323	-3.2579892754033333
O	-2.6476983002833334	-2.8862352003583323	-2.3864884354033333
O	1.1035440397166667	-2.108221430358332	-0.22781990040333344
O	1.1329731197166666	-3.439429220358332	-0.6755300675033334
O	1.3373671297166667	-4.4733889303583325	0.25010074059666654
O	1.6251992697166666	-4.220508920358332	1.5588729945966666
O	1.8333535297166668	-2.8994008303583323	1.8352456745966668
O	0.9903621197166667	-2.0394515503583324	1.1265932745966665
O	1.4680102597166669	-4.9953714303583325	2.6613826145966666
O	2.4250935597166667	-5.7538519603583325	3.2337134745966667
O	1.7418232797166668	-6.906825960358333	3.8760348145966663
O	1.8775167497166665	-6.903653790358333	5.238952454596666
O	3.209858199716667	-6.960993570358332	5.681411824596666
O	3.059923609716667	-6.723759720358332	7.153188824596667
O	1.6360922297166667	-6.351082120358333	7.442697884596666
O	1.0939283397166664	-6.112595750358333	6.0706507745966665
O	11.662174799716666	6.579698699641668	3.027057494596667
O	11.792306799716666	3.7082620496416676	0.5966972645966666
O	11.212037799716667	-5.183655310358333	-7.275791595403334
O	8.492977179716666	-2.568521270358332	-7.007211595403334
O	6.301924099716667	-4.859232840358333	-4.916193065403333
O	9.236462499716668	-5.627009800358333	-2.656651555403333
O	9.923434999716667	-1.9071056203583323	-2.3914391854033337
O	6.242249109716667	-1.2531851903583324	-1.5701010484033335
O	5.859564469716667	-4.247070390358332	0.6927393845966665
O	8.957833249716666	-3.260469360358332	2.6523952745966666
O	7.673359499716666	0.3106097646416676	2.971624814596667
O	4.2603334797166665	-0.8270968283583324	4.171514794596666
O	5.854263129716666	-3.0155743003583324	6.837034804596667
O	7.820827609716666	-0.29219628935833236	8.353888494596667
O	4.828079839716667	2.028640129641668	8.528025884596667
O	2.935892689716667	-0.5574810833583324	10.478559674596667
O	5.164018169716667	-0.00035892285833237503	13.548036174596668
O	0.8046395297166665	3.061391099641668	12.973110974596667
O	-9.472358710283332	-4.5176888903583325	10.123089874596667
O	-8.282313740283334	-1.0065516253583324	9.438694874596667
O	-4.511540340283333	-1.0816445933583323	8.801770934596668
O	-4.751131210283334	-1.1162489703583325	4.988817864596666
O	-7.4194395002833335	1.6875372596416676	4.941968814596667
O	-5.129151970283333	3.703046149641668	7.271407614596666
O	-2.0774121302833333	3.2091327596416677	5.067149344596666
O	-4.148051490283334	4.138930639641667	2.000472194596666
O	-5.698233500283333	7.3092241396416675	3.426671854596666
O	-2.1779714902833334	8.345182249641669	4.381958464596666
O	-0.8799815102833334	7.736496149641668	0.8443928245966665
O	-3.7615683502833335	9.723465239641667	-0.6845636972033334
O	-0.09601971328333347	12.576836989641668	-2.8327565954033336
O	1.2199544297166667	8.719472639641669	-5.788600995403334
O	3.803915379716667	9.669128859641669	-3.142087445403334
O	4.533315329716666	6.303311359641667	-1.5019404144033335
O	7.6224961597166665	7.923440769641668	-0.05401975140333348
O	11.981242899716667	9.208262649641668	-2.7412625854033337
O	9.295763799716667	7.1118975096416674	-4.402210715403333
O	2.751600299716667	-5.370881860358333	-11.591385725403333
O	-3.493425810283333	-5.926063600358333	-11.576728325403332
O	-1.9529091302833335	-2.995389240358332	-9.743293575403333
O	-6.447908900283333	-0.7498681103583325	-11.029595625403333
O	-5.678595520283333	0.06510890864166761	-7.430860755403334
O	-3.5026910002833334	2.9434993596416676	-8.460583195403332
O	-8.723583030283335	4.309573309641667	-7.478695455403334
O	-6.190646710283334	5.891918059641667	-5.124816475403334
O	-6.356877020283333	12.017848489641668	-4.064945795403333
O	-9.320788000283333	3.108859429641668	13.096056274596668
O	-9.946635150283333	0.22263454764166762	-2.1543927354033334
O	-8.686566430283333	-1.6043628703583324	0.9418178545966667
O	-10.839480700283334	-4.565601550358332	0.10795730759666655
O	-9.755057370283334	-4.601677120358333	-3.4640668754033337
O	-6.267417030283333	-4.174804250358332	-2.1579667454033333
O	-6.480986740283333	-7.225725820358333	0.10349711959666652
O	-7.822796210283333	-9.143265600358331	-2.8167134654033337
O	-4.809232290283333	-8.195848790358331	-4.922592695403334
O	-2.3505604102833333	-8.841413430358331	-2.1241142954033334
O	-3.8431733302833333	-12.192117210358331	-1.5106996344033334
O	1.3556123897166668	-12.381970210358332	-4.457144325403333
O	4.796257909716667	-12.592397510358332	-2.8445984454033333
O	4.491966889716666	-9.73093075035833	-0.44838386040333345
