35

O	31.64268333370215	0.1846057349555002	27.817753257712106
O	32.65299534186007	0.48439611468021243	30.09436667102661
O	31.800398320942293	0.35266077416268016	26.14108304337402
O	34.97398854857438	-1.046300889761505	27.610563688582108
O	32.45663145997395	1.095679610140472	27.074567660645865
O	27.262969629700812	-2.174877814367332	25.46083105511405
O	33.964533479838956	0.7780956241970461	27.0406894864391
O	26.76503737015294	-1.8537953340370261	28.287152986372188
O	33.90863435634988	-0.5084539527004361	27.27528931083525
O	33.57525505811892	-2.6652347444922784	27.05114081893576
O	31.978350901326195	-0.9871190815320581	27.10648663617512
O	34.84212782288501	0.5794055622422505	29.910633402270427
O	32.94160678686704	-0.5533178771435427	26.145668995229613
O	35.88151474902706	-1.9578137697097004	28.54116123783014
O	30.866326323977933	-1.505182895844229	26.567543997742323
O	35.447766680582134	-1.4393349814790497	26.23281555059
O	30.33463892743112	0.09219700975104173	28.147455450807204
O	29.742406338753177	-0.34464114737248835	29.254060974191578
O	28.840602765303878	-1.3513629271011658	29.182490838607755
O	27.831890415805614	-1.005497934757992	28.302747217933195
O	28.230095951479406	-0.12375791294525607	27.381239592657852
O	29.51926840831192	0.19355218967037202	27.18349493945639
O	30.357196015979124	-2.619498118237952	27.013876580148633
O	29.187401390147883	-3.0045550654335553	26.527974062619517
O	28.658298892838364	-2.275102006902425	25.529683180933798
O	29.614047652867477	-1.7156404264095977	24.730511602033246
O	30.852609736875674	-1.42204712549902	25.223544178593972
O	33.21600424918213	-2.8209840705543137	28.278117035298784
O	31.999571133768406	-2.833344574194241	28.99504146870645
O	31.65927146562656	-1.9776865480749188	29.998283353647643
O	32.35738223398319	-0.8612792209207982	30.041072070941894
O	33.5239061357813	-1.380913380926551	29.857298397217313
O	33.96430632325865	-2.4551883329873974	29.232848758899095
O	33.79923466675352	1.2516131603817875	29.973855189556048
O	33.572478573874285	2.4907207626162986	29.121174962384742
