21

O	33.59929072260941	-1.5291472488751525	25.70230836941831
O	35.517939126199124	-0.9508206286355558	27.59021159505025
O	29.242592149002107	-0.34347406777691675	30.125814069995325
O	27.934696457682605	-2.1892435914437263	29.21847037187209
O	28.22515295176379	-0.7881553051013309	29.203252066617704
O	30.46673406091169	0.17396050001789967	29.634077693736202
O	31.337935565776476	-0.9824441100423965	27.9619482041748
O	31.158983756227673	-0.72799664809148	26.504473485842563
O	32.53995170723728	1.0281551491885679	27.774323139342666
O	33.28615227398249	-1.4066046317409315	27.13550161902148
O	33.82490584471063	0.5327945407141542	28.520863374107762
O	28.297604984128714	-0.047758823371884467	28.079138046260606
O	29.615014369384586	-0.24069015045562958	27.48359311481794
O	32.45876502625588	-2.659507883769216	27.445404724745494
O	30.579050763400527	-0.05979223217812745	28.304584428732337
O	32.54950941656882	-0.1574477056704734	26.803641209071113
O	30.963505870791828	-2.3752720191930763	27.849854626183348
O	34.22441662119875	-0.8606463884467092	28.05000734712582
O	29.4828390865499	-1.095611758138003	31.24900314405572
O	27.335630987882688	-0.6005907210753977	27.2811384355707
O	29.497176950667427	-0.24252239990060837	26.098647568569625
