23

O	32.47878766024312	-1.8893337106937396	25.719318771860625
O	26.82395084030256	-1.2556378836288045	25.415366202143346
O	33.90740854743294	-1.9280099036099634	26.686780243148895
O	31.59058448650739	-1.2039155688086876	26.60711617569721
O	26.56347667943821	-0.3660757028860353	28.02271067080938
O	31.641041254041383	-1.5444483549729655	27.942145724836404
O	34.89544318946603	-2.658014204048891	25.8686619170439
O	32.60713931382489	-2.542023032083641	27.55997611729789
O	34.96194815261407	-1.2152189244189462	27.397532078679472
O	30.233562271909147	-0.8617596424223449	26.533896413900276
O	30.36148160199962	-1.4150199214130728	28.604729351355346
O	29.935326274569494	0.4167292112038359	26.60772468824068
O	28.62869970030961	0.5148222062070364	26.004889380735218
O	28.013607845808654	-0.5750920041132483	25.368789285058188
O	29.060432291865435	-1.416022087384768	24.958013586147956
O	29.431325769896517	-1.9340762427411744	26.113151743811475
O	29.927977508478644	-0.3353477487313481	29.280023751656838
O	28.57689004508413	0.1268892758870444	29.02043125165011
O	27.622533733620823	-0.7705203309434239	28.730333401282024
O	28.164427523285447	-1.8535266577484137	28.200588165837154
O	29.286352427449014	-2.312565900625641	28.481970335515808
O	31.012489790385583	1.2192724796943057	27.202311652383784
O	30.917155010715604	0.19804701605146213	30.259512638203564
