22

O	31.200848769076064	-1.9757815205367055	26.938808373445294
O	31.613352922100567	-1.292719727426188	23.329700235609412
O	31.43835786704536	-0.48562072009699775	27.018431628629333
O	26.1340359306653	-1.6149793055922452	27.466740413217707
O	30.17696509439467	-0.3802133403942122	26.290578668343176
O	30.14091622218759	-0.9717062931649224	25.016123596858538
O	31.320797254572486	-1.5639406625795296	24.616792798225205
O	31.871507467535466	-2.236090459145374	25.646390641166285
O	29.86583436981246	-0.6238491837024164	28.805273837499847
O	29.48876835638247	-1.9977981464228376	28.576857066979272
O	28.530344417406745	-2.346250963151136	27.59728020698032
O	27.524983436257223	-1.5507952375340868	27.19977763316639
O	27.950645561330226	-0.316742271541854	27.42874110630363
O	28.930032072810207	0.17574627494377348	28.21214454263779
O	32.414714715050344	-0.8778574560369635	28.986778906204908
O	31.18444629390382	-0.3552005993479267	28.414284617412818
O	33.490201824503494	-0.003596037888984771	28.37292407901425
O	33.232838736386746	1.3480038819479585	28.157278535881805
O	34.24157128888256	2.2627062258564505	28.300333126983304
O	35.53959917598453	1.8046817462569023	28.4892455496397
O	35.77465795191615	0.48616988896800506	28.204543055496966
O	34.7702162907446	-0.44398160205673065	28.183007792450102
