83

O	-0.472441215190476	0.9952013020317458	-2.8252722998380957
O	-0.07113144049047598	0.02391127203174581	-3.793195899838096
O	-0.961366131490476	-1.059528417968254	-3.5874244398380957
O	-0.731418033490476	-1.7751878879682543	-4.7704228998380955
O	-0.7784362894904759	-1.599271717968254	-2.2898069498380957
O	-0.327227002490476	-0.8170252279682543	-1.2734477528380959
O	0.00614542250952399	-1.1615332979682544	0.10960909816190412
O	1.4573740325095241	-1.0673013979682544	0.25154382016190413
O	1.9182816425095237	0.05299218203174583	-0.6034073128380959
O	0.906475652509524	1.181969168031746	-0.8084819776380958
O	-0.18730819349047595	0.5399306050317458	-1.5432440458380958
O	1.6812031225095239	1.998283912031746	-1.857242004838096
O	2.452013232509524	2.923965562031746	-1.0240040508380959
O	3.309397662509524	2.088641642031746	-0.13817460983809582
O	2.848233462509524	0.7526340360317458	0.23994815016190418
O	2.281922482509524	0.8550677363317458	1.5638445601619044
O	3.090343002509524	1.866789032031746	2.213361970161904
O	3.771669672509524	2.6505784420317458	1.134388110161904
O	5.140677742509524	2.733977632031746	1.2411536301619042
O	4.476022242509524	1.7230539970317458	-1.001140520838096
O	-7.483135947490476	4.151409562031746	-11.094404289838096
O	-5.466726017490476	6.709106832031745	-9.204490969838096
O	-0.584469190790476	10.817227292031747	-0.9669117398380959
O	2.707036662509524	8.918512032031746	-1.2530396828380959
O	3.160025722509524	10.097228042031746	-4.799344269838096
O	-0.429437419490476	9.055014362031747	-5.5086712498380965
O	0.18014475850952405	5.623804222031746	-3.919274659838096
O	3.639579392509524	5.257144272031746	-5.503568899838096
O	2.377337092509524	6.035632162031745	-8.903164859838096
O	-0.5173879142904759	3.623475572031746	-8.550586729838095
O	1.8888487525095239	0.8511083014317458	-7.373288209838096
O	4.210775332509524	1.3133205810317459	-10.246193769838095
O	1.4136500125095242	0.9114674475317458	-12.825485189838096
O	0.15790925250952403	-2.245425507968254	-11.099172489838095
O	3.580737172509524	-3.7775498979682545	-11.466271189838094
O	1.4365060025095242	-8.084690537968253	-12.251152389838095
O	6.890123612509524	-11.334193267968253	-3.8373732198380957
O	5.7474509425095235	-8.130495537968253	-5.574330729838096
O	4.842027002509524	-6.169481637968254	-2.401967859838096
O	3.036565782509524	-9.254701367968254	-0.8296862968380958
O	1.0970708525095239	-9.611651167968253	-4.122524829838096
O	0.13736638350952401	-6.006207887968254	-4.206057989838096
O	-0.945325509490476	-6.148106357968254	-0.5657615288380958
O	-3.086708667490476	-9.262832267968253	-0.8188234240380958
O	-4.840003317490476	-7.610096717968255	-3.7583042298380955
O	-5.490959167490476	-4.380561777968254	-1.770557246838096
O	-6.8926546774904764	-6.361919857968255	1.1776782701619042
O	-11.069413027490477	-3.498199857968254	0.5797177401619041
O	-8.527208777490475	0.5696453180317458	2.185306940161904
O	-9.623580597490475	0.6456826360317458	-1.4627578768380958
O	-6.366852917490476	1.549303506031746	-3.1500070698380958
O	-8.384442137490476	2.395634252031746	-6.256820529838096
O	-11.412537327490476	6.660489842031746	-6.759523789838096
O	-9.113502427490475	6.371039322031746	-3.762335969838096
O	-10.724497127490476	4.940548892031745	-0.6464021628380958
O	-2.7675203974904763	7.229226852031745	6.675956050161904
O	-0.7214612384904759	11.963891332031746	6.959360550161904
O	2.575289232509524	10.245612562031747	6.252084190161904
O	4.896918672509524	5.775670862031745	10.099125510161905
O	2.198747572509524	4.799246672031746	7.6170524301619045
O	-0.8659720174904759	4.304332692031745	9.801049010161904
O	0.9696394125095241	1.3365699820317458	11.330267210161905
O	0.940170102509524	-0.3956204179682542	7.943205020161904
O	-2.664011967490476	0.7446967261317458	7.308485030161903
O	-3.674940527490476	-0.7764379379682541	10.600457910161905
O	-2.188980527490476	-4.152069397968255	9.613740010161905
O	-3.7496778374904762	-4.112626427968254	6.143656780161904
O	-7.175423637490476	-3.145362717968254	7.516205390161903
O	-7.004308257490476	-5.9170329979682545	10.103186110161905
O	-9.114834697490476	-7.242134567968255	5.382265800161904
O	-11.261795727490476	-7.722856017968254	8.465140430161904
O	3.302895292509524	-6.581073917968254	6.364682100161904
O	5.414664832509524	-6.744212067968254	3.2034296401619042
O	8.632573222509524	-6.797210727968254	5.247286200161904
O	7.469911762509524	-3.9525017979682544	7.390089900161905
O	6.367274292509524	-2.218488997968254	4.213139960161904
O	9.821745772509525	-2.531821597968254	2.610608400161904
O	11.297131972509524	-1.174291617968254	5.787691770161904
O	9.046345742509525	1.8833124220317456	5.640373480161903
O	9.605068172509524	2.380349492031746	1.9064368501619042
O	13.360436472509523	2.1705262120317457	2.376387370161904
O	10.863289572509524	9.396355972031746	-1.9192484398380958
O	8.882512172509523	6.613268632031746	-3.6865622698380958
