94

O	-1.5886351558566667	0.8179011715500002	-1.50348668505
O	-2.935117319856667	0.5311128135500003	-1.6958942180499998
O	-3.228733419856667	-0.48951408644999983	-2.51220195805
O	-4.218029569856667	-0.6078555964499999	-3.4526646080499996
O	-2.5226674698566667	-1.5903346464499997	-2.14484157805
O	-1.3607349148566668	-1.5020410364499996	-1.4092423800499998
O	-0.5354907098566668	-2.60055922645	-0.35511387504999986
O	0.7485589901433333	-1.57080751645	0.03390368095000018
O	1.9272460001433331	-1.8166093264499996	0.8970101419500001
O	1.7667045601433333	-1.5816103664499996	2.23088089195
O	2.4975769001433332	-0.4217206364499999	2.5149793819500004
O	3.8217313201433334	-0.5190162564499996	2.26492822195
O	4.916629680143333	-0.28315762644999976	3.04257980195
O	4.053289610143333	-1.1806804564499997	1.0893051019500002
O	3.1981251901433336	-2.1632310164499997	0.6006381919500001
O	-0.8349468019566668	-0.2424184064499999	-1.0824476850499998
O	0.45401391014333325	-0.45801327645	-0.7609706880499998
O	1.5457621001433335	0.5247945635500002	-0.8314983840499999
O	2.579618970143333	0.06365295355000011	-1.3330062160499998
O	1.4613386401433335	1.6898385985500002	-0.005888690049999812
O	2.488887840143333	2.5590657935500003	0.09018492895000019
O	2.2138558401433333	3.9029123835500004	0.39677186195000025
O	0.9836136801433332	4.33194961355	0.7798524319500002
O	0.005691148143333158	3.6488756335500003	0.05353429895000017
O	0.2459910901433332	2.2786833145500003	-0.003753327049999866
O	0.5608146401433333	5.527644013550001	1.2653345019500002
O	0.9281034001433331	6.805322213549999	0.9576006719500001
O	0.6364736901433331	7.5841719235500005	2.23598018195
O	-0.7137330868566668	8.01683504355	1.99840940195
O	-1.3289180498566668	8.08491519355	3.25290431195
O	-2.5756270598566666	8.88602890355	3.3893849919500005
O	-2.764683999856667	9.62943328355	2.11645649195
O	-1.443928049856667	10.25825994355	1.80351524195
O	-0.5342339518566668	9.22867373355	1.2667363819500002
O	-4.9606500398566675	2.38116676955	-12.61822756805
O	-1.3665007418566668	3.2469846435500003	-11.897148068049999
O	9.959700040143332	5.23629621355	-8.927436788049999
O	8.066057810143333	2.19601697555	-7.657561778050001
O	7.3742448601433335	3.93848065355	-4.35685597805
O	6.149708730143333	7.02665218355	-6.12153934805
O	3.9913051401433335	4.79161277355	-8.28995675805
O	2.598674460143333	2.97802125355	-5.2422633980499995
O	2.2902637301433333	6.064012303549999	-3.14654041805
O	0.42905545014333313	7.89807930355	-5.897570368049999
O	-1.9089296598566667	4.98153813355	-6.33162276805
O	-2.6286624898566666	4.83940276355	-2.5908639080499998
O	-3.5259512998566667	8.46145100355	-2.5892508680499997
O	-6.0850393098566675	8.22746764355	-5.190196898049999
O	-7.776482269856667	5.24534933355	-3.5594576080499998
O	-8.137795849856667	7.208632903550001	-0.35970441304999984
O	-10.788679839856668	9.45757613355	-1.9757037580499999
O	-12.408233659856666	4.92077574355	0.3565853719500002
O	-7.0045668198566675	3.9704033135500003	12.22776883195
O	-8.177487149856667	1.6584469575500003	9.477415231950001
O	-7.207281339856667	3.18060019355	6.087928321950001
O	-4.077308879856667	1.1388567175500002	5.633576711950001
O	-5.725538539856667	-2.16989218645	6.64736421195
O	-8.572777739856667	-1.3062846664499999	4.21279061195
O	-6.209594649856667	-0.6473734464499996	1.3675965219500001
O	-4.300780629856667	-3.85481305645	2.14408195195
O	-7.362973029856668	-6.1278784364500005	2.3741883819500003
O	-8.415911739856666	-4.7185609264499995	-0.9785635110499998
O	-5.007998379856667	-5.406975076449999	-2.54258883805
O	-4.989705029856667	-9.00396589645	-1.1782850460499998
O	-4.305100589856667	-10.42308539645	-6.010303958050001
O	0.3356719601433332	-8.49178869645	-5.94760288805
O	-2.132953539856667	-6.6726191864499995	-8.17187644805
O	-1.6712658358566668	-3.0918608964499996	-7.06928575805
O	-3.516928489856667	-2.0699080464499997	-10.25202028805
O	-1.4987906128566668	-2.3346654764499997	-15.112014768049999
O	0.7564432701433331	-2.9486102964499996	-12.11747336805
O	12.834816540143333	-0.8880995464499999	-2.16305784805
O	12.569894940143334	-3.46278444645	3.60014841195
O	9.631880040143333	-3.8808007864499996	1.2666713319500003
O	8.997077100143333	-8.38002672645	3.9273653319500004
O	5.606260890143333	-6.52742656645	3.5225275119500004
O	5.110688710143333	-8.09615854645	0.1036474769500002
O	3.035014670143333	-10.99430879645	4.22534457195
O	0.5123556501433332	-9.65725839645	1.72157848195
O	-3.6561691098566667	-13.62933319645	-0.5440180720499999
O	-13.546747659856667	0.12529710355000012	9.20118176195
O	0.7057276001433331	-5.968913356449999	8.18475886195
O	-0.7979808274566668	-2.48608222645	8.519599031950001
O	1.2738360201433334	-1.8320267864499997	11.64989893195
O	4.409565810143333	-3.1452632064499997	10.08206763195
O	3.4193412701433332	-1.1345727864499997	7.10098201195
O	3.150124720143333	2.13576976055	8.950640111950001
O	6.524131060143333	1.35736661455	10.42341203195
O	8.050428990143333	0.9476350565500001	6.96336501195
O	6.332630560143333	4.01988024355	5.6099487219499995
O	7.445014700143332	6.08595314355	8.52142211195
O	10.539311740143333	7.133410863550001	3.50839823195
O	9.625608840143332	9.73624567355	0.8892461419500002
O	6.0399504501433325	8.76195468355	0.3374916199500002
