32

O	27.2750417206031	-1.17040457698281	27.043002601688613
O	30.620678860876158	-0.2095958791203759	29.013727290467507
O	25.790379922508308	-0.5364101547510498	28.708191089380843
O	26.684600304670703	-0.17264554516590233	27.768433191012583
O	33.607969714518106	-5.037672515906837	21.10524153841157
O	27.543318527948337	0.8832056482963584	28.09719662618489
O	34.55963727697715	-3.394219991421877	20.345923679884823
O	28.899314685729596	0.8062788373259688	27.784643590881377
O	29.329335939793143	-0.4087397825190845	27.25882346821745
O	28.457628325676517	-0.9236960562687301	26.3562795229224
O	29.910018141396236	1.8190697344944342	28.34541892595852
O	30.346072892065113	1.0852092069213557	29.553971961610856
O	30.301488871901398	-1.1646324069149916	27.986500524040462
O	31.764965930964806	-0.08583226717223966	28.27675116741124
O	31.938081885878795	0.23204976527263346	26.87353258725325
O	33.23771119846597	0.5227200503847671	26.705744398348955
O	33.71829187239974	0.8649489425823496	28.03740090765758
O	33.91640638391636	-0.6066834302308577	27.977234844271972
O	32.71133474566617	-1.2156676932798285	28.413185080738995
O	34.01958275988021	1.9592040572574696	28.936204670440084
O	32.97204479824999	3.0697016712295313	28.810131828849265
O	33.53955810541346	1.4595089896080196	30.324041168532908
O	31.175652594300242	-1.6572835516991615	26.842275859226678
O	31.078753405265548	-1.3770472013280841	25.519859566022834
O	31.93514376841609	-1.6547477478965646	24.45249123005401
O	33.2849929715484	-1.8148491353356526	24.93598642496152
O	33.03966355039554	-2.9235477228572635	25.823246854967717
O	32.05982453372002	-2.713235182971852	26.802644375812562
O	30.11726812375927	-2.42629548796627	28.76513074437919
O	33.88989760078977	-2.6489353659552504	23.714103911689715
O	33.35894403998503	-3.2460293133027007	22.65187387800666
O	34.01219252440264	-3.9030273055700766	21.539627528231343
