98

O	2.3411482044545444	-1.787716091995454	-0.924402924354546
O	3.566268054454545	-2.172512461995454	-0.507023325354546
O	4.301254674454545	-1.288858701995454	0.23043880564545405
O	4.790796774454544	-1.7334565219954543	1.4210473456454542
O	4.207212334454544	-0.04456233199545423	-0.39435771435454603
O	3.0215655044545446	0.4303359380045457	-0.866065733354546
O	2.718870024454545	1.7973355480045456	-1.140986190354546
O	1.4469861744545447	2.3450185080045456	-1.543992060654546
O	0.6696198544545446	1.2119267720045457	-1.520325931254546
O	0.7525662244545448	0.023009088004545708	-0.852442564354546
O	2.061504094454545	-0.4721534719954543	-0.780076454354546
O	-0.0458126545454553	-1.168153761995454	-0.880343093354546
O	-1.2352467885454552	-1.077033301995454	-1.6666831803545459
O	-1.4634792435454553	0.37475002200454577	-1.960965605354546
O	-0.5853726638454553	1.4909920160045458	-1.714951790354546
O	-0.9656677025454553	2.6421330080045458	-2.454022766354546
O	-2.011547035545455	2.119432510004546	-3.286266384354546
O	-1.9066369755454553	0.6706813070045458	-3.260729704354546
O	-3.0111296755454555	0.1323606680045457	-3.7160831643545458
O	-2.5844665855454556	0.9134455400045458	-1.670634433354546
O	-0.6578555165454553	-0.12672154199545416	-2.7898646443545463
O	0.38518696545454467	-0.7257525019954543	-3.246997054354546
O	0.7261292844545446	0.00386275800454583	-4.320635374354546
O	-0.6271373458454553	0.20918829000454575	-4.920470234354546
O	-0.8693097495454553	1.0521968930045458	-5.908637434354546
O	-0.2138923585454553	2.198857128004546	-5.600450014354546
O	0.9379992744545447	2.3179102480045457	-4.904324704354546
O	1.2292052944545446	1.1989145811885458	-4.182415574354546
O	2.6615527744545444	0.9846916740045457	-4.197552554354546
O	2.851294054454545	0.7120643470045458	-5.5088534043545465
O	2.8988647744545446	-0.09497916199545431	-3.563173424354546
O	3.132700464454545	2.1950557790045457	-4.039973384354546
O	8.379477494454546	-11.285113321995453	2.348394715645454
O	5.4273483144545445	-11.468422621995455	-0.009561004354545988
O	-3.7687080655454555	-8.567310981995455	-3.937737974354546
O	-2.542922685545455	-5.7047938019954545	-6.135191174354546
O	-0.1435997965454553	-8.034194591995455	-7.894832394354546
O	1.0278877144545446	-9.149893921995453	-4.472427184354546
O	1.3984525544545447	-5.499666821995454	-3.2933996443545457
O	2.866502994454545	-4.305410811995454	-6.5361004243545455
O	5.391989134454544	-7.064040661995453	-6.647356754354545
O	6.4160435844545445	-6.508964741995454	-3.0381170743545463
O	6.827757324454544	-2.7506617619954543	-3.780777014354546
O	9.013066864454546	-3.3074668319954545	-6.754120224354546
O	11.431322204454545	-5.464737051995455	-4.724438734354546
O	11.670640704454545	-2.8839287319954545	-1.942114740354546
O	12.686987504454546	-0.2846897019954542	-4.4902149543545455
O	9.881783504454546	6.698039548004545	-3.2789873243545458
O	6.135209604454545	6.2096952980045454	-2.474758814354546
O	6.432536484454545	8.468725488004546	0.6890755356454541
O	9.487067404454546	6.3904163080045455	1.8006874356454539
O	7.667001824454544	3.1092175980045456	1.1990867356454542
O	4.640357884454544	4.423818408004546	3.0866796256454543
O	6.489778094454545	5.6793303380045455	6.1718269956454535
O	8.184137424454546	2.2913690680045455	6.419134255645455
O	4.779838064454545	0.43246682700454575	6.152936835645454
O	3.274776334454545	2.647598278004546	8.897200775645453
O	2.297739304454545	-1.7267943919954543	11.324540775645454
O	-3.850109215545455	-3.792766861995454	10.321483675645453
O	-1.1544405005454554	-2.9206998519954546	7.866428515645454
O	1.9406669044545446	-5.141631891995454	7.909059325645453
O	2.9218847944545443	-5.120436741995454	4.259495175645455
O	5.154260514454545	-8.129220021995454	5.009883715645454
O	3.367722714454545	-12.982184821995453	5.897722245645454
O	0.9607172644545448	-10.311124021995454	4.655590275645453
O	-0.9656581135454553	-8.526889131995453	7.366257575645454
O	-4.030649145545455	-6.792028051995454	5.9741491656454535
O	-8.587947595545455	-3.339574341995454	1.308859135645454
O	-12.057366095545454	-3.0328996819954543	-0.0618090343545461
O	-11.168953595545455	-5.832934811995454	-2.4287280063545458
O	-9.523960695545455	-3.3273559919954545	-4.808817994354547
O	-11.376655695545455	-0.31330148199545427	-6.167191734354546
O	-10.437279245545454	2.814584818004546	-4.239586234354546
O	-7.779382895545456	1.2140863868045457	-2.059278971354546
O	-9.659940635545455	1.2488388759045457	1.4069015156454538
O	-9.302355755545454	5.0269257880045455	1.2544089256454538
O	-5.453671855545456	4.658077158004546	1.155435985645454
O	-5.729359885545455	1.9867570990045458	3.9300687656454536
O	-7.720727225545455	4.247089398004546	6.123365205645454
O	-5.095126975545456	7.008234228004546	5.845988715645454
O	-2.1249172955454556	4.657940858004546	6.393423135645454
O	-3.805013785545455	2.994900868004546	9.409916475645453
O	-4.561408435545456	6.384912598004545	10.921587175645454
O	0.14593971145454476	4.231421998004546	12.154034675645454
O	-2.2142783355454556	5.047345648004546	15.017638575645453
O	-1.0798909875454554	9.695345808004546	1.064250415645454
O	1.6655318244545445	9.318670308004545	-1.493113261954546
O	-0.01191818654545529	11.813639278004544	-3.808864764354546
O	-3.295546115545455	10.125072448004545	-3.368852894354546
O	-1.4173234085454554	6.723912318004546	-3.826821964354546
O	-0.07275064654545527	7.9483442380045455	-7.089022634354546
O	-3.475870005545455	9.104818528004547	-8.172036464354546
O	-4.9097425555454555	5.657262548004546	-7.3805931243545455
O	-2.1422530655454555	3.882724768004546	-9.010852714354545
O	-2.4062842655454553	5.998722408004546	-12.177900324354546
O	-4.445768155545455	0.32289062300454574	-12.730656124354546
O	-2.2874111455454553	-2.665109231995454	-13.781203924354546
O	0.6347660144545446	-2.2289484619954543	-11.320046454354546
