21

O	24.851322609981672	-1.9163926029057001	26.999738049271617
O	26.235125627080976	-2.0315815105816015	26.9781793503558
O	26.987369958559697	-2.86620145801758	27.749115249721537
O	28.03781460730822	-2.3546804376206234	28.51712244026588
O	27.199278137049635	-1.6452383806241513	26.10739446027478
O	28.131585975024237	-0.7707311938460901	26.717664263073303
O	28.528499018747187	-1.1949415596597486	27.988792186047597
O	29.951628089699945	-0.9281122049413271	28.449791648918534
O	30.45657762112365	-1.5218190971648715	27.30536317796944
O	31.689755930255785	-2.2279238756177406	27.621163013429076
O	32.990869377728885	-1.6559307600222577	27.5387425784642
O	33.27613584313071	-1.0915883366378756	26.32102322749504
O	34.52342859762929	-0.21969844939548588	26.45821130290191
O	32.210411998918076	-0.32804100786806645	25.872770751843024
O	30.880641857657327	-0.6917311726776271	26.211812473973296
O	30.11041301168245	0.4889427007482898	28.480548569677328
O	29.786222097312972	1.2454249442800802	29.715891118664484
O	30.723844505693858	2.4093387995042717	30.092025361990636
O	32.12259592450995	1.9652791447664164	30.393943366472236
O	32.45183862069103	1.04849523463436	29.28474496087767
O	31.604178977858773	0.9607670902031076	28.284439853658164
