93

O	1.2539265102459023	2.647905988590164	1.8791339603229507
O	-0.18034998475409747	2.5732001685901644	1.2283528303229507
O	-1.2148463217540975	3.4379009685901645	1.8224129803229505
O	-2.1911991197540974	2.8418642285901643	2.5713527603229505
O	-2.6971291897540977	1.9067902285901643	1.7348745903229508
O	-1.8489129757540974	1.2047605095901643	0.8087642003229507
O	-0.3980385527540975	1.2392818955901643	1.0108355303229506
O	0.40631627024590256	0.33046932159016434	0.2951989953229507
O	0.016713603245902542	-0.9678158914098358	0.4311668533229507
O	0.7921461702459024	-1.9090824614098358	-0.25987847957704935
O	0.1844402702459026	-2.8702691114098355	-0.8010740736770494
O	0.9928669102459026	-3.5176719014098357	-1.8350595796770492
O	1.7312804502459023	-2.945774681409836	-2.8238048696770495
O	2.4483546602459025	-1.9755011514098357	-2.1880871596770493
O	1.8888392502459026	-1.5824051014098357	-0.9779721036770493
O	2.3875704902459023	-0.6781027114098357	-0.18883562567704934
O	1.5359171102459022	0.3650643824901643	-0.5435685856770494
O	2.363479090245902	1.1902984495901643	-0.00010188367704933032
O	1.6157588802459024	-2.542815081409836	-4.18994771967705
O	-1.0124568567540975	-1.1368883614098357	1.3114339403229507
O	-0.6261293747540975	-0.4959334574098357	2.623939650322951
O	0.5741450702459024	-0.4230108064098356	3.2486732203229503
O	0.7595355902459026	-1.2927023114098357	4.352982560322951
O	-0.3435333237540975	-2.0067014714098357	4.89554623032295
O	-1.4415260067540974	-1.938596561409836	4.161141660322951
O	-1.6724715567540975	-0.6982539314098357	3.529041840322951
O	0.04232545024590251	-3.4409071814098358	5.192283280322951
O	0.040080582245902496	-4.684689131409836	4.767768220322951
O	-0.2550550587540975	-5.8742431714098355	5.576675440322951
O	0.5113367502459024	-6.861096581409836	5.357096260322951
O	-1.4187313597540974	-6.420063071409836	6.054784220322951
O	-2.9643114297540976	3.3223421585901645	3.555146320322951
O	12.206880160245902	-3.9573824814098355	-5.064708659677049
O	12.062556760245903	-2.5901359214098356	-1.5529225396770494
O	10.679809060245901	2.2617783985901645	9.23243450032295
O	8.558272200245902	3.309242118590164	6.263767320322951
O	5.6973535902459025	1.1153419165901644	7.375409190322951
O	8.057184740245901	-1.8077395914098355	7.856346570322951
O	9.452501360245902	-1.1070536414098358	4.395304390322951
O	5.927007460245902	-0.9165553414098357	2.9001830503229504
O	4.601664200245903	-3.7859965114098353	4.921123240322951
O	7.501647200245903	-6.011953371409835	3.866209450322951
O	7.026235980245903	-4.997521291409836	0.2151860773229507
O	3.3434438602459022	-5.750700461409836	0.3429128473229507
O	3.970878310245902	-9.199261771409835	1.7633421903229507
O	6.230086860245903	-10.206313051409836	-0.9859388286770493
O	3.7887393902459023	-9.029512921409836	-3.649888639677049
O	1.1042050202459026	-11.201895851409835	-2.1341940996770496
O	2.8687158102459023	-14.404786951409836	-3.1852284796770496
O	-0.4897481977540975	-12.059834351409835	-6.696308789677049
O	-9.690711639754099	-8.087591061409835	-3.302680129677049
O	-5.984564889754097	-8.294960321409835	-2.413955749677049
O	-5.662359359754097	-4.649618491409836	-1.2172761836770494
O	-7.666207569754097	-3.241203011409836	-4.1922309196770495
O	-5.319412079754097	-5.310414991409836	-6.471832979677049
O	-2.1741184097540973	-4.017336211409836	-4.8521777496770495
O	-3.4920118597540974	-0.4211497124098356	-4.842269769677049
O	-4.523742719754098	-0.5142951864098357	-8.56000945967705
O	-1.0502344797540974	-1.8352064114098359	-9.36046546967705
O	0.6021385602459025	0.9759221685901642	-7.358905979677049
O	-1.5194497487540977	3.622376538590164	-9.09603331967705
O	2.9225915502459023	5.7153332785901645	-10.45637856967705
O	3.732400660245902	6.913592948590164	-5.635181359677049
O	6.0917723102459025	4.293673798590165	-7.079162099677049
O	5.8860263802459025	1.5557553785901643	-4.489977869677049
O	9.005447770245903	0.08738048759016431	-5.936128309677049
O	13.796981460245902	2.1382603085901644	-5.488272519677049
O	10.974748660245902	3.5537464585901644	-3.4062432296770497
O	3.0132938902459023	7.838005188590165	9.50479385032295
O	-3.1307583897540976	9.005366328590164	9.11717006032295
O	-1.2710066717540975	7.844279448590164	6.004645570322951
O	-1.1500353847540974	11.034711948590164	3.898014180322951
O	-4.916090999754097	10.699186648590164	3.6272687003229507
O	-4.553659899754098	7.421489288590164	1.8219209803229506
O	-1.6107620407540975	8.870619988590164	-0.23932364737704936
O	-3.775100059754098	11.682550948590164	-1.3266581996770495
O	-6.440011819754097	9.286847528590163	-2.6240602896770495
O	-3.9297451697540975	7.045143408590164	-4.395775869677049
O	-2.1703296697540977	10.012133308590164	-6.042602849677049
O	-3.0492965797540976	7.9831735085901645	-10.53256006967705
O	-10.270652719754098	-10.066788951409835	-8.48948349967705
O	-9.254834719754099	3.3697095285901644	-0.7336101646770494
O	-8.864280919754098	-0.2902759704098357	0.10970308232295067
O	-11.588438239754097	0.00394932559016431	2.7642116603229505
O	-10.021286419754098	3.0807421485901645	4.199551190322951
O	-6.712505219754097	1.3079252365901644	3.9314643203229505
O	-7.950299349754097	-1.6580689914098357	5.935604850322951
O	-9.274777309754098	0.7636084475901643	8.51391065032295
O	-5.835487979754097	2.4184174985901645	8.78869615032295
O	-4.008896859754097	-0.8017838014098357	8.90600713032295
O	-6.294782479754097	-2.1444481814098357	11.60746163032295
O	2.2441256202459026	-2.7780790914098357	13.70666473032295
O	2.2988910302459025	-4.072399631409835	10.24313873032295
