23

O	33.95583191935987	-1.0615438003550266	23.978203705441057
O	32.72651730312926	-1.5962941906625567	24.412351800706205
O	31.68438924412587	-0.7242927756688097	24.493092571890983
O	30.990526972347144	-0.620014685326517	25.711422195190135
O	30.94140811721941	-1.5260485014697949	26.68940288853956
O	30.980594448524577	-1.5122124740336895	28.174944165038678
O	29.444167123215294	-1.4409077066475677	28.334193073847775
O	28.721748806385428	-0.28508540628805973	27.993685880542248
O	28.419470998501875	-0.2245001174414747	26.6271521890721
O	28.12586668792805	-1.3030099039611036	25.87727818904923
O	28.488057573484674	-1.2111845403768635	24.528456731442333
O	28.650493753365353	-2.4135681212138245	26.385397159929585
O	28.80867376947941	-2.506400857829382	27.77108913177108
O	31.29835029706467	-0.3320857054804	28.707377743979304
O	32.55628988068402	-1.0247265068269202	28.15669649891224
O	33.29718606917022	-0.21696461140186019	27.356752669527797
O	33.15319123249147	1.2544374439121944	27.812983095486466
O	33.039723851356904	1.1430932830903902	29.302434594251295
O	33.928652131397286	0.008507807573873871	29.788018432429993
O	31.855423962742258	1.1651468237037008	27.081695343238746
O	30.85336487159049	0.5175351924290654	27.675072452298433
O	31.385908952584266	-2.625005413210637	26.16991200524836
O	32.585429317066655	-2.5874061404808315	25.344106111457364
