84

O	-0.748107899379688	-0.7482363124531249	-2.7918845124843754
O	-2.1397898763796883	-0.9435922024531248	-2.9003819824843755
O	-2.502953176379688	-1.9369061624531252	-1.9682484154843753
O	-3.385675416379688	-2.847502352453125	-2.4844653324843753
O	-2.252247526379688	-1.501440362453125	-0.6584746034843754
O	-1.151415896379688	-0.6862309724531249	-0.4210185594843754
O	-0.583451137379688	-0.34096373245312483	0.8748803675156245
O	-0.35436633937968803	1.1209461715468751	0.9557311375156246
O	-0.16148378037968802	1.605580097546875	-0.4459045584843755
O	0.5953517236203121	0.6852168475468751	-1.3535042284843755
O	-0.318666634379688	-0.4596314424531248	-1.5171821964843755
O	0.6358387536203121	1.3856732105468752	-2.7116728924843754
O	1.752475093620312	2.360798887546875	-2.6314412124843756
O	1.3721057736203122	3.316883027546875	-1.5499552534843755
O	0.642570163620312	2.8048359675468753	-0.3991841904843755
O	1.5444732636203118	2.734264037546875	0.7202030975156246
O	2.464871793620312	3.860309197546875	0.4635625875156246
O	2.443245793620312	4.1682693075468755	-0.9976918812843755
O	2.407547403620312	5.490868027546876	-1.3522552804843755
O	0.3970108836203119	4.260695347546875	-2.1750435324843753
O	-1.3179481093796879	-8.834966302453125	-10.596229422484374
O	1.6084067836203118	-6.468853202453125	-10.573161482484377
O	8.869835863620313	-0.3032058024531249	-6.3586670724843755
O	6.771273773620312	2.8341638975468753	-5.944388822484376
O	5.8733371436203115	2.799456557546875	-9.605050202484374
O	4.993329013620311	-0.8828981924531248	-9.250701952484377
O	2.844037893620312	-0.17780645245312499	-6.150465102484375
O	1.358164873620312	2.998617197546875	-7.665871532484376
O	0.3688811836203121	1.294052502546875	-10.799376052484376
O	-1.179756932379688	-1.5943081324531252	-8.900102022484376
O	-3.156152646379688	0.8324942195468751	-6.669699192484376
O	-4.516091066379688	2.750536827546875	-9.587921782484376
O	-5.912913976379688	-0.4005277624531248	-11.250286082484376
O	-7.557378176379688	-1.504372412453125	-7.996474642484375
O	-9.393663826379688	1.7814885945468752	-7.8366703924843755
O	-12.567193746379688	-2.324490762453125	-9.289544612484374
O	-13.230361446379687	-0.590547162453125	-5.968918182484376
O	-12.111696546379688	5.905097487546875	2.2675425375156246
O	-10.217798346379688	4.628080187546876	-0.7957769434843754
O	-6.792781006379688	4.257480627546875	0.8936590775156246
O	-8.320844616379688	2.590878977546875	4.021448467515625
O	-10.192282506379687	0.1913037225468751	1.6911783675156244
O	-7.077542026379689	-0.6555201824531248	-0.22900080748437546
O	-5.165803386379688	-1.163556152453125	3.052374467515625
O	-7.7034949563796875	-3.424799542453125	4.712740567515625
O	-7.669436026379689	-5.530077042453125	1.5524405975156244
O	-3.833624456379688	-5.780702252453125	1.5739907175156245
O	-3.823793396379688	-6.807261092453125	5.255972857515625
O	-1.282625014379688	-10.930547862453125	3.662352847515624
O	2.735560693620312	-8.062816862453124	2.5812952375156244
O	0.9992581036203119	-9.640906562453125	-0.4119846624843755
O	0.5271265436203121	-6.654448472453125	-2.6554972224843754
O	-0.17115041337968806	-9.067066662453124	-5.498251912484376
O	3.4961998636203115	-11.974294762453125	-7.8691383424843755
O	4.568990743620311	-9.266260662453124	-5.441743512484376
O	5.1700996036203115	-10.468113762453125	-1.9015049754843756
O	10.089001053620313	-1.473326592453125	2.1787334875156246
O	14.008397253620313	0.7599525755468751	-0.3315949104843754
O	11.832218653620313	3.853614137546875	-0.3448290034843754
O	9.875843353620313	6.537157777546875	5.047240117515624
O	8.006171593620312	3.475020827546875	3.753325997515624
O	9.078778583620313	0.7423198375468751	6.179037607515625
O	7.1768013936203126	2.675422867546875	8.854313277515626
O	3.9399702836203123	2.096535637546875	6.9565320475156245
O	4.953157263620312	-1.521571672453125	6.176472307515625
O	5.492797733620312	-2.095157702453125	9.860335017515624
O	1.9582761436203118	-0.8745621024531248	10.656969617515625
O	0.3448855236203119	-2.911170072453125	7.877440207515625
O	2.232549293620312	-6.070515922453125	8.887126727515625
O	1.2277463136203122	-5.621599522453125	12.521453817515624
O	-2.141425346379688	-8.436553352453124	9.490040517515624
O	-0.7061744020796881	-10.130006062453125	12.560265317515626
O	-2.368509266379688	4.001709877546875	8.640408887515626
O	-4.372468786379688	5.619688707546875	5.841384307515624
O	-3.688586606379688	9.091940017546875	7.241564627515625
O	-0.04170637037968805	8.369151877546875	7.678947157515625
O	-0.12124819237968798	6.869108707546875	4.204858147515624
O	-1.589425498379688	10.026902047546875	2.6468875875156246
O	1.073625643620312	12.001226837546875	4.441595477515625
O	3.813281223620312	9.847163807546876	2.9176901775156248
O	2.196850243620312	9.872044507546875	-0.5319611584843754
O	1.896823083620312	13.661518137546876	-0.41250441948437544
O	5.9521207936203115	10.794512377546875	-7.613133962484375
O	2.890079583620312	8.484169697546875	-7.3971677924843755
