81

O	0.4926482631904763	3.808162111333333	-2.4692123129142862
O	-0.20028791580952388	6.1325773613333325	-2.1262440829142863
O	0.18920524319047627	4.868618461333333	-1.6600898829142863
O	3.1779583231904764	3.7798927713333326	1.9660050270857137
O	-0.6404978428095238	4.424562301333332	-0.6310587469142865
O	-1.091918255809524	3.019739161333333	-0.7246058059142865
O	0.04920711219047613	2.3836055433333327	-0.5399276449142865
O	0.3165389331904762	2.463561011333333	-2.0203945129142866
O	-0.24939664880952384	0.9581243233333328	-0.08245888191428646
O	0.6448014131904762	0.41282195133333266	0.9319935370857134
O	1.446834233190476	1.6061852783333328	1.2604229970857137
O	1.9991625931904762	2.491761821333333	0.2652867640857135
O	2.051052393190476	1.4755071224333327	-0.8215453369142864
O	0.8517952031904761	0.33538850133333264	-0.8312325299142864
O	0.06250676719047621	2.3162310343333328	1.7531164170857134
O	1.136315913190476	3.035103861333333	2.520734517085714
O	1.946253083190476	3.516528711333333	1.3133210470857137
O	2.871903763190476	3.4291327613333324	-0.3286303429142865
O	4.6441268531904765	-6.388353728666668	-11.415547002914286
O	6.993932303190476	-4.3403074486666675	-9.284377062914286
O	13.559564203190476	2.0592596043333327	-1.6316129529142867
O	10.528770303190477	0.10205866133333275	-0.5262096915142864
O	8.413726463190477	3.2615512913333324	-0.6121368029142865
O	9.661130303190477	4.103006571333332	-4.084687622914287
O	8.895180673190476	0.5206194003333326	-5.118476082914287
O	5.402540613190476	0.7424809503333327	-3.6411540529142865
O	4.836711023190476	4.290941601333333	-4.955819652914287
O	5.736108353190477	3.3646538613333328	-8.387211332914287
O	3.5329526631904766	0.2636880913333326	-8.342559822914286
O	0.5327839631904763	2.222310840333333	-7.173559922914287
O	0.8919066531904762	4.954100501333333	-9.695134502914286
O	0.7685288131904762	2.374257842333333	-12.516446302914286
O	-2.341180746809524	0.7189735123333327	-11.066988502914286
O	-4.112839896809524	4.049089931333333	-11.076176602914286
O	-8.222076966809524	1.6591614123333327	-12.185720202914286
O	-12.156675696809524	6.021612751333333	-3.4341107129142863
O	-8.799521676809524	5.318582001333333	-5.180985032914287
O	-7.0123742268095235	4.2907333613333325	-2.0193946729142866
O	-9.783216306809523	2.0751588823333327	-0.7024749829142864
O	-9.853922596809523	0.45407706733333275	-4.190393912914287
O	-6.0851164968095235	-0.17958332866666726	-4.222857142914287
O	-6.299124146809524	-1.569228578666667	-0.7048561349142866
O	-9.220856926809523	-3.912059948666667	-1.2382834039142865
O	-7.379408796809524	-5.258510348666667	-4.269838772914286
O	-4.187339976809524	-5.816330348666668	-2.2117068129142865
O	-6.130102726809524	-7.630782548666667	0.5278545310857136
O	-2.9718866768095236	-11.539493668666667	-0.3382338947142865
O	0.8362797631904761	-8.864933868666666	1.6163663570857136
O	1.0800416831904762	-9.545511368666666	-2.1222640529142867
O	1.7387481631904762	-6.041485198666668	-3.473086192914286
O	2.824659893190476	-7.735732108666668	-6.695431672914287
O	7.311554743190477	-10.426146268666667	-7.3312074529142865
O	6.780634783190476	-8.415152628666666	-4.172059052914286
O	5.4176014731904765	-10.409470868666666	-1.2690003749142864
O	6.959954983190476	-3.0552382586666678	6.839776877085713
O	11.494815403190476	-0.6387951986666673	7.389029227085713
O	9.516666003190476	2.5570551913333324	6.911210787085714
O	4.8009102631904765	4.184764481333333	10.789790797085715
O	4.096417643190477	1.6218815853333326	8.080997177085713
O	3.798625113190476	-1.6489039286666671	10.014497497085713
O	0.6546239631904762	-0.16946055866666732	11.577451997085713
O	-1.0018276478095238	-0.0525843286666674	8.190733607085715
O	0.4409436731904761	-3.5324999186666677	7.324563327085714
O	-1.105080226809524	-4.920528338666667	10.441402497085715
O	-4.548481526809524	-3.590544838666667	9.433085537085715
O	-4.292415786809523	-4.819301208666667	5.835807477085713
O	-3.1180313668095234	-8.287413838666666	6.935176407085713
O	-5.964639396809524	-8.544145898666667	9.419063157085715
O	-6.984421716809524	-10.314672268666667	4.4849097270857134
O	-7.265841246809524	1.9677517133333327	6.567223057085713
O	-7.597922036809524	4.328225461333333	3.632231837085714
O	-7.909365576809524	7.350171561333332	5.922806247085713
O	-5.036085216809524	6.240308951333333	8.059971527085715
O	-3.1651429668095235	5.5638429113333325	4.857264317085713
O	-3.6892322368095236	9.090320131333334	3.5301084470857136
O	-2.5068422468095237	10.386338541333334	6.857949887085713
O	0.7186642331904762	8.377840661333332	6.560873377085713
O	1.240952173190476	9.322360871333332	2.9096547570857134
O	0.7400884931904761	12.966711231333333	3.712076537085714
O	8.215260463190477	11.432761631333333	-0.5530788079142865
O	5.675566963190477	9.410517781333333	-2.5787957729142863
