95

O	-1.8759907481803277	0.17949553821311381	1.7329479822622957
O	-3.264106308180328	0.12337558821311378	1.6776451822622955
O	-3.849823288180328	-1.0830121017868861	1.7640205922622956
O	-4.9581450181803275	-1.4388399917868862	2.4966874722622956
O	-3.186848818180328	-2.007477111786886	1.0102705522622957
O	-1.9691727181803278	-1.735491121786886	0.4003151102622956
O	-1.1466859121803277	-2.209232691786886	-1.0538007887377043
O	0.32698595181967227	-1.4572970817868862	-0.7069454907377044
O	1.5944934618196722	-1.4880641617868862	-1.4901635777377045
O	1.5856742718196721	-0.7064813717868863	-2.6004270077377045
O	2.4788798418196722	0.3573211782131138	-2.3800746477377044
O	3.7632634918196723	-0.059141451786886234	-2.177092407737704
O	4.894414721819672	0.009515948213113745	-2.9535529177377042
O	3.7172247318196723	-0.8878324017868859	-1.1015036137377043
O	2.798836501819672	-1.955422471786886	-1.1310051387377045
O	-1.2414831511803277	-0.6080320717868863	0.8121858422622956
O	0.05365486581967227	-0.839791171786886	0.5093332222622956
O	1.2689241718196724	-0.2561806117868861	1.1240403622622956
O	2.066479371819672	-1.135448001786886	1.4768327722622956
O	1.4536350318196725	1.154357718213114	0.9825177722622955
O	0.31285603181967225	1.838478850213114	1.2368148022622956
O	0.18865376681967228	3.066514388213114	1.8841385122622958
O	1.3058384918196722	3.858235798213114	1.6291752522622955
O	2.4379883418196724	3.142377508213114	1.8288552122622956
O	2.5625000218196723	1.8108977232131138	1.3876152222622955
O	1.0862071018196724	5.190856588213114	1.6759719122622956
O	1.3967286018196723	6.088585898213115	2.6490395822622954
O	1.3724394618196722	7.421804338213114	1.9559828022622958
O	0.07441891681967228	7.923795888213114	2.2789463622622956
O	0.2792226518196723	8.596684398213114	3.5152873522622956
O	-0.5722651861803277	9.801771898213113	3.5605345422622956
O	-1.8528831581803278	9.506668248213114	2.8470026422622956
O	-1.5532952051803277	9.536297858213114	1.3965498022622955
O	-0.3465558791803277	8.684770448213113	1.1782573822622957
O	-6.171665798180328	-3.5212538917868863	11.916703002262295
O	-2.460122938180328	-2.864453141786886	11.849688102262295
O	9.237967151819673	-1.0692366417868864	10.780176702262295
O	7.217959921819673	-2.8410677417868864	8.084116912262296
O	7.005346671819672	0.3834615182131138	6.076465472262296
O	5.878960031819672	2.317821102213114	9.081958412262296
O	3.334004541819672	-0.415676311786886	9.751835502262296
O	2.092439361819672	-0.3021955317868861	6.154714792262296
O	2.254165621819672	3.4288134382131137	5.861717992262296
O	0.3002989618196723	3.880040808213114	9.080595892262295
O	-2.312248288180328	1.4373841382131138	7.917625212262295
O	-2.6822748381803274	3.275718348213114	4.599297342262296
O	-3.2450103181803276	6.487601518213113	6.335596022262296
O	-6.057984578180328	5.324079208213114	8.376074872262297
O	-7.8459894981803275	3.767815888213114	5.410095182262296
O	-7.720150298180328	7.066319838213113	3.5998787822622957
O	-10.283012518180328	8.578361368213114	6.004238122262295
O	-12.070563648180327	5.9772663682131135	1.6609425822622956
O	-5.645128998180327	10.345382838213114	-8.847236447737703
O	-7.272166678180327	7.135457388213114	-7.689537687737705
O	-6.508508608180327	6.667562858213113	-3.9510623377377043
O	-3.624943628180328	4.287664408213114	-4.458790957737705
O	-5.447118678180328	2.136625981213114	-7.054689237737704
O	-8.432565878180327	2.0397012012131137	-4.640045067737704
O	-6.299256018180328	0.9096603702131139	-1.7520993377377043
O	-4.612211948180327	-1.7072735417868863	-3.9466014177377042
O	-7.852726798180328	-3.1644804717868857	-5.418247537737704
O	-9.096631218180327	-3.4763709217868866	-1.8540157777377044
O	-5.928997798180328	-5.267027241786886	-0.7094657637377044
O	-6.113457568180328	-7.702608971786887	-3.6880848677377043
O	-6.016535548180328	-11.383009641786886	-0.1841340577377044
O	-1.2451768261803278	-10.307270941786886	0.9226228122622957
O	-3.7270991281803276	-9.481708841786887	3.6480254422622957
O	-2.858360148180328	-5.903459761786886	4.507152602262296
O	-4.903280858180327	-6.369621771786887	7.694931422262296
O	-3.390782278180328	-9.234380041786887	11.844380202262297
O	-0.9196793851803278	-8.579829541786886	9.040933342262296
O	12.204196451819673	-3.3806745817868857	1.9722814122622956
O	14.230261851819673	-2.3199479317868863	-1.0642891597377044
O	12.272033251819673	-2.717363201786886	-4.313138787737705
O	9.085925161819672	-3.8600546317868862	-2.6337222777377045
O	8.356371531819672	-6.353950221786887	-7.210084547737704
O	5.109677481819673	-4.5547925517868855	-6.088397167737704
O	4.138355871819672	-7.534622391786886	-3.9335842377377044
O	2.2249898018196723	-7.724086101786886	-9.024126717737705
O	-0.4004436201803277	-7.495757331786887	-6.289080587737704
O	-5.126033748180328	-11.537834941786887	-6.496255817737705
O	-12.750460748180327	6.365349838213113	-8.422786437737706
O	0.7373748818196724	-1.1450978217868863	-10.062318817737705
O	-0.4050321921803277	2.194538778213114	-8.622092707737703
O	2.013355441819672	4.044774828213114	-10.899477497737703
O	4.846517681819672	1.7572386492131138	-10.048135617737703
O	3.755405171819672	2.1435264642131138	-6.480173447737704
O	3.9321660418196727	5.958258478213114	-6.542357777737704
O	7.365040481819673	5.561657668213114	-8.034485997737704
O	8.486293171819673	3.309383168213114	-5.166762307737704
O	6.921784491819673	5.515319828213114	-2.5475226277377043
O	8.507503331819672	8.582937538213114	-3.9910646677377044
O	11.174786051819673	6.609253058213113	1.0000378922622957
O	10.219359751819672	7.696644098213113	4.524309802262295
O	6.523080851819672	7.029485678213113	4.367471872262295
