22

O	25.588093938589065	-1.76039855883319	26.80810250340999
O	26.992119262437463	-1.5824608494091825	26.774138401883082
O	27.950302714029164	-2.489186757603746	26.679854913308407
O	28.736040543570443	-2.6984923118326973	27.854811305008436
O	29.21422359759895	-1.5681109714543875	28.538445932019638
O	30.74206651656693	-1.1726654776729117	28.52938335716658
O	30.516975222499052	-1.2129954439566244	27.13085830812013
O	30.619662304181837	-2.414519083737053	26.561944987149808
O	31.697131071354725	-2.3074825656978986	25.582207354052983
O	31.641963024781163	-1.3049807576730277	24.69786276841982
O	31.581865707439103	-1.3003599966284207	23.335897372124954
O	30.826925027145585	-0.2789444968862851	25.164226835133665
O	29.85466533412366	-0.47483176418271766	26.208604471615768
O	30.569102895554455	0.12366608644840532	28.66669303608305
O	30.25879259066003	1.2070301277324016	27.756727804333007
O	31.586115986163016	2.088817460203299	28.007569413338498
O	32.641631227451995	1.4473781085684954	28.831783921865803
O	32.079146434862935	1.2956282811468458	30.245632863468934
O	30.699875610740353	1.8337477010452334	30.187690918220067
O	29.60900362596171	0.8029733003960149	29.570630246273062
O	28.15191023257307	-0.7410297596594237	28.735495803324223
O	27.436510626667378	-0.5860665405998625	27.53837068785547
