48

O	31.849158730158727	0.014539682539682687	30.774031746031746
O	31.849158730158727	0.014539682539682687	30.774031746031746
O	31.849158730158727	0.014539682539682687	30.774031746031746
O	31.849158730158727	0.014539682539682687	30.774031746031746
O	31.849158730158727	0.014539682539682687	30.774031746031746
O	31.849158730158727	0.014539682539682687	30.774031746031746
O	31.849158730158727	0.014539682539682687	30.774031746031746
O	31.849158730158727	0.014539682539682687	30.774031746031746
O	31.849158730158727	0.014539682539682687	30.774031746031746
O	31.849158730158727	0.014539682539682687	30.774031746031746
O	31.849158730158727	0.014539682539682687	30.774031746031746
O	31.849158730158727	0.014539682539682687	30.774031746031746
O	31.849158730158727	0.014539682539682687	30.774031746031746
O	31.849158730158727	0.014539682539682687	30.774031746031746
O	31.849158730158727	0.014539682539682687	30.774031746031746
O	31.849158730158727	0.014539682539682687	30.774031746031746
O	31.849158730158727	0.014539682539682687	30.774031746031746
O	31.849158730158727	0.014539682539682687	30.774031746031746
O	31.849158730158727	0.014539682539682687	30.774031746031746
O	31.849158730158727	0.014539682539682687	30.774031746031746
O	31.849158730158727	0.014539682539682687	30.774031746031746
O	31.849158730158727	0.014539682539682687	30.774031746031746
O	31.849158730158727	0.014539682539682687	30.774031746031746
O	31.849158730158727	0.014539682539682687	30.774031746031746
O	31.849158730158727	0.014539682539682687	30.774031746031746
O	31.849158730158727	0.014539682539682687	30.774031746031746
O	31.849158730158727	0.014539682539682687	30.774031746031746
O	31.849158730158727	0.014539682539682687	30.774031746031746
O	31.849158730158727	0.014539682539682687	30.774031746031746
O	31.849158730158727	0.014539682539682687	30.774031746031746
O	31.849158730158727	0.014539682539682687	30.774031746031746
O	31.849158730158727	0.014539682539682687	30.774031746031746
O	31.849158730158727	0.014539682539682687	30.774031746031746
O	31.849158730158727	0.014539682539682687	30.774031746031746
O	31.849158730158727	0.014539682539682687	30.774031746031746
O	31.849158730158727	0.014539682539682687	30.774031746031746
O	31.849158730158727	0.014539682539682687	30.774031746031746
O	31.849158730158727	0.014539682539682687	30.774031746031746
O	31.849158730158727	0.014539682539682687	30.774031746031746
O	31.849158730158727	0.014539682539682687	30.774031746031746
O	31.849158730158727	0.014539682539682687	30.774031746031746
O	31.849158730158727	0.014539682539682687	30.774031746031746
O	31.849158730158727	0.014539682539682687	30.774031746031746
O	31.849158730158727	0.014539682539682687	30.774031746031746
O	31.849158730158727	0.014539682539682687	30.774031746031746
O	31.849158730158727	0.014539682539682687	30.774031746031746
O	31.849158730158727	0.014539682539682687	30.774031746031746
O	31.849158730158727	0.014539682539682687	30.774031746031746
