18

O	33.08300717048798	-0.2380934460369694	24.124378985434397
O	34.841522292646495	-0.8725562243146552	26.65815900633278
O	31.131007263184543	1.4275904431274786	28.60156240123349
O	31.005954497655722	-0.12181743464110459	30.518563822361607
O	31.72834910374439	-0.11854476598847993	25.167496437708177
O	30.653895729065724	-0.9963691920248379	24.86761012798945
O	29.899775736254167	-1.2803541730847512	26.011330332351264
O	29.490517369041818	-0.44307019565992556	26.998827721363874
O	29.5557462454953	-0.8854457797726951	28.375916482135555
O	30.78616701631425	-1.7722209856384972	28.48397934847796
O	31.213671571803808	-2.402099415855526	27.35835440938119
O	32.43154038567733	-2.3705676239416866	26.75859055351079
O	33.31033814372492	-1.455844535955477	27.15590877598543
O	32.95942184802016	-0.697138157841942	28.186837681779597
O	31.789990344312674	-0.873607351183004	28.676714038993453
O	29.89216691030864	0.2157525214224169	29.164103516430178
O	30.28975187240538	0.6393546601460209	26.77199746671163
O	31.174436242784477	0.8644967747423411	25.820672264970568
