23

O	34.08911986491925	1.651514254365832	25.154669012192993
O	34.391256066489476	0.3993236231100742	25.656269292668114
O	34.22876426649321	0.3571017680610703	27.060833817908478
O	33.022304769539105	-0.3185855291879735	27.312688983179626
O	33.599297629466086	-0.4903844898460813	24.92289956775646
O	32.75284710684116	-1.4663926834660428	25.45374018907954
O	33.13757210918764	-1.679937704020856	26.79792566241143
O	31.80671828888604	-1.8152356656199302	27.401639404961102
O	30.84701464383644	-1.4015988771829588	26.39128988164551
O	29.501917300025003	-1.5368416096332012	26.729948100512228
O	29.10733096393888	-0.5049002643836656	27.561587045702673
O	29.655931926969348	0.7126156662631685	27.65973591850713
O	29.129009669694568	1.2587540057271558	28.806276589982634
O	30.80121250125192	1.0307164295682516	27.03046718714444
O	31.067866243561	-0.0019408903761308771	26.067140350165214
O	31.714729303061784	-2.176833798690292	28.578868150565736
O	31.92306541045466	-0.9859342836408325	29.25606521994201
O	33.22314372765336	-1.129257989362672	29.861342693271354
O	34.26256256193406	-2.104721411298726	29.377401093905284
O	33.87619028995513	0.015251504964048257	30.359813435555274
O	33.190305234273715	1.239680418707759	30.30697207428852
O	31.809756027115867	1.045905850233479	30.43015779018098
O	31.2258910520148	-0.21449953007384004	30.142132845607733
