34

O	27.607259755894297	-1.3185665541884242	27.128404233599312
O	27.128986475332148	-1.7979923096412955	25.91980703082907
O	33.844548075977855	-2.404499500888585	29.10412704381272
O	28.390698130790106	-2.242962015703022	27.71314154715569
O	31.40464945789169	-2.1869818261129845	22.84490784240326
O	32.923333669007775	1.0764058592186672	28.43544897019654
O	29.182955491858113	-1.8059565768327017	28.787962595442494
O	34.5844146060073	-2.8898701793725476	27.670638470136897
O	29.832731015206573	-0.6157055216545329	28.484734706613327
O	35.23421056073926	-1.1579427111247438	29.93361638624431
O	29.450455514099865	0.13580982140597092	27.37112436034717
O	34.02335914927031	-2.9866708482474182	30.334371380316124
O	28.21782525060517	-0.05463464854242239	26.97834371351
O	34.21077147665835	1.0796403331119682	29.163638145913154
O	31.239971449244635	-0.49322801903781127	28.606938783167667
O	31.936701319035343	-0.5320979035068863	27.624841709308182
O	33.31579861748876	-0.5977398695175995	27.745749601852598
O	31.574672782999663	-1.1684675053400415	26.451547802625186
O	30.606189746005157	-2.0690725075408314	26.342123228988044
O	30.173932505743043	-2.147298189386222	24.998485076686695
O	30.851792338779834	-1.5370089521818002	23.980819867389613
O	31.170691050750907	-0.2552756914397495	24.480548080295296
O	32.158881115529674	-0.579206384463656	25.411957920075373
O	31.805735970636007	0.3338838294434907	29.679884641478683
O	32.639519586672826	-0.9180011535610632	29.804010766109347
O	33.03338240818791	-1.6673983147134561	28.712878324962258
O	35.49455279537921	-1.9531817018241155	27.32476518335578
O	35.54460353249806	-0.8196541416738453	26.6192494512749
O	36.28315369756708	0.31352019360317307	26.97232210478525
O	37.03654946948029	0.24109149059374213	28.142656309874837
O	37.51442403812238	-1.0079862624585911	28.42213751124653
O	36.501937170593344	-1.9571729699254745	28.321025806390477
O	32.989171469251865	0.6277792305519093	25.585872032288613
O	30.31365059187931	1.334019966144607	27.210291358831835
