86

O	2.295015747328125	3.419136218178125	-2.959645451546875
O	1.6826881473281252	2.2656970181781246	-3.3475645715468754
O	0.38744719732812527	2.2684810481781246	-2.9516850115468753
O	-0.35013781567187463	1.3440965471781245	-2.185781281546875
O	0.39888153732812537	0.48624597417812465	-1.599724589546875
O	0.4995545873281253	0.15643991417812464	-0.17839347854687515
O	-0.012205002671874632	-1.2177816218218753	-0.5252781005468752
O	0.0875217413281254	-1.8819719518218752	-1.7278453905468751
O	-0.8190703522718746	-1.4239926718218752	-2.719556551546875
O	-2.0477465326718747	-0.9657080618218753	-2.460424391546875
O	-3.283574312671875	-1.4204611318218752	-2.8890462515468753
O	-2.0693691626718747	-0.6659326518218752	-1.1545257035468752
O	-1.3387893366718746	-1.2478268918218753	-0.10931778454687513
O	1.1999125873281253	0.6246312221781247	0.4559198584531249
O	2.0901835273281257	-0.3315786318218753	-0.6261854465468751
O	2.1132459573281253	-1.2151234018218755	0.5201638884531249
O	3.2681716173281252	-0.22881975382187536	1.1248161284531246
O	2.6533487873281256	0.3356853711781247	2.3897176984531248
O	3.0787757773281257	0.7348348318781247	-0.009042596546875115
O	2.037391447328125	1.6435573811781246	-0.3712993585468751
O	1.3446833973281256	0.0123025601781247	-2.4460160615468753
O	2.178278207328125	1.0398186301781247	-3.0538729915468754
O	-3.9966455926718742	-9.757285691821876	-8.479430601546875
O	-0.3230525726718746	-9.597091891821876	-7.605588341546875
O	10.920870637328125	-8.292372611821875	-3.749608391546875
O	7.921652357328125	-7.510471591821876	-1.572046426546875
O	8.198795927328124	-3.775522801821875	-2.2964919315468753
O	8.476017567328125	-4.532289181821875	-6.014124251546876
O	5.449350337328125	-6.8136671718218755	-5.725860831546875
O	3.5724095273281256	-4.134836741821875	-3.7918879215468753
O	4.769872287328125	-1.3219858118218752	-5.956178771546876
O	3.747049317328125	-3.011986831821875	-9.143038001546875
O	0.3783409073281254	-3.7968965418218756	-7.790517101546875
O	-0.20187825267187465	-0.1633088628218753	-6.811868181546875
O	0.7301226373281253	1.2567562601781246	-10.020075611546876
O	-1.9203582126718746	-0.9118812618218753	-11.696684571546875
O	-4.583272372671875	0.2008336981781247	-9.224158961546875
O	-3.9283947226718743	3.7852680981781246	-10.127394341546875
O	-5.335727632671874	3.3814082381781247	-13.634797171546875
O	-8.501048722671875	1.9035371781781247	-12.249175671546876
O	-8.712328332671875	4.657009608178124	-9.644087621546875
O	-5.853022052671874	11.721965708178125	-2.2774816015468753
O	-4.529245952671874	8.712327418178125	-4.259920541546875
O	-2.7017205826718746	7.211340108178125	-1.273341317546875
O	-5.5344550226718745	7.617505898178125	1.1524182584531246
O	-7.8699847926718745	6.082702808178125	-1.499033770546875
O	-5.629927782671874	3.152418948178125	-1.9930480915468753
O	-5.247149222671874	2.6639329381781245	1.771087528453125
O	-8.953918542671875	2.831393428178125	2.5820257384531247
O	-9.561310332671875	0.2117793641781247	-0.07259293254687516
O	-6.752132292671875	-2.074696481821875	1.3640753484531247
O	-8.326458632671875	-1.7609395018218752	4.869559808453125
O	-8.673235132671875	-6.850687341821875	4.810592078453125
O	-3.6222539126718747	-7.161397311821875	5.019805228453125
O	-5.195368792671874	-8.374047801821876	1.7830372184531247
O	-3.044279812671874	-6.434579221821875	-0.7696412395468751
O	-4.467434162671875	-8.956274011821876	-3.329748861546875
O	-3.0809177926718743	-13.996216791821876	-3.8015994515468754
O	-1.1501009396718747	-11.740934391821876	-1.4504054355468752
O	-2.3075796126718746	-11.804046291821875	2.133876428453125
O	6.0279862273281255	-6.339890671821875	6.874393288453125
O	11.172889237328125	-3.9650947518218755	4.592879448453124
O	10.215105737328125	0.8640123171781247	8.533127248453125
O	7.203331447328126	-0.8667327318218753	6.973546068453125
O	5.738660507328126	-2.805343881821875	9.955582328453124
O	4.907481647328126	0.6025431737781247	11.413398228453124
O	2.6087122673281256	1.3555293651781248	8.531479998453126
O	1.2610841673281252	-2.228349761821875	8.527402278453124
O	0.41238337732812536	-1.8368390218218753	12.199784228453124
O	-1.6319239936718746	1.3109135131781247	11.487479528453125
O	-3.4358433126718744	-0.2326357888218753	8.494804118453125
O	-4.259602252671875	-3.403875651821875	10.429581228453126
O	-9.114864162671875	-2.611350191821875	9.559012628453125
O	-11.368773962671876	12.099664008178125	-3.1878532015468752
O	-1.2468581016718745	6.797042638178125	7.433665148453125
O	-1.0733667446718747	8.302537248178124	3.9753525984531244
O	1.2881338373281255	11.032405808178124	5.115760138453124
O	3.4321098573281255	8.619538118178124	7.007518928453124
O	3.2442155273281257	6.382847328178125	3.941182858453125
O	4.5074725973281256	9.061998008178124	1.6099271584531247
O	7.319173727328125	9.797840938178124	4.089270028453125
O	8.354582237328124	6.1267955681781245	3.980368588453125
O	8.017071897328124	5.874050458178125	0.21604121845312474
O	9.983156537328124	8.965761288178125	-0.3344706295468751
O	13.004585937328125	2.2690702181781246	-4.962206861546875
O	9.271816037328124	2.210798898178125	-5.683676281546875
