82

O	-1.0652739759499998	-0.14694503950000015	-2.3477262426953125
O	-2.25298275875	1.5489252884999998	-1.5154687626953125
O	-1.52894846075	-2.2370396095000005	0.23072607730468736
O	-2.91936874875	-0.7692939195000003	0.6016369773046875
O	-0.16688165674999988	0.011038543499999776	-1.3681995326953127
O	-1.3962565597499998	1.3997320834999998	-0.49957305438531263
O	-0.4886015237499999	-1.3653598595000003	0.15766071530468734
O	-1.83614232475	-0.051685172500000154	0.9841166173046874
O	1.6040287112500002	1.0205952314999998	1.0188534473046873
O	0.2507572812500001	0.7904755852699998	0.8766764373046874
O	-2.2666505387499996	0.4054115194999998	-2.2804430526953126
O	-2.72458762875	-1.8282248395000003	-0.19688652569531268
O	0.00043508125000024656	1.1924135044999997	-0.5855585450953127
O	-0.43870139374999984	-0.39982249950000026	1.2278796273046875
O	-3.2140587787499997	-0.12143360950000015	-3.1250593426953124
O	-3.20794893875	-2.3910567895000003	-1.3846704206953127
O	2.16708472125	0.7206888118999998	2.656985817304687
O	2.31877770125	2.5263843004999997	0.3984186823046873
O	-11.069716068750001	-2.6759105395000002	-5.309982922695313
O	-11.998619048750001	0.9515631464999998	-4.985928552695313
O	-10.97112560875	3.4961500704999997	-2.414631282695313
O	-6.68807839875	11.286844310500001	5.544336857304687
O	-4.51669324875	9.6520818705	2.8906795373046874
O	-3.22228819875	7.0597572904999994	5.374408047304687
O	-6.76391828875	6.3178878705	6.490753327304687
O	-7.82845394875	6.0540469805	2.8677242873046875
O	-4.83249846875	3.7712361304999997	2.2048049073046876
O	-5.10688000875	1.7649403554999998	5.362361817304687
O	-8.820987438749999	1.1572020424999998	4.778711707304687
O	-8.12694538875	0.025626630499999803	1.2408651373046875
O	-5.45926181875	-2.4125756795	2.6311970673046874
O	-7.66933213875	-3.9759257095000002	5.090774577304687
O	-10.285430108749999	-4.7922495195	2.4497396773046876
O	-7.72405876875	-6.3740171395	0.15433603530468737
O	-6.67301958875	-8.7197866295	2.935020307304687
O	-9.937886698749999	-10.598037889499999	2.8219298273046873
O	-9.594853668749998	-11.1496105895	-0.8766451756953126
O	-5.94654963875	-12.1408233895	-0.4556141901953127
O	4.01704682125	-12.2633190895	3.0122690673046875
O	0.85514111125	-10.121135189499999	3.0765198173046873
O	2.66433747125	-6.7995467595	2.6504339973046873
O	4.92418468125	-8.0955745795	-0.17833696769531265
O	1.7920897512500003	-9.536186489499999	-1.8879249226953125
O	-0.0456101487499998	-6.3341020895	-1.6617955326953127
O	2.9927699912500003	-4.3938179795000005	-2.9467839326953125
O	3.59206339125	-6.5869961595	-5.926680602695313
O	-0.07721962874999977	-6.1582725995	-6.820971572695313
O	0.17070823125000012	-2.3790343295000005	-6.657835242695313
O	3.32732433125	-2.2806121695000003	-8.764664372695313
O	0.7088321312500001	0.8995213014999999	-11.832958592695313
O	0.9210345312500001	4.5103105105	-8.271807462695312
O	-2.57766651875	3.1082003305	-9.001698432695312
O	-3.70294339875	2.2612685404999997	-5.412003542695313
O	-7.22462319875	1.9860554804999997	-6.768201942695313
O	-8.84461200875	3.0273609104999997	-10.070777962695312
O	-10.186174658750001	6.0751723905	-8.236478362695312
O	-6.9477044887499995	6.7592998405	-6.430403232695313
O	3.2216189912499997	10.7362104605	-0.8950130516953126
O	2.72462306125	11.6917841105	5.140629997304687
O	8.52876478125	9.2546690205	5.605397917304687
O	6.18118676125	7.9297367805	2.9343449273046875
O	7.646546391249999	9.319996810500001	-0.2957865056953126
O	10.615650251249999	7.0368144704999995	0.38623530530468736
O	8.310412051250001	3.9980460305	0.06803098830468729
O	6.56352856125	5.5707657005	-2.9255727126953124
O	9.86943035125	6.0802809705	-4.617155642695313
O	10.76141765125	2.3981166505	-4.222466332695313
O	7.386850411249999	1.1872457834999999	-5.432502762695313
O	7.45242595125	3.4996389205	-8.464942102695312
O	6.937876771250001	-0.4900752195000001	-11.451374092695312
O	3.27715439125	-16.451826089500003	-0.6669826476953127
O	10.08339795125	-2.5064934095000004	0.4193212553046874
O	7.8564972612499995	-4.6498872195	2.5927541173046875
O	10.371591551249999	-4.5733841895000005	5.447738777304687
O	10.87576905125	-0.8840576795000002	5.128498817304687
O	7.0670746512500004	-0.6059931395000001	4.842282677304687
O	6.45890058125	-2.4588502795000005	8.067275407304688
O	9.05658115125	-0.24640867950000012	9.731334907304689
O	7.156206211250001	2.8526089805	8.591993377304687
O	3.7714538812500003	1.3703158514999998	9.501751767304688
O	-2.27411215875	5.1177959904999994	13.251980707304687
O	-3.02322835875	2.4459578905	10.597483707304688
