96

O	1.1269505411311476	1.5446786361803286	0.9259415686557375
O	1.3347338511311475	0.37224911878032846	1.7581762486557377
O	0.17801812513114745	-0.07895036281967155	2.360966868655738
O	-0.7406968068688525	-0.6362897058196716	1.5240857286557377
O	-1.7147402788688526	-1.5675389338196717	1.8348009286557374
O	-3.0324250788688527	-1.1928194138196715	1.4334210286557376
O	-3.2552476488688527	-0.2681914688196716	0.39661474465573754
O	-4.265407188868853	0.6652447021803285	0.2668752186557375
O	-2.0956698988688522	0.36828406508032846	-0.02876304534426244
O	-0.8482915258688525	0.32936474808032845	0.5235826286557375
O	-0.2690553118688525	1.7285905161803283	0.7416172386557376
O	-0.8017379518688525	2.7727464361803285	-0.1440639523442625
O	2.019648701131148	1.3028291031803283	-0.20372550834426245
O	1.8113137811311473	1.5820437261803284	-1.5110895343442625
O	2.8923900311311472	2.1995375761803286	-2.0906922613442624
O	4.117489351131147	2.4059074561803286	-1.4508541893442626
O	4.482279831131147	3.7219058761803288	-1.4318580643442624
O	4.437394721131147	1.4434204761803286	-0.5164405533442625
O	3.3194099811311473	0.9017821301803285	0.1268900876557375
O	1.9847974911311475	-0.7915011338196715	1.1228628486557375
O	1.1745425111311474	-1.8265666138196712	0.7974382986557376
O	1.5353420411311476	-3.1684107338196714	0.7927105186557375
O	2.8436660211311473	-3.4215309938196716	1.0227987286557376
O	3.6023895311311476	-2.4250572338196714	1.5205107486557374
O	3.014124231131148	-1.2636735038196716	1.9333753586557376
O	3.2811666111311473	-4.624082303819671	0.5943086386557375
O	3.6215770711311475	-5.715854143819671	1.3291867786557374
O	4.625300411131147	-6.423438253819671	0.4780630186557375
O	4.1695208011311475	-7.695397463819671	0.18147941265573753
O	3.1695151411311473	-7.715762973819671	-0.7866975723442624
O	2.9445729111311474	-9.138608563819671	-1.2143582503442625
O	2.453246981131148	-9.838796533819671	-0.00022799534426243273
O	3.5304086911311474	-9.764047633819672	1.0325569886557375
O	3.762143531131147	-8.337993083819672	1.3760205686557376
O	-2.0085811288688524	1.3085465831803285	-0.9583918413442625
O	-8.434005388868853	-3.3516308538196715	10.486744228655738
O	-4.878603898868853	-2.3639270238196715	11.201038728655737
O	6.334839861131147	1.3068897431803284	12.633946928655737
O	4.0589945011311475	2.8221721161803286	10.020468928655736
O	5.599140161131147	0.6248911351803285	7.318899838655737
O	5.187421311131147	-2.4439339738196715	9.438780338655738
O	1.5962732111311475	-1.3918938438196715	10.102187828655737
O	0.9835375111311475	-0.8586846438196715	6.382377658655737
O	2.9122839711311475	-3.9170349238196716	5.278220378655737
O	1.0191510711311476	-6.099885723819671	7.717719188655737
O	-2.2875690188688527	-4.718596963819672	6.533696978655738
O	-1.3650008988688525	-5.344780713819671	2.8710648386557374
O	-0.5633903788688526	-8.902154543819673	3.644049768655737
O	-3.8029804288688522	-9.750459633819672	5.142812638655737
O	-5.733240828868853	-8.183147483819672	2.2537094186557374
O	-3.892161578868852	-10.393589133819672	-0.17685498534426247
O	-5.755998878868852	-13.475360733819672	1.1009905386557375
O	-7.986201048868852	-10.602968833819672	-2.836942741344262
O	0.9716684911311475	-8.306053483819673	-12.072297371344263
O	-2.1109421688688528	-6.627015333819672	-10.687672671344263
O	-2.1215729288688525	-7.094723103819671	-6.888314561344263
O	-0.6404502678688525	-3.6714446438196715	-6.036063581344263
O	-2.9401932088688527	-1.8407274738196713	-8.516825401344262
O	-5.900051538868853	-3.7348574438196716	-6.944865571344263
O	-4.898010398868853	-2.8652506938196716	-3.450479571344262
O	-4.442157878868853	0.8187132171803284	-4.579790571344263
O	-7.7412450088688525	1.2016779251803285	-6.329174661344263
O	-9.439477028868852	-0.22273334381967158	-3.2391588113442626
O	-7.691197838868852	2.3275998061803285	-0.9747286463442625
O	-8.581013938868853	5.2487149361803285	-3.2286815813442624
O	-10.631298798868853	7.308689066180329	0.9775240986557374
O	-6.042781138868853	7.975442226180329	2.936532608655738
O	-8.153121028868853	5.414757036180329	4.7207137186557375
O	-5.777590728868852	2.4848679361803288	4.944471698655737
O	-8.184313018868853	0.9596540061803285	7.507718858655737
O	-8.651888278868853	2.6995768061803287	12.448897028655738
O	-5.850397358868853	4.055999326180328	10.270217828655737
O	8.924105541131148	7.270330806180328	5.689638148655737
O	11.534730701131148	8.183000876180328	3.082923698655738
O	9.973670201131148	8.740294946180327	-0.3536146953442625
O	6.453549961131147	7.867683996180329	0.7164939486557376
O	5.161917041131147	11.129632966180328	-3.166202381344262
O	3.0212053711311473	7.979434676180329	-3.4335506013442627
O	0.5735823001311475	9.285674036180328	-0.8789944763442625
O	-0.6320250578688525	10.409330466180327	-6.125711671344263
O	-3.0982330888688523	8.203865976180328	-4.236282901344262
O	-9.120296278868853	9.819281836180327	-4.699554171344262
O	-7.186930568868853	-8.015138793819672	-12.587014471344263
O	1.2882331811311474	4.486081676180328	-8.984417131344262
O	1.6936046811311474	0.7066519241803284	-8.701423771344263
O	4.943405141131147	0.8555252841803285	-10.685521571344262
O	6.241728071131147	3.714606406180329	-8.641840431344262
O	5.057174501131147	1.8051719761803287	-5.6476806313442625
O	6.981078281131147	-1.3164100938196714	-6.4859061413442625
O	10.011839201131147	0.8544471471803284	-7.032491821344263
O	9.658092931131147	2.3323637561803285	-3.5377174213442624
O	8.953838941131147	-1.0084003938196715	-1.9493891713442624
O	11.976536701131147	-2.5323763738196714	-3.638369231344263
O	12.818147001131146	-1.3559968538196716	2.185418718655738
O	12.067551101131148	-3.8067829738196712	5.016428148655737
O	8.537038961131147	-4.697064003819672	4.123846688655737
