84

O	-0.2732436344062499	2.044385007515625	-2.1648120221812506
O	0.5482330785937501	1.7088248175156253	-3.260780342181251
O	1.8712827785937503	1.6232482285156253	-2.7775875121812508
O	2.77474314859375	2.232807667515625	-3.6053865521812503
O	1.99457258859375	0.5838272633156253	-1.8419916691812506
O	0.9152259985937503	0.2975340235156253	-1.0124387348812505
O	0.9065536685937503	-0.6099548324843748	0.1278107378187494
O	-0.2497773834062499	-1.5161313524843747	0.057749527818749424
O	-1.30625052740625	-0.8098662124843746	-0.7216216451812506
O	-1.41007349540625	0.6680642368256253	-0.5188999811812506
O	-0.1580115154062498	1.1824293185156254	-1.0943567211812506
O	-2.53038724140625	1.1105926865156253	-1.4550543991812506
O	-3.79851559140625	0.8155573055156253	-0.7471572481812505
O	-3.83209989140625	-0.6570999924843747	-0.5327854401812506
O	-2.56752334140625	-1.3321856324843746	-0.27043017218125054
O	-2.4902092414062498	-1.7023869224843748	1.1154040478187495
O	-3.9018847314062497	-1.9516565424843746	1.4584606578187496
O	-4.75333653140625	-1.2072587224843745	0.4793205778187495
O	-5.845825971406249	-1.8739138324843747	-0.012268197181250606
O	-4.23955555140625	-1.2465536124843748	-1.8430358881812505
O	2.48907636859375	12.280046787515627	-5.9251236421812505
O	-0.7696026094062498	11.780010687515626	-4.1117425521812505
O	-7.25545416140625	7.6320531475156255	2.9050923278187497
O	-8.24497345140625	4.513186327515625	0.9788637678187495
O	-9.34293695140625	6.593133087515626	-1.9667376521812505
O	-6.044882131406251	8.471543477515626	-1.7392290031812507
O	-4.06521980140625	5.1925011475156255	-1.5953989811812506
O	-6.24672353140625	3.527824127515625	-4.2535098121812505
O	-5.8567108014062494	6.3367871775156255	-6.63240196218125
O	-2.1064161094062497	6.432957177515625	-6.10577416218125
O	-1.8504025164062499	2.6442505275156254	-6.69082571218125
O	-3.79869621140625	2.779168857515625	-9.882956132181251
O	-1.4943284194062498	5.433869827515625	-11.39449632218125
O	1.5998604385937503	3.430462047515625	-10.433853262181252
O	0.25435027859375015	0.4791610975156253	-12.349919122181252
O	4.2834868785937505	2.974220787515625	-14.913613122181252
O	4.82620232859375	-0.5867957324843748	-13.68978632218125
O	3.1087326285937498	-9.852965112484375	-8.945680362181252
O	1.6973186585937503	-6.307942792484375	-9.154807702181252
O	0.8935294985937503	-5.907550342484375	-5.425687162181251
O	4.28447201859375	-7.415432492484374	-4.353713992181251
O	6.000385968593751	-4.994001472484374	-6.779333342181251
O	4.1264976985937505	-2.0308975424843747	-5.428945672181251
O	4.91905006859375	-3.1336804824843747	-1.8458380481812506
O	8.639343148593749	-3.658951902484375	-2.3434141621812508
O	8.76010771859375	-0.1865833814843747	-3.878495412181251
O	6.92306877859375	1.3792254795156254	-0.8880931395812506
O	9.26964334859375	-0.3428598424843746	1.5844983878187493
O	10.22722894859375	4.362059817515625	3.3037289078187495
O	5.539300098593751	4.651908417515625	5.1721365478187495
O	6.30233699859375	7.013981897515626	2.289446447818749
O	3.3990011385937504	6.330666617515625	-0.00910655718125053
O	4.28008112859375	9.529959067515625	-1.8536611191812504
O	3.4155982585937505	14.351114387515626	0.019909575818749414
O	1.94096068859375	11.369293687515626	1.8400756978187494
O	4.04505436859375	10.072951117515625	4.71000793781875
O	-3.3183533914062497	3.269559307515625	9.32837577781875
O	-8.11317279140625	4.879087147515626	10.36210347781875
O	-9.21774973140625	2.041028407515625	8.118217097818748
O	-7.777402941406249	-3.9797640924843747	9.460898077818749
O	-5.12704226140625	-1.7987898024843747	7.79708543781875
O	-2.64585742140625	-1.1818068424843746	10.62119057781875
O	-1.8751713954062499	-4.908868762484374	10.46244537781875
O	-0.5711181174062498	-4.480185732484374	6.92284836781875
O	1.18038901859375	-1.2039288524843745	7.877751777818749
O	2.9237306685937505	-3.0311191024843747	10.67669387781875
O	4.256116508593751	-5.662585162484374	8.244083827818748
O	5.37594655859375	-3.094902482484375	5.6689843978187495
O	7.114578068593749	-0.9693830124843746	8.318918867818748
O	8.90862474859375	-4.010759212484374	9.71548487781875
O	11.415422048593749	-1.4112013324843748	5.78928689781875
O	13.227673048593749	-1.768167592484375	9.09717677781875
O	2.12030568859375	-9.166784772484375	2.7914307278187493
O	0.7797144785937502	-9.141679152484375	-0.7689303281812505
O	-1.4929640524062497	-12.104046012484375	-0.022178557181250613
O	-2.7078063414062497	-10.566187712484375	3.1675564078187497
O	-3.0940469014062497	-7.334524282484374	1.2355769078187493
O	-5.294325631406251	-8.950986802484374	-1.4323673871812506
O	-7.354844281406249	-10.443548912484374	1.3482400278187494
O	-7.90559980140625	-7.013980572484375	2.8977506278187493
O	-8.57514645140625	-5.370372252484374	-0.47427983118125056
O	-11.11951456140625	-8.065243702484374	-1.3316133601812505
O	-14.32945495140625	0.03392759251562527	-2.1532793921812505
O	-10.93127057140625	0.29053801851562533	-3.9310665021812508
