85

O	1.523222815030769	-0.9467847388769235	-0.06016985970769245
O	-3.6321816849692308	0.7338376611230766	-2.9516543777076927
O	0.2589666070307691	-0.7915928288769234	0.4832067332923075
O	3.8666242750307687	-4.212732458876923	0.3245292532923076
O	-0.3834051339692309	-2.1336173688769233	0.40460653529230756
O	0.756575865030769	-2.969638118876923	0.9941294722923075
O	1.7755245250307692	-3.2273491588769234	-0.055204707707692424
O	1.502201775030769	-2.1753142988769234	-1.1502361937076924
O	-0.3002763919692309	0.2266936049230766	-0.3977264198076924
O	-1.5773886309692309	0.1842507531230766	-0.021836020707692416
O	-1.529407249969231	0.02351790312307661	1.4818087022923074
O	-0.051609941969230855	-0.2234763098769234	1.8192821722923074
O	-0.24152436596923088	0.3797317836230766	-1.8147895977076924
O	-1.3160781699692308	0.5137690141230766	-2.6599886677076925
O	-2.531841264969231	0.7926768201230766	-2.0857796377076925
O	-2.683167924969231	0.5043890051230766	-0.7565832097076924
O	3.0519112650307694	-3.159797868876923	0.6967693022923076
O	1.2980707450307691	-2.6244509288769233	2.3235528822923075
O	2.739313085030769	-3.135481468876923	2.1752401222923075
O	1.519624715030769	-4.642042968876924	-0.3537298647076924
O	-5.610780694969231	3.478756291123077	-10.957834157707692
O	-2.195370984969231	4.745225091123077	-11.935993757707692
O	1.2197281350307692	3.4242287711230768	-11.039185957707693
O	11.65741140503077	-0.6697962368769235	-7.010057967707692
O	9.13663142503077	0.9710210121230767	-4.721105137707692
O	7.884270115030769	-2.422739588876923	-3.5517282477076924
O	7.577355225030769	-3.6063775288769233	-7.151934937707692
O	5.731850145030769	-0.3798813898769234	-7.949916827707692
O	3.428685625030769	-0.8209634988769234	-4.9396959177076925
O	3.003180755030769	-4.531909178876924	-5.384596997707692
O	2.0936966650307687	-4.1349971488769235	-9.028196277707693
O	-0.4204387089692309	-1.4183092488769236	-8.137212727707693
O	-2.0110501549692312	-3.6061132388769233	-5.4562620777076924
O	-2.3541965249692307	-6.569308698876923	-7.785568217707692
O	-4.256780644969231	-4.525591378876923	-10.399631367707691
O	-6.633429734969231	-3.137622138876923	-7.776895847707692
O	-7.520260824969231	-6.656305358876923	-6.744768077707692
O	-11.41310479496923	-4.193495748876924	-9.545751057707692
O	-12.06437449496923	-5.084689218876923	-5.905304417707692
O	-10.55880590496923	-8.561248098876924	3.946707922292308
O	-8.63285764496923	-7.664830078876923	0.7644921522923076
O	-5.7152328949692315	-5.911220578876923	2.5066795522923075
O	-8.009331774969231	-3.950760178876923	4.870789122292308
O	-10.07504169496923	-2.907746228876923	1.8073172922923075
O	-6.9650806049692315	-1.7509986288769233	-0.07109566870769246
O	-5.767166884969231	0.1308041961230766	3.0111061022923074
O	-9.05319856496923	1.9139378411230765	3.7686976422923073
O	-9.098302694969231	3.029833921123077	0.1404766172923076
O	-5.477977164969231	4.355782211123077	0.3802168652923075
O	-6.3404790049692314	6.294218561123077	3.5674261322923075
O	-4.779616784969231	10.428094591123076	1.0322143922923075
O	-0.03191660696923093	8.725974191123075	1.1076481322923075
O	-1.669724964969231	8.847920481123076	-2.3350189077076924
O	-0.9871220779692309	5.297863381123077	-3.5900731477076926
O	-1.8989185949692309	6.624230081123077	-7.064475317707692
O	-2.333605434969231	10.131015021123076	-8.562547777707692
O	1.181485265030769	9.761640261123075	-9.959420817707691
O	2.564724945030769	8.220884451123077	-6.776049607707692
O	2.3120727250307693	10.438587291123076	-3.7191730277076926
O	4.6720740750307685	9.277830921123076	-0.9783660537076924
O	8.75977659503077	4.659708881123077	3.1478946322923074
O	13.43591060503077	3.0600256811230766	1.6673750622923076
O	12.12097650503077	-0.4205846268769234	2.4125133022923073
O	10.17050920503077	-2.036336288876923	8.162364132292309
O	7.7721282450307685	-0.10095851487692342	5.912097552292308
O	7.7865021050307694	3.3706534211230768	7.542258962292308
O	6.062581045030769	1.7134920711230766	10.499569242292308
O	3.1047509350307694	0.8190321251230765	8.274682692292307
O	3.259001755030769	4.239513771123076	6.595542732292308
O	3.0884163650307688	5.8919849011230765	9.977481942292307
O	-0.08182001996923094	3.970971341123077	10.891153242292308
O	-1.7423000349692308	4.633921631123076	7.518724192292307
O	-0.9201584779692309	8.359446941123077	7.678350122292308
O	-5.800231554969231	9.391749921123075	7.253479862292308
O	-2.6056825249692306	-2.314985688876923	10.037691942292309
O	-3.7134719149692312	-5.132783638876924	7.757703022292308
O	-2.3818243749692307	-7.759644068876923	10.178771642292308
O	0.8463981050307692	-5.914150398876923	10.618686442292308
O	0.8999055950307691	-5.461177678876923	6.839933742292308
O	0.557400375030769	-9.185382108876924	6.181975842292308
O	3.3325022750307687	-9.785873808876923	8.668503702292307
O	5.614559395030769	-7.402852418876924	6.773156722292308
O	4.570285045030769	-8.725214088876925	3.3528615622923077
O	9.40840510503077	-10.383271908876925	-2.8514921377076923
O	5.866480005030769	-9.080230618876923	-3.5171917777076924
