24

O	32.971716905312825	-0.20478793360984948	29.801733314537344
O	33.33233313096966	1.1808468953178148	29.263589383304186
O	30.140195267180122	0.5867097950596272	25.593741101136292
O	26.702543574024247	-2.15620220891758	27.275502033695886
O	31.644831053278182	0.39455431194052415	25.358411077595893
O	28.06486568002005	-1.8468365290661248	27.484103035448857
O	29.951624896110363	-0.7488558299923371	26.013994408369307
O	26.253023339601615	0.15697876517924625	27.882596133543085
O	32.079178279878654	1.8446559082346754	28.86180434203898
O	25.835067552460806	-1.1193955344831155	27.479919990310275
O	27.586904640156426	0.3359275325058013	28.001489202798705
O	28.26441848172677	-0.8140581714453388	28.420744957223334
O	29.736569327277497	-0.7502259454882003	28.555164232295244
O	32.436854523940696	0.24905121005985353	26.544234846808692
O	30.383705227586713	-0.7044152675258015	27.35423113838077
O	31.659060029511593	-0.18103704846839064	27.634832288246102
O	33.846624720836374	0.13991605659576378	26.629073864136696
O	30.446420741656052	-0.010614053720043537	29.31747237940762
O	31.311646412890763	0.6561040566430361	28.604338633330148
O	24.518469625994634	-1.3037941408338427	27.969339540419718
O	28.290020094804092	1.4268008892572674	28.44284377327002
O	34.82753540624291	1.06782303673044	26.62496285237347
O	34.427874180406164	-0.9880096940501075	27.24599167137468
O	34.15537979808485	-0.2956757433052959	25.27633737496093
