83

O	-1.6254710244444444	-0.32153633304603146	-2.6264278116063493
O	-2.4913732104444444	-1.2787733040460316	-3.0754608116063493
O	-2.9613201204444444	-1.2940478640460316	-4.397177971606349
O	-3.0082536404444444	-2.1471364940460314	-2.1768595716063492
O	-2.6538837704444447	-1.8930517940460314	-0.8828247656063491
O	-2.565625900444444	-2.9160207540460314	-0.021354286606349138
O	-1.9594826054444443	-0.7990869740460315	-0.48787740527634915
O	-1.4744449677444444	-0.5651083940460314	0.7616246483936508
O	-2.0049474484444443	-1.1763279440460312	1.670761288393651
O	-0.3268451504444445	0.11327332195396855	0.9471982383936508
O	0.6184435095555556	-0.006297568046031432	-0.06636920960634918
O	0.013378709555555535	0.2389778939539685	-1.1922832476063492
O	-1.2917699484444445	-0.0018663330460314542	-1.3513302996063492
O	-0.4187278454444444	0.9252521629539685	2.082736568393651
O	0.6454671695555554	1.3651356869539686	2.702642688393651
O	0.4910769995555555	1.4534328949539685	4.090840198393651
O	-0.6727723654444444	1.3640958389539686	4.792395878393651
O	-0.8684272864444444	0.5967024327539685	5.948088298393651
O	-1.8010035674444445	1.5292891639539685	3.9972402983936504
O	-1.6293678934444444	1.4707106179539684	2.600205038393651
O	-9.725021660444444	4.122339285953968	-8.665060031606348
O	-8.019191170444444	6.568154725953968	-6.357243501606349
O	-1.7849989214444444	13.509444715953968	1.0188227783936508
O	-0.2903698104444443	10.397469905953969	-0.5578638602063491
O	-0.8972381384444444	8.373051565953968	2.600419068393651
O	-4.481760760444445	9.633612155953967	2.7397052883936506
O	-4.8362736204444445	8.708326295953968	-0.9328391626063491
O	-3.2990516004444443	5.216043965953968	-0.31851096260634915
O	-5.156643150444444	4.7350400159539685	2.9596549583936507
O	-8.486702180444444	5.608067755953968	1.4192019583936508
O	-7.764931220444444	3.2472761759539686	-1.5022254116063491
O	-6.861414950444445	0.39770473395396855	0.8028778083936507
O	-9.987087480444444	0.8248202209539686	2.936644898393651
O	-12.255931650444444	0.5516705170539685	-0.08982706260634915
O	-10.488696870444445	-2.5849129640460315	-1.300698746606349
O	-11.190921160444445	-4.237377404046032	2.0158189983936508
O	-14.882579850444444	-4.431548294046032	1.3444837583936509
O	-11.735870050444444	-8.451604914046031	-0.3857285738063492
O	-3.8375266604444445	-11.954710784046032	5.710092538393651
O	-5.5173027204444445	-8.753370064046031	4.556224058393651
O	-2.2640144324444442	-6.745082434046032	4.013295118393652
O	-0.5043291344444444	-9.662634584046032	2.250207938393651
O	-3.6020101604444443	-10.008942784046031	0.0021975563936508236
O	-3.6272830804444443	-6.361655434046032	-0.8250894846063492
O	0.11158123955555554	-6.364669854046031	-1.5068345316063492
O	0.06420898955555554	-9.399295884046031	-3.7876220516063492
O	-2.6904609504444443	-7.660744414046032	-5.734105221606349
O	-0.6092058204444444	-4.463174954046032	-6.064974181606349
O	2.4203778095555557	-6.421238024046032	-7.2560508016063485
O	2.2554212995555556	-3.4604355440460313	-11.41313028160635
O	3.628197909555556	0.5134955739539685	-8.614096551606348
O	0.07791399955555556	0.6425415837539685	-10.013111551606348
O	-1.8743766394444443	1.5198145229539686	-6.921941001606349
O	-4.8111017004444445	2.3628579859539687	-9.122434061606349
O	-5.025159370444444	6.7639723459539685	-12.056149081606348
O	-2.2605333004444446	6.359589175953968	-9.48678540160635
O	1.0056774395555554	4.998215245953968	-10.857427481606349
O	7.487661899555556	6.912548125953968	-2.125420991606349
O	7.562171349555555	11.550868015953968	0.13562608639365087
O	6.540387229555556	9.678674445953968	3.2725541583936506
O	10.193647849555557	5.174396085953968	5.751539298393651
O	7.977531999555556	4.304888465953969	2.789478468393651
O	10.461866049555557	3.9321155159539685	-0.07986735460634914
O	11.756059249555555	0.8828159409539685	1.7952360283936506
O	8.368560079555555	-0.8054467140460314	1.3787703883936508
O	8.091845819555555	0.4498985509539685	-2.204932631606349
O	11.485716049555556	-1.0379477340460315	-2.9731061316063494
O	10.373596549555556	-4.464956964046031	-1.721295141606349
O	7.054083779555556	-4.3359280840460315	-3.5918516116063492
O	8.765656649555556	-3.2757219340460315	-6.835088011606349
O	6.811269499555555	-7.284170634046032	-9.10524752160635
O	6.589645219555555	-7.0309364640460315	3.328375448393651
O	3.248122919555555	-7.2539658040460315	5.103804728393651
O	4.954872019555555	-7.474157624046033	8.49682598839365
O	7.267830759555556	-4.644422094046032	7.704880708393651
O	4.217400399555556	-2.8264667940460315	6.343666038393652
O	2.2426468995555555	-3.2230624240460313	9.531002418393651
O	5.267138959555556	-1.9824265140460313	11.426949618393651
O	5.382248239555556	1.1665469089539684	9.29885323839365
O	1.6319475995555557	1.6791274159539684	9.480622208393651
O	1.6861298495555554	1.3221903609539685	13.21689701839365
O	-2.3306563384444443	8.585302585953968	10.618937118393651
O	-3.8827710504444446	5.908127225953968	8.362892708393652
