84

O	-1.0404581878328123	-1.0116330912625	-2.0026003283593754
O	0.5184934851671876	-0.9353126112624999	-3.925688788359375
O	-1.6938180678328123	-0.3193960012624999	-0.8283248106593752
O	-4.369166204832812	2.3971800087375	3.2551945316406243
O	1.1066454851671876	-0.15364804726249992	-1.8164799783593752
O	0.0972555251671876	-0.6360189112624999	-2.6541415483593753
O	-0.6223118268328124	-0.2605958012624998	0.04858956164062467
O	0.7126908451671876	-0.1773061842624999	-0.4364386293593753
O	-0.9136627228328124	1.1005128287375001	0.4401867016406247
O	-1.9847094838328123	1.4907365687375	-0.4379117253593753
O	-2.8553880748328124	1.0046485837375	0.8522979216406248
O	-2.8306225048328124	2.3772030387375	1.395424011640625
O	-1.6490080558328124	3.2288133787374997	0.9180484816406247
O	-0.5240106188328123	2.2227006987375	0.4051385616406247
O	-2.3636609048328125	-0.07587405326249996	1.8153194116406246
O	-2.5061483448328126	0.8061150052375001	3.118746331640625
O	-3.110536874832812	2.1204369487375	2.792708561640625
O	-4.145211624832813	2.6708425587375	0.7968548316406248
O	-2.8593985048328125	0.2077628437375001	-1.3268548043593753
O	1.2013216151671875	1.2132647567375001	-2.2351880083593754
O	5.100549375167188	7.566806508737501	-10.440225768359374
O	3.7778340351671877	9.3713187587375	-7.410050788359375
O	1.2644991251671875	10.5428822187375	2.648366831640625
O	-2.1527210618328123	8.860200118737499	2.568952701640625
O	-3.3035091748328123	11.1763610887375	-0.1940996763593753
O	-0.06825953483281233	10.4171257587375	-2.0520031283593756
O	-0.5661049948328123	6.6644012187375	-1.5709619893593754
O	-4.329077384832813	6.8603372887375	-2.2903728483593753
O	-3.8006038948328125	8.631467788737499	-5.4492551383593755
O	-1.1120587035328124	6.2161685987375	-6.568078618359375
O	-3.2926777548328126	3.2137549287375	-5.803064628359375
O	-6.264392334832812	4.5852188687375	-7.682948568359375
O	-4.196696404832812	5.0563352987375	-10.869041658359375
O	-2.8262111248328123	1.5074828127375	-10.592814358359375
O	-6.359313474832812	0.18994006273750008	-10.576531988359374
O	-3.8663454348328123	-0.5837789812624998	-15.301241058359375
O	-4.798045514832813	-3.6124997712624998	-13.200607258359375
O	-8.407325664832811	-9.5367953112625	-5.209816168359375
O	-7.4633896048328126	-5.9310130612625	-6.097117878359375
O	-5.757786864832813	-5.1836379412625	-2.772499358359375
O	-3.785702064832812	-8.531464391262501	-2.7330947483593753
O	-2.6974975648328123	-7.760407171262499	-6.349737548359376
O	-1.4994482788328123	-4.2582152412625	-5.521754858359375
O	0.3605462451671877	-5.5993566112624995	-2.4587013583593755
O	2.1354374251671877	-8.435984801262501	-4.201266138359375
O	3.2647047951671873	-5.876620301262499	-6.779406948359376
O	4.611845895167187	-3.5204830612624995	-4.077500328359375
O	6.490619885167187	-6.3644951012624995	-2.3570878383593756
O	10.659081775167188	-3.4827304812624993	-3.0130376883593755
O	8.859541875167187	-0.1590966252624999	0.3689988516406246
O	9.082396575167188	1.0976024757375	-3.2201925983593753
O	5.647213635167188	2.5264533787375	-3.7254571983593756
O	6.931846425167187	4.3242994187375	-6.774259528359376
O	10.099432575167187	8.5150772387375	-6.598300698359376
O	8.515629305167188	7.2593496887375	-3.384877448359375
O	10.667356275167188	4.8879110287375	-1.3677453343593753
O	4.891118235167188	4.6434433287375	8.026080651640626
O	3.3030907551671875	9.0233865187375	10.251127241640626
O	-0.19099872483281244	7.6118226787375	9.851711941640625
O	-1.9055104338328124	2.1443550087375	12.501982341640625
O	0.07347654516718771	2.0275694287375003	9.249542291640626
O	3.5231009051671878	0.8502849775375001	10.437961141640626
O	1.8352598351671876	-2.4528641112624996	11.301355741640625
O	0.9574884751671875	-2.9866328112625	7.649326701640624
O	4.416491735167187	-1.6957304912625	6.565449741640625
O	6.020054485167187	-4.2218370612625	8.839853461640626
O	4.062588235167188	-7.0683976512625	7.203553481640625
O	4.767834455167188	-5.8707074712625	3.6589574316406246
O	8.488099485167188	-5.4235364812624995	4.3849083316406245
O	8.704245135167188	-8.8942705412625	5.913579221640624
O	9.550842775167188	-8.5887350812625	0.6578130616406248
O	12.311879775167188	-10.055500211262501	2.8002047416406244
O	-2.2026281168328126	-8.3117432512625	4.812616651640624
O	-4.985559014832813	-7.4422019312625	2.3634494316406247
O	-7.646219554832812	-8.101169701262501	4.988240901640625
O	-5.796852854832812	-6.1286704912625	7.5744699816406245
O	-5.319946704832812	-3.4714156612624993	4.938614561640624
O	-9.046820324832812	-3.2113864312624996	4.220863051640625
O	-9.642168414832812	-2.9720380812625002	7.9355247416406245
O	-7.224970174832812	-0.04386148126249989	8.180791261640625
O	-8.644980164832813	1.6577104467375001	5.102886401640625
O	-12.164324024832812	1.3055575817375003	6.4008747316406245
O	-10.163570904832813	9.537521128737499	4.122512631640625
O	-8.892389804832813	7.5051321487375	1.1225808816406246
