20

O	29.951848401885737	-1.8311271199401968	26.286206577284677
O	28.675694216883457	-2.3433985545318268	25.94890824264351
O	27.541570539218192	-2.0778039270662036	26.70888330622142
O	26.60120442700682	-2.9855700255123385	27.087629673336107
O	27.705631206071484	-1.1163865254653218	27.66282161670766
O	28.81232393843571	-0.3153341531469701	27.649013078882835
O	29.12637894668228	0.9205790009810724	28.307537684899422
O	30.503799637477385	1.3519881961857014	28.10946556974304
O	31.30272741982159	0.22490393108841011	28.603671011805613
O	30.6754890431247	-1.0336338100983364	28.576702535584452
O	29.952514925758372	-0.9353577180353164	27.25288762567958
O	31.23690512370594	-2.3356802028920636	28.578234628459644
O	32.3533430704048	-2.3193015006545163	27.6147718724647
O	33.02038778212244	-1.0187283503796278	27.461496179106113
O	32.245993158748846	0.20179961621801645	27.513909431620135
O	33.14645553326936	1.3273662338044918	27.725074779554514
O	34.141202343505746	0.752281776067338	28.624120448482206
O	34.28480571043883	-0.7117607210167919	28.16216349516801
O	35.36282276050501	-0.6488131940454461	27.31246200359786
O	33.284219871359326	-0.8287689492286282	25.969949536991628
