86

O	-0.9012644052225804	-0.013512575335483445	1.0536917899632259
O	0.5195919949774195	5.8666963546645166	-1.942865640036774
O	-0.10854649702258046	0.9041196346645166	2.003380129963226
O	0.3976775049774195	5.536757824664517	2.046580049963226
O	-0.2305371680225805	1.4187955123345166	3.285786559963226
O	0.6529552149774196	2.366715670664517	3.7245118499632257
O	1.9517041049774195	2.2533818756645165	3.290497059963226
O	2.1801680949774194	1.3329050726645166	2.271934539963226
O	1.1295478849774194	0.8808901156645167	1.463644449963226
O	1.0602008949774195	0.3232848046645167	0.03216202196322593
O	-0.3803561930225805	0.08072750466451661	-0.29785799703677407
O	-0.7658929776225805	1.0969599956645166	-0.8533820760367741
O	-0.7226791280225805	1.7916697816645166	-2.098715740036774
O	0.4665001749774196	2.2764222706645167	-2.533117310036774
O	0.7989192049774194	3.6618529046645167	-2.6890396700367742
O	-0.05106112902258053	4.701948844664517	-2.4990012400367743
O	-1.2036716900225806	4.295928324664517	-1.975504600036774
O	-1.5081694210225804	2.8937919346645167	-1.9410368700367742
O	-0.4826113450225805	1.9624562956645166	0.06931086896322591
O	0.6505041549774195	2.6492734746645166	-0.23170929003677407
O	1.0091856049774195	3.8563888946645166	0.5154801369632259
O	0.027140507977419515	4.531694774664517	1.181517929963226
O	-1.1784225760225806	3.8870807146645165	1.221349389963226
O	-1.4263731680225806	2.7557946046645165	0.34960379796322594
O	-10.414152115022581	-4.442223775335483	-7.847282750036774
O	-11.074354535022582	-2.3298364453354834	-4.787234370036774
O	-12.020727735022579	4.057092024664517	5.254711629963226
O	-9.222526845022582	1.5649834926645168	4.706180889963226
O	-6.849594055022581	4.355780844664517	3.7195490199632255
O	-9.36641468502258	5.750666694664517	1.2838002299632258
O	-9.88462391502258	2.2363341996645167	-0.09013123803677403
O	-6.100593865022581	1.7426358846645167	-0.45320462975677406
O	-5.572704675022581	5.257907414664517	-1.7273456800367741
O	-8.18096573502258	4.938996944664517	-4.400046870036774
O	-6.780987385022581	1.5522611826645167	-5.474820240036774
O	-3.3190243250225806	2.7859342446645163	-5.857146140036774
O	-4.309738925022581	5.906942644664516	-7.860761970036774
O	-5.98661789502258	3.6864803446645165	-10.460241660036774
O	-2.8893709850225804	1.4640975784645167	-10.677449460036774
O	-0.7779618666225805	4.462839404664517	-11.527933260036773
O	1.8248567049774196	1.6120124556645168	-14.498066060036773
O	10.19077396497742	4.272996444664517	-8.605975910036774
O	6.35347560497742	4.298829374664517	-8.583538270036774
O	6.106345604977419	3.2330651446645167	-4.928734460036774
O	8.66585836497742	0.46939116966451666	-5.180137170036774
O	6.73377269497742	-0.7209633153354833	-8.293091590036774
O	3.348034664977419	-0.7107881753354834	-6.460244080036774
O	4.95172872497742	-2.525288475335483	-3.565300350036774
O	6.7518516049774195	-5.230475655335483	-5.5444076200367745
O	3.454439294977419	-5.866439015335484	-7.300031140036774
O	1.5766545649774195	-6.103946505335483	-3.939422520036774
O	4.20765681497742	-8.603298265335482	-2.620371810036774
O	0.3636020749774196	-11.877795065335484	-1.992256600036774
O	-1.5096337120225805	-8.943994465335482	1.660864229963226
O	-3.5889397650225803	-9.082698665335485	-1.529688930036774
O	-4.138059235022581	-5.363692525335483	-2.210630490036774
O	-6.886815625022581	-6.538552905335483	-4.598235430036774
O	-11.58030053502258	-8.513045435335485	-3.142108170036774
O	-9.28872667502258	-6.980047785335484	-0.5455823560367741
O	-7.106601355022581	-9.471564265335484	1.281137939963226
O	-3.2099767050225805	-2.8038239253354833	9.261511429963226
O	-6.393932015022581	0.17978810466451667	12.052611239963227
O	-4.30304203502258	3.0597566846645163	10.695893639963225
O	1.8466504749774195	3.4575653546645166	11.913448939963226
O	0.7146344149774195	1.1514648046645166	9.121694919963225
O	1.2506384849774195	-2.329441905335483	10.618684139963227
O	4.96641796497742	-1.5322436753354833	10.503977039963226
O	4.8109261649774195	-1.2748199553354835	6.7303656299632255
O	2.5308424049774194	-4.358457695335483	6.560562609963226
O	5.04593465497742	-6.339284385335484	8.552021049963226
O	7.828653984977419	-5.477090085335483	6.074424889963226
O	5.705271744977419	-6.266183905335484	3.008495029963226
O	4.54221325497742	-9.624995365335483	4.437893879963226
O	6.32160054497742	-11.893625665335485	0.3224080029632259
O	9.900412164977421	-0.06528722533548326	2.400429239963226
O	9.18919756497742	2.5463144946645166	-0.267380827036774
O	11.115572164977419	5.206730054664517	1.653446959963226
O	9.45624726497742	4.300960064664517	4.888414949963226
O	6.190874154977419	4.252946764664516	2.9763353399632257
O	6.62707050497742	7.7636157246645165	1.6227600799632258
O	7.454692464977419	8.887006424664516	5.136938479963226
O	4.1784255349774195	7.425458884664517	6.419023829963226
O	2.1538119849774193	8.728313774664517	3.465257829963226
O	3.6155257949774198	12.198883734664516	4.008217129963226
O	-5.06490322502258	12.327900034664516	3.828170269963226
O	-4.15337395502258	10.133952134664515	0.809571559963226
