91

O	1.687991715283077	-4.160675883400001	-1.227978598255385
O	1.419751045283077	-3.8218057134000007	0.18655915774461496
O	0.1268549592830771	-3.4212150234000007	0.052014487744615034
O	0.1077414162830771	-2.2073286734000006	-0.5808105512553849
O	0.888431885283077	-2.0082150234000005	-1.6824572682553849
O	1.689802485283077	-3.0409560734000007	-2.087363972255385
O	-0.49952629571692286	-1.0066137834000004	-0.34132035125538496
O	-1.0861271027169228	-0.8956485634000004	1.001026747744615
O	1.9871574752830772	-0.32888229740000047	-2.674044472255385
O	0.9207834652830771	-0.3405221474000005	-3.579561472255385
O	0.46725932528307723	-0.9060198834000004	-4.721713552255385
O	-0.5930276597169228	-1.7729034034000006	-4.249070712255385
O	1.0644367752830772	-1.4442140434000004	-5.9218190022553845
O	-1.6939223887169228	-2.1555808434000006	1.122711437744615
O	-2.2712193947169226	-2.4749811934000006	2.368973397744615
O	-1.5493619987169227	-1.9177166834000003	3.381844477744615
O	-0.5535825877169229	-0.9505222934000004	3.262636117744615
O	-0.2531460837169229	-0.5380598744000005	2.0081188177446148
O	2.2633112452830773	-3.2336206934000007	-3.363338992255385
O	0.3820661852830771	-0.1882371934000005	-0.823404919455385
O	1.3900651652830773	-0.7458433134000004	-1.452166530255385
O	0.6935076752830771	0.3892167902999995	1.597734987744615
O	-2.2594334147169226	-1.6827698734000005	4.564530227744616
O	3.043283485283077	-4.359538033400001	-3.346016552255385
O	3.1312451652830773	-2.3633344034000006	-3.888899762255385
O	1.3354799252830771	-3.9072184134000008	-4.157901512255385
O	-12.393054654716922	-4.4418600034	4.933932747744615
O	-11.977754054716922	-4.142070583400001	1.1945388177446148
O	-7.777235094716923	-0.5476758354000004	-7.630680532255385
O	-4.794918444716924	-2.8425775734000007	-7.793583212255385
O	-6.909119334716923	-5.909295813400001	-7.5556071422553845
O	-8.701502104716923	-4.259403153400001	-4.614644702255385
O	-5.394608574716923	-3.4043827534000006	-2.9085330322553853
O	-3.699033584716923	-6.6643279034	-3.833373512255385
O	-6.574280204716922	-8.6437664834	-2.488123202255385
O	-6.663306954716923	-6.657324353400001	0.733143147744615
O	-2.933794164716923	-7.132399543400001	1.243158727744615
O	-3.145106104716923	-10.9160185934	0.6578977577446151
O	-5.726283564716923	-11.2403969934	3.418731777744615
O	-3.6325126447169227	-9.202265323399999	5.8551424377446155
O	-0.7238135302169229	-11.5617737934	5.256988787744615
O	0.41415304528307706	-10.9790758934	9.971698987744615
O	9.741663145283077	-7.574193963400001	6.482310297744616
O	6.161567115283077	-8.2626349834	5.323096767744615
O	5.911409875283077	-5.181149533400001	3.1061441577446147
O	7.409225525283077	-2.841516043400001	5.681194797744616
O	4.936462865283078	-4.3112499034	8.232431277744615
O	1.9478966652830771	-3.7530673134000008	5.975954587744615
O	3.162764265283077	-0.24536919040000044	5.264729917744615
O	3.812375445283077	0.8460626575999994	8.849013357744614
O	0.3150465752830771	-0.39226669040000045	9.685262687744615
O	-1.2398658087169228	1.5902639665999996	6.739410257744615
O	0.5848073752830771	4.7607236566	7.848340567744615
O	-4.0471312347169235	6.8866522466	8.114754007744615
O	-4.404712834716923	6.6590308266	3.0659008177446148
O	-6.826258764716924	4.444736626599999	4.993305567744615
O	-6.325963294716923	1.1779285625999996	3.242674607744615
O	-9.501837964716922	-0.0750202754000005	4.889726507744616
O	-14.324436154716922	1.4428495765999996	3.408836927744615
O	-11.347343554716922	2.412032296599999	1.2742056377446147
O	-9.901488374716923	5.844346786599999	1.9783064177446148
O	-7.721586034716923	7.032299256599999	-0.907174641655385
O	-3.153960314716923	6.7665150465999995	-6.729119612255385
O	-4.825476604716924	5.7257797965999995	-11.479407412255386
O	-2.068245974716923	3.1465054565999995	-11.551647812255386
O	3.9628516652830768	4.798869786599999	-10.884936512255386
O	1.8175968452830773	4.4933071265999995	-7.762096342255385
O	1.329858715283077	8.1172518866	-6.692852552255385
O	5.0723995252830765	8.149130336599999	-5.979674862255385
O	4.5886922252830775	5.4659978266	-3.343354612255385
O	1.3969361552830772	7.175396686599999	-2.081925242255385
O	3.3290461352830767	10.4036617066	-1.669788763255385
O	5.947258995283077	8.6751281766	0.5092898877446149
O	3.3480999452830775	6.850666456599999	2.622119007744615
O	1.3147101552830773	10.0465793466	3.1544158477446147
O	4.432881125283076	11.9409025066	4.177758837744616
O	5.303816325283076	9.2135407066	6.681806547744615
O	1.8070657952830773	9.4267053866	8.088096377744614
O	2.273403545283077	13.1738256066	8.405288127744614
O	9.202628375283078	2.6732954565999996	0.7264319277446151
O	9.063822955283078	-1.1133868334000003	0.9333746477446151
O	12.054052545283078	-1.4254172334000004	-1.415847975255385
O	10.559242945283078	1.0224297585999995	-3.820292082255385
O	7.284347295283077	-0.8401907434000004	-3.3870379222553852
O	8.943904975283077	-4.1733295434	-4.332494592255385
O	10.356708045283078	-2.5154189434000007	-7.355073472255385
O	6.956471225283076	-1.2574717434000005	-8.467383602255385
O	5.266758555283078	-4.597797193400001	-7.758451042255385
O	7.855688575283077	-6.439580503400001	-9.742654792255385
O	-0.44519054571692285	-8.2906630734	-12.164395112255386
O	-0.6857940676169229	-8.5280772134	-8.369259272255386
