21

O	27.405946528053367	-2.0265743064559225	26.591974007974358
O	25.327240374850252	-1.1767504538497087	26.55660752491218
O	26.518599222126568	-1.1151409117725826	27.218653063044115
O	27.267013495801816	0.07551825165467307	27.349193283495982
O	34.77210465803686	-1.7394654791225683	27.958455236041274
O	28.557354906035943	0.05251275184628079	27.7843880365022
O	29.012434296974966	-1.1949942906016449	28.07370773796348
O	28.39829644884984	-2.333009174084153	27.547818493023357
O	29.394267422292486	1.2228144707908903	27.515261171783987
O	30.48361787016627	1.2838542708058587	28.47326738957876
O	31.06316344742237	-0.03100148315110468	28.308369153500283
O	30.437089904106866	-1.2643987178992897	28.28020285072768
O	31.971819237993977	0.2112911813139184	27.222175108667315
O	32.78791142570436	-0.9576423016956017	27.043764002016562
O	32.36632377123125	-2.2505019557140518	27.644968062999585
O	30.938210711070727	-2.2150558942047716	27.246107278833577
O	32.9113157144086	1.2589140548340594	27.933457507882807
O	33.53676296587641	0.15531276954616902	28.8387784982369
O	34.01310866578932	-0.6201784272153439	27.754128774812184
O	33.20673051141169	-0.9593166283899275	25.652322953811392
O	32.64995388092355	-0.39610085487731317	29.874273497164264
