27

O	33.00372344430617	0.5564310586314605	28.61171371400592
O	32.04839299775679	1.6905473662565687	28.057242848649594
O	31.044854634034458	1.8311204474577685	29.09029214304554
O	29.90419785166134	0.821499527453783	28.677599148609374
O	28.618104912335124	1.0958160184166514	28.377871296158546
O	27.99338280955009	0.023166861374425807	27.738512767219564
O	28.935920577451697	-0.8130825277937628	27.106146878745083
O	29.831107898646458	-1.377331033225607	27.920104651972206
O	30.50306448530789	-0.4512800789240949	28.721745127317323
O	31.857659990818117	-0.3302887996173867	28.21404903888965
O	31.40471560344579	0.7013003373701402	27.133661853315598
O	32.518902563693906	0.6108179651667577	26.236663527519944
O	32.568125980362296	0.6453874026443726	24.826101601516417
O	31.756689467915624	0.2107475889478163	23.731052317498214
O	33.53288303399418	0.1963550508291131	23.767907004124247
O	32.608101825314655	-1.3470971312441824	27.491504291346583
O	33.73971383801727	-1.295351134692519	26.75600757319367
O	33.646880838942295	-2.3586276594169284	25.745958446560532
O	32.7029315066349	-2.442361539734107	24.8073654412626
O	31.505098354328954	-2.450844345951518	25.512913914811566
O	31.682116591946738	-1.4548585695707175	26.573727824636517
O	33.04585953171878	-2.8272059881214524	23.447672403080063
O	32.336643298022175	-3.43466996382148	22.333993053903185
O	33.40573950762552	-3.9119671450744318	21.363591954956647
O	33.127040778976706	-5.02549755064041	20.811861024385653
O	34.038921837923624	-3.109787788286277	20.440161370472545
O	26.767580213837327	-0.35684010383854614	28.137774802621923
