20

O	26.190878946528333	-1.9793512130649498	27.726978446058805
O	33.2659231323406	-1.2871901660101863	25.029562614330715
O	24.490790077061142	-1.191205906829552	29.07588724479421
O	25.69681223724243	-0.9144835438414556	28.475205131056143
O	26.523009437614466	0.15683812751446657	28.818687485574248
O	27.892638546985	0.12616925195926149	28.652231464498804
O	28.318928795288503	-0.885973008807809	27.815597645996707
O	27.490027152421042	-1.8764634536290221	27.33182455212814
O	28.836011183003	1.173454882066189	29.18065633388365
O	30.1332395307096	1.1862368736305433	28.42290867556316
O	30.498747971627996	-0.20602317345721122	28.51619278326294
O	29.660820483631163	-1.3352096331589536	28.15298404306161
O	31.774772886271666	-0.6755058387606407	28.196332318837502
O	31.52267262745522	-1.00891507744509	26.789998590662904
O	31.03701580881812	-2.428837941375078	26.492246862307898
O	30.032954346714977	-2.5959890899063387	27.53471812170776
O	33.02142172142717	0.07222361763685153	28.378416874726447
O	33.217733029402865	0.39345033982133804	26.94314272969349
O	32.93113179912107	-1.0539668025295867	26.371823601806305
O	30.51542176667002	-0.24297706960798027	26.041005811163206
