86

O	-1.1921760703317459	0.7554149519999991	2.5907776922603176
O	0.5811306876682542	2.335808216999999	0.1020091042603174
O	-3.879918162331746	0.5274072209999991	-0.8575870167396826
O	1.1169030876682542	-2.963080443000001	-0.5327969526396825
O	-4.466520982331746	2.1016298769999993	-1.1251472187396825
O	-2.5330168923317458	0.6305264569999991	-0.20964324173968257
O	1.2469113876682543	-2.151305003000001	-3.0346296777396824
O	-2.055380072331746	1.324341006999999	-1.2813429607396825
O	-4.898409372331746	2.937958576999999	-0.025228511739682546
O	-3.2437244423317457	1.506264118999999	-2.1980806077396826
O	-5.522973152331746	2.661159106999999	-1.9799277777396824
O	-1.4641589023317458	-0.22436909300000096	0.21001678726031747
O	-0.7562437503317458	0.8395967339999991	-1.3633807507396827
O	-0.8807262944317459	-0.3518413430000008	1.3347303422603174
O	0.07964843766825414	-1.3567812330000009	1.0230662222603173
O	0.10117325766825414	-2.3319622030000007	0.15926659226031747
O	-0.9396670710317458	-2.4278290930000006	-0.7602979697396826
O	-1.8621493753317457	-1.4438560630000006	-0.4613741447396825
O	0.33765173766825407	0.9423610875999991	-0.8668193137396826
O	1.1548541276682545	0.004693944999999089	-1.5664147427396826
O	0.8203917476682542	-0.9241853630000009	-2.4956316577396827
O	-0.1784839623317459	-0.571876243000001	-3.3799481777396823
O	-0.8789211348317458	0.4088111029999991	-2.7394088277396826
O	-1.2237116533317458	-13.168407483000001	-2.5456121977396826
O	-4.020730232331746	-11.456522983000001	-0.6953831566396825
O	-11.933519002331746	-4.847579863000001	5.465924922260317
O	-8.195278662331745	-4.198991553000001	5.606955262260317
O	-8.490051162331746	-1.3788475530000008	3.0640722822603177
O	-10.558060882331745	-3.5864811630000006	0.7578150222603174
O	-8.020756882331746	-6.399993513000001	1.1926164622603173
O	-5.216941562331746	-4.009170333000001	0.5059305522603174
O	-7.042918262331746	-2.173519443000001	-2.3787528477396824
O	-7.704603432331746	-5.356488503000001	-4.097743887739683
O	-4.050661762331746	-6.442168823000001	-3.7746817277396825
O	-2.799372432331746	-3.1277770530000004	-5.197573747739683
O	-5.152247662331746	-3.273841653000001	-8.197323667739683
O	-3.827649742331746	-6.703053463000002	-9.153224127739682
O	-0.2016706543317459	-5.564903163000001	-8.859812037739681
O	-0.8980649624317458	-2.7842488530000007	-11.295728967739683
O	-1.372875871331746	-5.190311513000001	-14.179255267739682
O	1.9305333176682544	-6.832396733000001	-13.418171867739682
O	3.589535537668254	-3.4408679130000004	-13.063533267739682
O	5.139179927668254	6.741063696999999	-10.590160797739681
O	2.7938029676682543	3.7810169569999994	-9.895487447739683
O	2.495774427668254	4.582085096999999	-6.247512197739683
O	6.2738183676682535	5.110878686999999	-5.656452127739683
O	6.848532027668254	1.775325464999999	-7.545553827739683
O	4.437597597668254	-0.17505521300000082	-5.4580463877396825
O	5.893543617668254	1.4211230279999991	-2.2161034677396825
O	9.434601397668255	0.5628186189999991	-3.0311456877396825
O	8.271928177668254	-3.000468933000001	-3.7157933277396826
O	6.438460357668254	-3.224917903000001	-0.36109105873968256
O	9.527671497668255	-1.900545123000001	1.4836053122603174
O	9.440495597668255	-6.226354423000001	4.165727402260317
O	5.113366857668254	-4.744633883000001	6.341486122260317
O	4.8463858476682535	-7.766619973000002	4.034355742260317
O	1.979648007668254	-6.769172073000001	1.8449999022603176
O	1.6663738476682544	-10.283961283	0.6846140422603174
O	-0.17792035933174588	-14.276453883	3.6364454622603177
O	-0.5645128203317459	-10.719699383	4.878501332260317
O	2.1710981176682544	-9.527368383	7.241319602260317
O	-2.3815996323317457	0.0022120939999991096	10.697779732260319
O	-7.745241742331746	2.641665486999999	9.404704132260319
O	-4.601520222331746	8.093589167	9.341886842260317
O	-2.879577282331746	4.930286326999999	8.023260732260319
O	-0.3531560493317458	4.214963276999999	10.816388432260318
O	1.3709715176682544	7.414011636999999	9.713116332260318
O	2.0288763176682543	5.9092063869999985	6.292620092260317
O	2.9195948976682544	2.554880286999999	7.859593162260317
O	5.443211017668254	4.293065896999999	10.082590632260318
O	7.143620867668253	5.872020166999999	7.057662702260317
O	7.175939147668253	2.639843276999999	5.070524502260317
O	8.585236697668254	0.6662014579999991	8.028669182260318
O	12.431805197668254	-0.7113188430000009	5.164521672260317
O	5.356772857668254	8.642555826999999	1.1076346122603176
O	3.7237574976682546	8.418857616999999	-2.2890440577396824
O	2.448306447668254	11.983697217	-2.0746446177396827
O	1.280012167668254	11.560845417	1.4563810522603178
O	-0.22512335133174588	8.282445757	0.33478978426031747
O	-2.234777992331746	9.863239127	-2.4570022877396824
O	-3.4167167723317458	12.512306117	0.0021067282603174364
O	-4.709906992331746	9.808763927	2.3573392022603175
O	-6.215744542331747	7.721614086999999	-0.48022832373968255
O	-8.023015312331745	10.807498337	-1.7805529277396825
O	-13.413857102331745	4.043033746999999	-0.5821109522396826
O	-10.548667132331746	2.411026666999999	-2.4782126877396826
