23

O	32.56644760801574	-0.030966595906593508	29.821383018522425
O	31.150055343316392	-0.8815700959823458	25.652820430194858
O	30.10663309592032	-0.8450598708884687	26.28908434625581
O	26.680431656471534	-0.041513621351828345	28.548343180064023
O	27.76349432462633	0.006965693683807617	26.69381677425004
O	32.225987269277525	-0.12407293642258743	25.093409316254196
O	32.21025603466771	1.0932469234305282	25.965321095309356
O	33.285101007135495	1.3553405117631312	28.02933028576519
O	33.80167252743164	-0.03886606573877771	27.986247735975684
O	30.81059896297212	1.4968316132325186	26.499809284797497
O	31.848623000911683	1.131215696377914	28.266962046871548
O	30.276147697560717	-0.8571694146492772	29.087148427503458
O	26.656285689290332	-0.6387171164999716	27.316905051337713
O	27.966366549103046	-0.250687591360636	29.071308803307762
O	29.044533549353936	-0.34707474949325867	27.117419361341412
O	29.06224910252707	-0.6656995435189652	28.394791955787177
O	32.792986470404024	-0.9660090074775569	28.45822271169244
O	30.934349146729648	2.0860499152146446	27.930833052004076
O	29.966831321949385	-1.49866596365787	30.20048930926101
O	25.547607825581906	-1.2760629547797888	26.76647838753229
O	28.137292681052415	0.4171637182703627	30.228622123065964
O	29.70427470291025	2.3883523876449706	28.465581746118747
O	31.445098067422677	-0.9368812133780746	28.367380971476937
