17

O	28.08296856466538	-2.528572086007314	27.926946915692934
O	27.02583741977702	-2.5877492462121876	27.102895431734755
O	26.219989585807994	-1.4861512402871346	26.829192848503737
O	25.208380384560275	-1.87895613194193	26.01543637411059
O	26.437052192693194	-0.41898775674610633	27.681443782040848
O	27.748581541702567	-0.26184036027856217	28.219026896937486
O	28.924316774482687	1.0138222686282696	28.46217521165478
O	30.323663950252367	-0.05881719940812585	28.380472751356947
O	31.427600477020064	0.25909325838430675	27.517004355343186
O	31.10012769372667	0.7093339860194386	26.27835487083248
O	31.178720261047697	-0.1588152072164032	25.121451268214678
O	32.24799963408138	-1.0506390687017513	25.078521692404706
O	33.313586404504726	-0.977150439425452	24.168519020274868
O	32.261458905511645	-1.579847668077877	26.321486894313914
O	32.1590038716573	-0.7956553136346737	27.518331370955746
O	28.664300930525023	-1.2459787898740728	28.110693660891158
O	29.686556402011337	-1.0084872403198903	29.023098454833
