30

O	32.17880962232603	-2.3531520750429205	25.194768000625835
O	31.919118706789888	-1.484399898741651	24.15900618665259
O	32.86815250098443	-1.6557803877325235	23.191624289833317
O	34.13620819204985	-1.2775738800938141	23.691025264835964
O	35.00946528700414	-1.3485552888642645	22.578066650007685
O	34.43339508469477	-1.8854979292972323	24.879168857597257
O	33.45206893927478	-2.6118884270612046	25.525999028203717
O	31.136546696757307	-2.452489897311256	26.167599058033655
O	30.381139917599498	-1.1384512310161226	25.92943980629729
O	29.729302698672395	-1.064554480383366	27.185029012523543
O	28.80370532637604	0.03859707306042509	27.505077146239348
O	30.869930492561974	-0.8284920761644898	27.860230048062625
O	31.12043721015685	-1.4367511927532945	29.09421828711498
O	32.03890464984565	-2.188728934375614	28.61676536126048
O	31.815045608232285	-0.40741230780564425	29.946165597288346
O	32.3728093066006	0.3059326244006518	28.75210839889963
O	33.0462006923073	-0.4755987235122537	27.861237006149427
O	33.056645211393636	0.20113427802341194	26.638281608419735
O	32.17413929931678	1.082890713844653	26.537629705198107
O	32.554890916268775	2.3812863420178965	25.98943284189381
O	32.94665545630067	3.2115777906349776	27.183110043217248
O	32.083222730114066	3.19623213593639	28.14141991737095
O	31.00741849577314	2.1988575700615676	28.23316936688831
O	31.492621415358602	1.0285913576581156	27.809138841840316
O	34.42895388347926	-0.6488590853222287	28.521944604653378
O	35.136296454257405	-1.6387757577051276	28.026002573119957
O	36.3989013541145	-1.7424408861943201	28.54107859536889
O	37.12668389549938	-0.6521583094119394	28.9309818632208
O	36.429395709143336	0.5236506814932627	28.933065212807175
O	35.203189687038865	0.5179417960050652	28.368462129081593
