87

O	1.4460149771428574	-0.4497409720793651	-2.8446547141063503
O	2.3069679671428576	-3.166143320079365	-4.89608040410635
O	1.8749373671428573	-0.9623532400793651	-4.06625672410635
O	1.601550107142857	2.333570229920635	-3.9166725641063502
O	1.3773823571428572	-2.1496855200793648	-4.58284226410635
O	-0.7352344918571427	-4.297056920079365	0.9431193858936502
O	0.10278358714285729	-2.386600380079365	-4.14994965410635
O	-0.5093215328571428	-1.3241170200793653	-3.39406846410635
O	0.2788635171428573	-1.0291502900793652	-2.3671274641063498
O	-0.38727095685714275	-0.7472233800793651	-1.13829218490635
O	-0.7721918238571428	0.6538422079206349	-1.31830977910635
O	0.028015022142857227	1.7090846999206348	-0.87182997010635
O	0.8392690871428572	2.188178629920635	-1.86920892610635
O	0.4478157271428571	2.444579029920635	-3.13443653410635
O	-0.47481203585714277	1.519949749920635	-3.47741503410635
O	-1.2904957368571428	0.9428048939206348	-2.5447931441063503
O	0.6429164971428571	-0.6633678800793652	-0.11084662410635004
O	-0.3164384958571428	-1.662848150079365	0.31549929589365
O	-0.41909094685714277	-2.601959270079365	-0.84048437810635
O	1.8285824671428574	-1.2178185300793651	-0.6847620611063501
O	1.7795246071428574	-2.508015050079365	-1.35219926410635
O	0.9327208071428572	-3.250948130079365	-0.44087223910635
O	0.3401501071428572	-4.425029350079366	-1.30643547710635
O	-0.6774589828571428	-4.9342748400793655	-0.26514041710635006
O	-7.880121882857143	9.256434909920635	-6.47267874410635
O	-9.083665982857143	5.709771999920634	-5.97481539410635
O	-11.851023102857143	-5.636217610079365	-3.51384828410635
O	-9.563622392857143	-3.606091380079365	-1.27711109310635
O	-6.470592922857143	-5.1823860800793655	-2.84169763410635
O	-7.815029782857143	-4.505812170079365	-6.29515562410635
O	-8.519455272857144	-0.9211199200793652	-5.19417868410635
O	-5.034443952857143	-0.6234029700793651	-3.73301208410635
O	-3.4471206128571428	-2.459567140079365	-6.66303326410635
O	-5.005792582857143	-0.2822210850793651	-9.17234706410635
O	-4.0917584528571425	2.887051679920635	-7.35785770410635
O	-0.44886808985714277	1.6409268299206348	-7.13728961410635
O	-0.13079859985714282	0.9325756449206348	-10.706014104106352
O	-1.2973144268571428	4.4258853899206345	-11.69355993410635
O	1.1878927771428571	6.056620409920635	-9.31770963410635
O	3.997437087142857	4.186115109920634	-11.00788222410635
O	6.810811417142857	8.096458749920634	-10.295836174106348
O	13.144626397142858	1.5800290499206349	-4.93309109410635
O	9.575221397142858	1.8296690099206347	-6.29381804410635
O	7.874097237142857	0.2770340749206349	-3.24084086410635
O	9.948920297142857	2.3168845499206348	-0.72269172410635
O	9.015660077142858	5.442473689920635	-2.7752174741063502
O	5.367404747142857	4.634158839920635	-2.78978689410635
O	5.469589667142857	3.9079521599206353	0.94851303589365
O	7.230847397142858	7.054056559920634	1.9837456858936502
O	4.643076597142858	8.999115589920635	-0.006682644106350111
O	1.7262932071428574	7.123688099920635	1.7174730458936498
O	3.243287337142857	7.816388879920635	5.16577413589365
O	-1.1659360458571428	10.134793089920635	6.27724675589365
O	-3.521186862857143	5.664793039920634	6.14446189589365
O	-4.471934032857143	8.082338329920635	3.36492490589365
O	-4.081058342857143	5.922880789920635	0.29644513589364996
O	-6.106742242857143	8.537231049920635	-1.59578627410635
O	-11.300526402857143	9.271993739920635	-1.07071447340635
O	-9.672904092857143	6.251946729920634	0.55157620589365
O	-8.686613482857142	6.709549419920634	4.16713703589365
O	-8.126118342857144	3.3502984799206352	5.85409664589365
O	-6.431507372857142	-3.768501470079365	6.87043790589365
O	-9.687781732857143	-7.579572670079366	5.62007032589365
O	-6.736434502857143	-8.905814800079364	3.59320808589365
O	-1.3697122668571429	-10.570020510079365	6.41394104589365
O	-1.9642916328571427	-6.931459920079365	5.61972886589365
O	-2.6229253228571427	-5.401035340079366	9.09316716589365
O	1.0198368771428572	-6.201227820079366	9.842772065893652
O	2.151536177142857	-3.901838770079365	7.0532696858936506
O	-0.5095455778571427	-1.312515980079365	8.02371002589365
O	0.8126395271428573	-1.3237604400793652	11.560262265893648
O	4.348133117142858	-0.5507193500793652	10.334736465893648
O	3.1906517871428575	2.159934239920635	7.89371621589365
O	1.0442018271428573	3.8191291499206352	10.601728565893652
O	3.5994632271428575	8.049661209920634	9.99600336589365
O	8.478842417142857	-2.328798000079365	5.1989243558936495
O	9.174068497142857	-2.477384750079365	1.46911191589365
O	10.867956897142857	-5.872465440079365	1.8153292258936502
O	8.103104917142858	-7.192109680079366	3.96668766589365
O	5.673638217142858	-5.642803230079365	1.47857393589365
O	7.2149398371428575	-7.439372930079365	-1.47672544710635
O	7.071117787142857	-10.652532810079364	0.5233830058936499
O	3.337318827142857	-10.139335410079365	1.08085313589365
O	2.756959627142857	-9.135634510079365	-2.55502219410635
O	4.566951637142857	-12.174424910079365	-3.76505862410635
O	-3.4654751228571428	-11.467368310079365	-7.12691078410635
O	-2.086225402857143	-7.942325090079366	-7.51463598410635
