32

O	31.586319355356316	0.666266348577023	28.82358269173743
O	34.17539714793057	-2.4720386641687506	29.18244999627713
O	35.395666154767646	-2.2313569101802577	28.604086944741297
O	36.73890248232681	-2.5056166612224353	29.220442000967953
O	32.90809083717698	-1.098826325030948	30.334363675260654
O	33.28037743108203	-1.3425515406230712	28.958100998112464
O	35.19245056036591	-1.9831401097944568	27.2892922671869
O	32.324958100327294	-2.714841434202899	27.76330662893037
O	33.65168578475951	-0.2150234573581007	28.330850500032916
O	34.41521105813853	-0.7955418329586477	27.288518827074675
O	35.42006120713822	0.3256377785441061	27.022995127383936
O	32.16950797948927	-2.6113811698422373	25.690269669640525
O	32.34128456310983	-1.6832928448291054	26.80496905524289
O	32.16703228591477	-0.28888130421236574	26.53639719147203
O	30.892571608603287	-0.5187662339429076	28.56632636404365
O	29.97703756883686	-1.180469175904681	29.407768847690967
O	29.581196621148354	-2.226716837056368	28.52018242895823
O	31.788498342976286	-2.197388733799971	23.13066488501068
O	32.095958652667484	-1.9362382711672894	24.474582197045812
O	33.36231560756021	-1.3235366166072184	24.60882793460835
O	33.125404690613244	-0.2639129015139024	25.597203745708967
O	31.360786001764414	2.0379326016596857	28.815207348280783
O	30.085927653265028	-0.12192632925421254	27.428223531874814
O	29.556899359037853	-1.178428587114757	26.600354399500574
O	28.801573489767893	-1.9348733507169746	27.406669532805985
O	34.349923581139024	0.4731205601878653	25.277188905628115
O	32.60499428658408	2.647702388220627	29.46362081484704
O	27.502019871042982	-1.5662112624807196	27.533607050814958
O	32.567355728553245	0.5615028212731321	27.719231984786454
O	33.818753469647085	2.301304254887318	28.949991958151227
O	32.585732694091	2.2159980931371726	30.75405721359242
O	32.478876093096275	3.9704037523281412	29.230433079673713
