84

O	-0.7137608669234375	1.4159552061250003	-1.4467148472828129
O	-1.4359930542234376	1.1559150201250004	-2.553420724282813
O	-1.7976189402234377	-0.1946530878749998	-2.729451714282813
O	-1.9702948082234375	-0.4337522078749997	-4.091114834282813
O	-1.5128066702234375	-1.095360897875	-1.6913668742828127
O	-0.6076678602234376	-0.7511740078749997	-0.6729351092828129
O	-0.2708466922234376	-1.5703865178749998	0.5463505957171872
O	-1.973223437534699e-06	-0.5914539978749996	1.633935415717187
O	0.33544719177656246	0.7757413111250003	1.1683167257171871
O	1.1295005217765623	0.9009867730250003	-0.08628961828281284
O	0.15318944677656243	0.37145913212500026	-1.0458067182828128
O	1.4403949717765623	2.3249705321250005	-0.5029678325828129
O	2.2540387717765626	3.1135425921250004	0.4276969997171872
O	1.8873090417765623	2.6746507321250004	1.8193122757171873
O	1.1362269117765624	1.4554486831250002	2.138720035717187
O	1.7486693917765623	0.4737627331250003	3.0629628257171873
O	2.7007728217765625	1.3753043171250003	3.752612105717187
O	2.8561281617765624	2.6971716821250005	2.924520045717187
O	2.8221649817765626	3.8075419521250002	3.735262475717187
O	0.9401061917765625	3.8373350521250003	2.1112371957171874
O	1.1400300917765624	1.4978333391250003	-13.411139714282813
O	4.026129911776563	2.503120822125	-11.232999914282813
O	12.671725861776562	5.026832472125001	-3.4322733542828128
O	10.224485861776563	2.1992841321250003	-2.867452564282813
O	8.167284881776562	4.4130656821250005	-0.5782634611828128
O	8.133224111776562	7.196471032125	-3.1155239842828126
O	7.123792801776563	4.646975582125	-5.749209064282812
O	4.332696651776562	3.285888282125	-3.5456898642828127
O	3.2888024017765622	6.786071962125001	-2.3398879942828126
O	3.0117308117765624	8.061440162125	-5.787690434282813
O	1.0002166817765625	5.045097872125001	-6.903692964282813
O	-1.3975758842234376	5.435943272125001	-3.953283484282813
O	-1.9866080882234376	9.059423562125	-4.590061654282813
O	-3.0110753482234376	8.440910472125001	-8.227693354282813
O	-5.405893198223438	5.670407282125001	-7.188809734282813
O	-7.161032928223438	8.075408512125	-4.889678644282813
O	-8.570166188223437	10.107639512125	-7.781299194282813
O	-9.979737908223438	6.994692292125	-9.352090554282812
O	-11.358835738223439	5.857373252125001	-5.993652064282813
O	-12.100165838223438	4.046256932125001	4.367383905717187
O	-9.557769208223439	5.042062002125	1.6904085757171874
O	-6.6708827682234375	2.9337151621250004	3.029515315717187
O	-8.903284218223439	-0.15191203787499974	3.584498395717187
O	-10.206827658223437	0.29185782112500025	0.008616544717187202
O	-6.727339228223437	0.5202663611250002	-1.4216612612828128
O	-5.667301508223437	-2.5303076878749997	0.6072445057171871
O	-8.554678528223437	-4.758852917874999	-0.36204958028281287
O	-7.855241918223438	-3.9057879578749994	-3.978224044282813
O	-4.109533398223437	-4.775710987875	-3.612631704282813
O	-4.969911368223437	-8.111552047875	-1.9778208342828127
O	-2.2149879382234374	-10.204453557875	-5.729062554282812
O	1.9912055917765623	-8.264431897875001	-3.717503184282813
O	0.9784767217765624	-6.813899577875	-7.078503804282813
O	1.0968830317765623	-3.1065942478749995	-6.354213084282812
O	1.0795425717765623	-2.5732681178749996	-10.142696044282813
O	5.144738871776562	-3.4691510678749995	-13.319025314282813
O	5.653535141776562	-3.6211588178749996	-9.557153524282812
O	5.365244601776562	-7.087549217875	-8.070024044282814
O	9.362102161776562	-5.001715137874999	1.995149335717187
O	11.737619361776561	0.04058490112500024	4.565620685717187
O	8.609470961776562	-1.690509857875	9.793951285717187
O	7.060545121776562	-2.4718302678749997	6.410862635717187
O	7.473300191776563	-6.243476497874999	6.102581535717187
O	5.012579451776562	-6.462573047874999	8.996016615717187
O	2.3102150417765626	-4.909716457875	6.896135985717187
O	3.406353261776563	-6.916656307874999	3.820690535717187
O	3.0600131017765624	-10.068162357875	5.858160805717187
O	-0.5383578632234376	-9.187672757875001	6.7899933057171875
O	-1.4899570642234377	-8.231886307875	3.231933645717187
O	0.05356654977656239	-11.410717257875	1.792569585717187
O	-1.7745241022234377	-13.542213257875	4.3414171557171874
O	-4.381855078223438	-12.584992157875	-0.21276360928281285
O	-4.152782538223438	-3.651744567875	8.472849075717187
O	-5.444863578223437	-0.19087978787499982	7.602796615717187
O	-5.037507978223438	0.9845581441250003	11.194413185717186
O	-1.6092909202234376	-0.5036676278749997	11.445506185717187
O	-0.9019793369234376	1.0206963701250003	8.074878155717187
O	-1.8794671282234376	4.527390762125	9.185458765717188
O	0.29590246177656243	4.054215372125	12.234622985717188
O	3.291388571776562	3.1968512121250003	10.072671485717187
O	2.5477939617765624	6.0012286421250005	7.564612215717187
O	2.2919793817765624	8.504658142125	10.414239085717186
O	7.872163181776562	11.041587842124999	4.177866085717187
O	4.804695081776563	9.933234632125	2.1510603857171873
