87

O	-3.8234172635242425	-2.31765077719697	3.679559278962121
O	-3.7570982735242424	-1.3006558371969699	-1.0276801460378788
O	-4.034691753524243	-2.3139898471969698	-0.04614657203787875
O	-3.6937507835242425	-1.9450735571969697	1.2600662389621213
O	-3.9694602435242423	-0.6263009571969698	1.5074062389621212
O	-3.4242027135242425	0.20680077580303025	0.4919252889621213
O	-3.129710783524242	-0.13718681019696977	-0.7481245830378788
O	-0.6263453275242424	-1.5181153371969698	-1.9677159710378787
O	-1.5726802705242424	-0.5861379671969698	-2.185736111037879
O	-1.1940863675242424	0.08979717980303026	1.2341273689621213
O	-1.8177555585242424	0.2924787738030302	-1.1079437690378788
O	1.2750232264757575	0.24218308580303016	1.4533403489621213
O	-0.9521144165242424	0.11477040980303022	-0.0005204320378787708
O	0.21617523647575765	-0.5262529271969698	-0.2866375420378788
O	2.2570638764757573	2.1100087328030304	-2.6973073610378786
O	1.4486072864757575	-0.04732316219696975	0.14905998196212122
O	-3.597417493524242	-2.7487991671969696	2.3669585589621214
O	2.3654842164757577	0.5528731418030302	-0.7193076530378788
O	2.0272169664757573	0.9927606608030302	-1.9584070510378788
O	0.8990572764757576	0.3359008608030302	-2.4434316010378785
O	0.38278929647575755	-0.7583271171969699	-1.6119404310378787
O	-2.3922443735242425	11.60506885280303	-7.188446161037879
O	-4.802959863524243	10.719553382803031	-4.430511961037879
O	-7.8346310835242425	6.30177405280303	4.477960408962121
O	-8.621182803524242	2.8256991628030304	3.126530738962121
O	-10.993127233524243	4.24409077280303	0.5487562089621212
O	-8.300038353524243	6.77266461280303	-0.36065717703787875
O	-5.668397593524242	4.03044516280303	-0.6261612274378787
O	-7.906247423524242	1.5015404698030301	-2.302771331037879
O	-9.014797113524242	4.0596720328030305	-4.9023565710378785
O	-5.373183753524242	4.96463417280303	-5.567159351037879
O	-4.381651233524242	1.3005626188030304	-5.951592521037878
O	-7.262926673524242	0.6667598568030302	-8.43982600103788
O	-6.178559133524242	3.5128232228030303	-10.72513567103788
O	-2.5772584035242425	2.31331323280303	-10.727386471037878
O	-3.7251664635242427	-1.0627574371969697	-11.936718171037878
O	-1.3049428282242423	1.8523692028030303	-15.76599927103788
O	0.3595510864757576	-1.3561612571969697	-14.58852727103788
O	2.2591906964757573	-10.164048447196969	-9.059123581037879
O	0.08286040647575765	-7.02278031719697	-9.016523501037879
O	0.35169678647575764	-6.36098480719697	-5.248955191037878
O	4.159381976475758	-7.01491963719697	-5.210443381037879
O	4.481931786475758	-4.59624034719697	-8.179531911037879
O	2.4659467364757575	-1.8945411071969698	-6.487772581037879
O	4.5534292464757575	-2.42472937719697	-3.299376191037879
O	7.9604223964757574	-2.2240674271969696	-4.882342701037879
O	6.804283416475758	1.0088964528030302	-6.542941221037879
O	5.652060186475758	2.50975734280303	-3.2020113210378787
O	8.949595466475756	1.5910974128030302	-1.5045555190378788
O	9.282578066475757	6.5804871428030305	-0.4089907060378788
O	5.430264176475758	6.19329621280303	2.8299605489621213
O	4.6979065664757576	8.20479343280303	-0.3062302580378788
O	1.4472077464757576	6.72005539280303	-1.5242594430378786
O	1.0650531264757575	9.76980601280303	-3.7350247410378787
O	-0.26617916352424253	14.553224152803029	-1.9645156110378788
O	-0.42473653752424245	11.576087052803029	0.38884184596212124
O	2.665770456475758	11.09380675280303	2.5200743289621212
O	1.9272908164757576	8.904552422803029	5.541809408962121
O	-1.2718897252242425	3.5769440228030303	9.643573128962121
O	-5.836938553524242	4.24215702280303	11.94829982896212
O	-6.829783943524242	0.9969539518030301	10.23498752896212
O	-3.7938778335242427	-4.3590128171969695	11.360647128962121
O	-2.2771663285242423	-1.9137417971969697	8.793534158962121
O	0.6824198464757576	-0.5237154171969698	10.829101628962121
O	2.1593387364757577	-4.011893077196969	10.564251728962121
O	2.2363608664757573	-3.7210875171969695	6.7757787489621215
O	3.470455736475758	-0.11411610019696983	7.067671698962121
O	6.324018206475758	-1.2244128671969698	9.291291228962121
O	7.467996726475758	-3.8177368271969696	6.727240458962121
O	7.209245876475758	-1.4012957071969696	3.7948606489621213
O	9.104473166475756	1.3646734128030302	5.657858038962122
O	11.836981366475756	-1.0983142971969697	6.532085318962121
O	12.100038766475757	-2.1527468171969697	2.8786902389621214
O	12.388919866475756	1.4744508548030302	1.8762478689621211
O	15.138044266475758	1.8828724228030302	4.447147458962121
O	4.601711786475758	-8.214462997196971	2.3346694089621214
O	2.329946466475757	-8.90266373719697	-0.6194311771378788
O	1.1198745664757574	-12.157417647196969	0.9472503189621213
O	0.5741921264757575	-10.52926484719697	4.265218688962121
O	-1.0956417155242424	-7.6787848771969704	2.3700814089621214
O	-3.5328487735242424	-10.03650314719697	0.6396124289621212
O	-4.287486843524243	-11.572925947196971	4.002895908962121
O	-5.134479673524242	-8.142479867196968	5.4352992789621215
O	-7.196944083524242	-7.20735718719697	2.392463158962121
O	-9.134056543524242	-10.385424447196971	2.554003798962121
O	-14.229964133524243	-3.17275211719697	2.3478872389621213
O	-11.691131333524243	-2.4555420571969697	-0.44130377903787876
