25

O	35.50254861960269	3.2199770597383526	29.107775940296328
O	31.018070272403342	2.599921628103632	29.014217106589058
O	30.960058677602824	1.8358535375172438	30.053219293718495
O	30.513207735902945	0.5298893369259189	29.774719027279183
O	30.658962147386866	-0.32972295960117304	28.67161897507214
O	30.061701687161502	0.5512399668775964	27.596700844551233
O	30.552751115729734	1.9942647416299852	27.861422706694924
O	30.351453727812324	-0.31974817494557695	26.59632257049371
O	31.041832349684505	-1.5485758041672963	27.05791425042056
O	30.491701784825047	-1.662669963848356	28.15168716227738
O	32.444731515636164	-1.4070417775995054	26.760212892926134
O	32.88268469572206	-1.1363454729139721	25.49458428482674
O	31.635335890147918	-1.6185563553205768	24.77533144773048
O	31.01009702552759	-0.30240120858339103	25.189944586541895
O	33.45605603076906	-2.3629239852740067	24.576818633846987
O	33.02379794324968	-3.070723383870514	23.42280111616771
O	33.468884987257994	-3.4008754489641015	22.166942507498327
O	32.98453607399391	-4.464940673017617	21.64342295450041
O	34.12185981647691	-2.7645548698638134	21.126068930703696
O	33.254381221523985	-0.39081705394895444	27.527920775724294
O	33.450073158569104	-0.17299127014954283	28.852310011380737
O	33.911021403086266	0.9420374351368489	29.545148633423942
O	34.34465518624657	1.9647544390803753	28.79330578259454
O	33.813005520980575	2.021294726184376	27.56435127675471
O	33.30046734953363	0.900593259300266	27.007643515128784
