86

O	-1.5011845050156254	-0.4062563420624994	3.364855758875
O	-0.35845751701562545	-0.08691744706249938	2.5367693988749997
O	1.0341985179843745	0.1419257819375006	2.6423685088749997
O	1.7176069879843747	0.5798822751675007	1.4045730488750001
O	1.6294242379843746	-0.41200991606249937	0.4183015758750001
O	0.29023958798437466	-0.7994177150624994	0.29102326787500005
O	-0.6603571450156254	-0.45462648506249936	1.274647428875
O	-1.5359537280156255	0.14888996393750065	0.4100140948750001
O	-2.1362459420156252	1.5053109529375006	0.6455121318750001
O	-1.4485590980156253	-0.023772970062499343	-0.8459244111249999
O	-0.3999239910156255	-0.7803162050624993	-0.923378592125
O	0.37376958798437454	-0.6019372950624994	-2.131321851125
O	0.9050761279843746	-1.8532115250624992	-2.158779231125
O	1.9403454279843744	-1.8402552350624992	-3.187486651125
O	2.1930006879843744	-0.6877053350624994	-3.941748511125
O	3.389521987984375	-0.20548719406249938	-4.455617811125
O	1.2041680179843746	0.30348870493750063	-4.023675761125
O	0.09058565798437446	0.08760670593750064	-3.259135151125
O	-1.2453593010156254	-0.01977001406249934	-3.710827151125
O	-2.2139596720156254	0.46812581193750064	4.057051288875
O	-2.5401785120156255	-1.1910284750624993	2.8327106888749998
O	-1.0379154236156254	-1.3914587150624995	4.241266298875
O	6.490619117984375	-6.4744830550625	-10.216302161125
O	4.968594767984374	-8.6669670250625	-7.534964551125
O	1.6644419379843747	-10.9454205550625	2.094690038875
O	-1.7457659560156253	-9.239381315062499	1.931884328875
O	-2.6318438520156255	-11.2833706550625	-1.1458697571249998
O	0.7188672079843745	-10.277698455062499	-2.6400108011250003
O	0.1103166979843746	-6.584908745062499	-1.7549581911249998
O	-3.5650458620156256	-6.6691325050625	-2.7133180711250002
O	-2.7923841820156254	-8.2063255650625	-6.081027791125
O	-0.04657272901562548	-5.690112125062499	-6.769830111125
O	-2.323375632015625	-2.772792475062499	-5.835116421125
O	-5.1205921120156255	-3.995844405062499	-8.127258211125
O	-2.7795073020156256	-4.055636245062499	-11.132636291125
O	-1.4991987850156254	-0.5330401050624994	-10.368892691125
O	-5.059426842015625	0.7387313909375006	-10.438760691125
O	-5.371459942015626	0.1747297229375006	-14.158640191125
O	-2.2180054920156254	2.1238410749375007	-14.796395991125
O	-3.3559803420156253	4.8525746449375005	-12.405807791125
O	-7.728119142015625	9.657596414937501	-4.125323361125
O	-6.657096132015626	6.227446244937501	-5.366460221125
O	-5.1919395920156255	5.103934184937501	-2.025803451125
O	-3.3254743120156256	8.3983908349375	-1.4371112311249998
O	-1.9486493920156254	8.0986745049375	-4.998072641125
O	-0.7405882000156254	4.566262214937501	-4.479058791125
O	0.8098688379843746	5.555021164937501	-1.142328952125
O	2.6509212679843746	8.6084055349375	-2.417532871125
O	4.062045617984374	6.4322693849375	-5.1865785811250005
O	5.210395307984374	3.764106904937501	-2.666095141125
O	6.899229307984374	6.418637074937501	-0.514273236125
O	11.173467287984375	3.7209883349375006	-1.166120442125
O	9.211873487984375	0.01858233993750058	1.6699356388750002
O	9.683064687984375	-0.8096083150624994	-2.007565981125
O	6.411116517984375	-2.2394696950624993	-2.861214721125
O	7.941046427984375	-3.6488468750624996	-6.052445231125
O	11.175036587984374	-7.7888540850625	-6.106902701125
O	9.299966687984375	-6.912854345062499	-2.917386251125
O	11.274417987984375	-4.7745252550625	-0.48085645212499994
O	4.691618387984375	-5.700954605062499	8.326311068875
O	-0.45354376001562546	-8.845050075062499	9.362668868875
O	-2.4041253920156254	-3.8328959050624993	12.516383608875
O	-0.19845654301562543	-3.2965960050624994	9.464030178875
O	3.120244027984375	-2.2431426850624994	11.037957108875
O	1.2919038379843744	0.9010449349375007	12.132030208875
O	0.7316420979843745	1.8990115149375004	8.575670698875
O	4.2580313479843745	0.7597198599375006	7.624563258875
O	5.6202223779843745	3.014980974937501	10.276622508875
O	3.7825162279843743	6.062630814937501	8.888515958875
O	4.781793947984374	5.3243392749375005	5.287771778875
O	8.437409647984374	4.7861115449375005	6.230004768875
O	8.468909747984375	8.0603117049375	8.146701318875
O	9.685178087984376	8.3578684649375	2.950441568875
O	-5.809855812015625	13.4944247449375	-7.744581681125
O	-2.335084142015625	7.4272198349375005	6.106996898875
O	-4.902476412015625	6.755939704937501	3.375882928875
O	-7.775129822015625	7.137628054937501	5.843149558875
O	-6.117035882015626	4.943595674937501	8.386446598875
O	-5.383300342015625	2.5890696449375006	5.537416898875
O	-9.002199472015626	2.3258225949375007	4.423188358875
O	-9.878379022015626	1.6602456349375005	8.020921728875
O	-7.398790682015626	-1.2487418150624991	8.123341848875
O	-8.552454912015625	-2.6132144550624994	4.786981768875
O	-12.154686912015626	-2.4575011850624993	5.819791288875
O	-9.815430942015626	-10.2850984550625	2.733939068875
O	-8.342783632015625	-7.8676899650625	0.14126179487500007
