22

O	28.20352748984163	-1.464081939471804	25.941462617041132
O	25.973888734747607	-1.4495841279989414	26.255514705932683
O	27.151979640387978	-1.1603851269311962	26.86749346932945
O	34.863968049714856	-1.8039680180469246	27.51194318753274
O	27.50203077124296	0.0619267620266013	27.495758768736113
O	28.758281472802743	0.1619970244162584	28.008318428826485
O	29.668217286481536	-0.6678006280459541	27.437686676298576
O	29.38142972210305	-1.5599147582378468	26.48376949037533
O	29.383619645677253	1.307937932748981	28.68954803138225
O	30.828234460423914	1.23075217989373	28.857414665180702
O	31.330678510799135	-0.11412459304860101	28.627562850031957
O	30.507297964914663	-1.2385212823244398	28.566192596852616
O	32.01798339458465	0.04540246449246299	27.34557774486826
O	32.63579937130983	-1.3068759662785303	27.2080216584729
O	31.707132851575246	-2.4023165958450847	26.959480791245063
O	30.779551353675746	-2.5448260611223534	28.0432442816301
O	33.08778158769263	1.020405865018748	27.749648263056745
O	34.16306361813138	0.19322302315418594	27.169167083460035
O	33.8187344944216	-1.103842424570809	27.994769665641943
O	33.15103904361498	-1.2305450189016103	25.790307183678383
O	33.964615087688195	-0.3988562453637078	29.24761611947284
O	34.29869246957513	0.6566432251814732	29.876664179937993
