90

O	-2.60514439248254	-0.08470434060317422	-1.869845752204762
O	4.16746703751746	0.41880418939682584	-0.6178538682047621
O	-1.3637663014825396	0.4107156173968258	-1.226849491204762
O	-0.4724470454825397	1.8857770983968258	1.6429442277952382
O	-0.053299659482539674	0.12200154739682578	-1.772680822204762
O	4.624610267517461	0.7548960303968258	1.8577109477952378
O	1.0796720875174604	0.16980493439682587	-0.9583124442047621
O	-1.4140333834825398	-0.13885261160317408	4.643589547795237
O	2.27994513751746	-0.12526641060317423	-1.487501562204762
O	3.2438953175174605	0.8977241097968258	-1.425891472204762
O	2.8215297875174605	2.1779789083968257	-1.233343627204762
O	1.5014912275174601	2.3493964983968256	-0.7493436282047621
O	0.9169863075174602	1.2447556763968257	-0.14057394220476205
O	-0.28697276248253967	1.1799153823968258	0.498632036795238
O	0.5430893175174603	1.867987418396826	2.515886187795238
O	1.5860386875174601	2.5292327883968255	1.7303495777952378
O	2.97531923751746	2.3639343283968257	1.6874246077952382
O	3.3171847575174604	1.0676090523968258	2.109581467795238
O	2.7834449875174605	1.2411432683968258	3.351216457795238
O	1.3952902975174601	1.104760486396826	3.222317857795238
O	-1.3049330404825397	0.37987531939682584	0.09247447979523798
O	-2.01889825248254	-0.44596841160317413	1.037428097795238
O	-3.3280192724825395	0.028241251396825873	1.139002857795238
O	-3.9187477624825395	-0.7808456416031742	2.126087717795238
O	-3.26716339248254	-0.5743131216031743	3.361181547795238
O	-1.8887320924825397	-0.16069373160317424	3.318470217795238
O	-1.2742914414825397	-0.6737765916031742	2.212653387795238
O	7.788530787517461	10.067215158396827	-4.923282442204762
O	4.340692217517461	10.902214768396824	-3.613307192204762
O	-6.842619402482539	12.378347668396827	0.2562499337952379
O	-5.7021075424825405	9.210648598396826	-1.477404282204762
O	-5.27405769248254	7.448695338396826	1.864687627795238
O	-3.29045942248254	10.382074878396825	3.217527417795238
O	-1.1983508694825398	10.321964868396826	0.03674162379523793
O	-0.6735545582825397	6.529527088396826	0.36434548079523793
O	-0.21133375048253966	6.701935508396826	4.145418947795237
O	2.43722719751746	9.357209218396825	3.8380122077952383
O	4.227524777517461	7.441062728396826	1.057146407795238
O	4.38844189751746	4.5321556383968264	3.207625877795238
O	5.74480124751746	6.083345568396826	6.285006107795238
O	8.68439942751746	7.3481008183968255	4.220114017795238
O	9.446247627517462	3.927673518396826	2.733546867795238
O	9.651354427517461	2.4598123783968258	6.201370897795238
O	12.83641652751746	4.352310718396826	6.987996667795238
O	13.254109927517462	-0.4261271416031742	4.552409207795238
O	7.08710073751746	-8.422314251603176	7.5586868177952375
O	6.95286910751746	-4.667930431603174	6.7905056477952375
O	3.64206170751746	-4.892617011603174	4.976382707795238
O	4.51163519751746	-7.947091101603173	2.882359927795238
O	7.81593996751746	-6.143070181603174	2.007017277795238
O	6.077471927517461	-3.0206828216031743	0.9435178277952381
O	3.5390770375174605	-5.071803271603174	-1.121272000204762
O	6.066863277517461	-7.148626571603175	-2.928709202204762
O	7.921275187517461	-3.9856158916031745	-3.878137012204762
O	4.63494128751746	-2.3234160216031743	-5.127740702204762
O	3.8589156175174604	-5.430304451603174	-7.276508382204763
O	3.7960123975174604	-2.248738781603174	-11.24031658220476
O	-0.39361964248253967	-0.08178920060317418	-9.505897372204762
O	2.7170750775174604	2.125984458396826	-9.443124422204761
O	2.66335696751746	3.388230098396826	-5.822322142204762
O	5.162800737517461	6.045158928396826	-6.997448722204762
O	3.9525566975174606	10.185974958396827	-9.979133762204762
O	1.1728664775174604	8.014529138396826	-8.543819492204761
O	-0.06556157148253972	5.345159968396826	-10.924309082204761
O	-9.129940482482539	2.275070118396826	-5.508058682204762
O	-11.667314072482538	4.339786738396826	-0.35827591330476205
O	-12.79933637248254	-1.634775051603174	0.999945687795238
O	-9.586901382482539	-0.7941496516031741	-0.8690837792047621
O	-10.458049642482539	-2.080755641603174	-4.398993782204762
O	-10.43438751248254	-5.565672601603175	-2.897255882204762
O	-6.78005621248254	-5.1487775816031744	-1.931638892204762
O	-6.05841860248254	-3.4942713616031744	-5.3045947222047625
O	-7.54386729248254	-6.436691111603174	-7.089798582204763
O	-5.255617362482539	-8.877717701603174	-5.239350402204763
O	-2.1322615024825398	-6.7643516516031745	-5.791950062204762
O	-2.8760200724825395	-6.301733991603174	-9.518531472204762
O	1.6292784275174603	-8.222313311603173	-10.533426182204762
O	12.075319827517461	-10.373116831603173	5.923383277795238
O	-2.7052778924825396	-9.573365631603174	1.057068387795238
O	-0.6685932762825397	-8.327903321603173	3.9583245277952384
O	-3.06788662248254	-9.868093131603175	6.498346047795238
O	-6.04524708248254	-8.551136811603175	4.655346607795238
O	-4.25039162248254	-5.287841251603174	4.391336227795238
O	-3.6759207824825397	-5.031605211603174	8.168638477795238
O	-7.30373781248254	-5.757228601603174	8.601361917795238
O	-8.21503160248254	-2.8691441016031742	6.295638497795237
O	-5.78732601248254	-0.5028270916031741	7.860894267795238
O	-6.98790944248254	-1.364852941603174	11.320445417795238
O	-7.217253962482539	7.209910448396826	9.783785617795239
O	-3.77875265248254	6.2643523983968254	8.602506687795238
