32

O	32.595294498573516	-2.9724239457952772	29.925702284008505
O	33.063484966041116	-2.190965141166906	28.668118504613602
O	32.59710933881708	-0.9180673069267231	28.398740167764647
O	32.60784424566135	0.5231320699132644	28.011255949385856
O	31.331706564647988	0.584288236818395	27.38325343881593
O	31.232286755904244	-0.3370154688787916	26.291551158497818
O	31.31580849166195	-1.670886755562469	26.587028890595203
O	31.45961960666135	-2.550470145959388	25.548228205925902
O	31.503364407111803	-1.986588363556144	24.3103024950719
O	32.42223079715783	-2.2009821398745064	23.30734049227755
O	30.478169388548338	-1.0897702472581285	24.296885634663376
O	30.196139232586685	-0.3273341517010188	25.46598704205709
O	30.679890663469248	0.32255807511072104	28.49045685856506
O	29.7309273642056	-0.6805878862020633	28.31799983357813
O	29.58795782934913	-1.931373907460003	28.79683551642518
O	29.112812062718238	-2.7986901584942974	27.797922936693
O	28.216097555345783	-2.4653048510501745	26.84502129179678
O	26.90255216319185	-2.872623006253038	26.805465195220904
O	28.10469869956309	-1.1581453594513385	26.702781078235862
O	28.534158772651086	-0.26577750063981326	27.72380062677041
O	31.519814571862504	0.5364793056307872	29.67478550416686
O	32.4851882330501	1.3743813657445498	29.03668605156749
O	32.41016481620062	-0.6087963930748146	29.775812140339198
O	34.054417097869326	-2.3304262776831877	27.987848654017313
O	34.885813271816886	-1.557666767399109	27.1014458305601
O	34.3876272525275	-1.9076367507788081	25.854141143009805
O	34.85260329106499	-1.0251879684282001	24.856307673529066
O	34.024957592930406	0.1226340104049029	25.043493152917353
O	34.60474676367236	0.7094954853414781	26.203577149741058
O	34.63148217539623	-0.1903974564282232	27.30682908939449
O	35.3226201282257	0.24516450909867699	28.529105896007348
O	34.71019357978777	-1.5828417352807835	30.17292939085446
