87

O	1.8237175863492072	3.0268824895714292	0.15152101839682558
O	-4.348214473650793	2.3919991295714293	2.1774153943968253
O	-4.469092473650793	1.4623912155714294	1.1195804443968256
O	-4.112690363650793	2.111615639571429	-0.021477445603174383
O	-3.301964353650793	1.4928817575714293	-1.0015280436031744
O	-2.7211464336507927	0.2878288265714294	-0.8551759786031743
O	-1.2308439070307928	0.4583619405714293	-0.9684532976031743
O	-0.2561459596507928	-0.5156243204285706	-0.6892620746031743
O	1.041697306349207	-0.09691395042857054	-1.1039685056031745
O	2.065789816349207	-1.0262025704285704	-0.9407621766031744
O	1.9049389763492073	-2.3455492804285702	-1.4984045556031744
O	3.0387702163492074	-3.174059090428571	-1.5097671256031744
O	0.7735608763492072	-2.8897128604285705	-1.0259597176031745
O	-0.2451556316507928	-1.9198118504285706	-0.9511354916031745
O	-1.5057011896507928	-2.451311830428571	-0.6660665426031744
O	-0.8518654286507927	1.7845887235714293	-0.8134159426031744
O	-0.5601216936507928	1.9985636265714293	0.5839095423968257
O	0.7704472863492073	1.8607700085714294	0.9738342643968256
O	0.9317957263492072	1.4313087445714294	2.2896874843968256
O	0.03460390634920718	2.0395962545714292	3.2027875643968255
O	-1.2609820298507928	2.317866499571429	2.8598187243968254
O	-1.3574381286507928	2.6073793195714297	1.4917739743968257
O	-2.908237623650793	-0.32571205042857065	0.38716868439682556
O	-3.744247413650793	0.3141935305714294	1.2657859543968257
O	3.8845016363492073	-5.688507600428571	-11.824427685603174
O	2.102717156349207	-2.3632691804285706	-11.904094385603175
O	-3.1938814736507926	8.29029454957143	-10.995107985603175
O	-0.8033413326507928	7.026256579571429	-8.343037565603174
O	-3.652274133650793	5.8939680795714295	-6.119973655603174
O	-5.297979963650793	4.12891943957143	-9.045018625603175
O	-1.9493121386507928	2.505841909571429	-9.823486185603175
O	-1.5275140226507928	1.4715643425714293	-6.157266165603175
O	-5.121074053650792	0.4740007675714294	-5.689370065603175
O	-5.104872363650793	-1.6820385404285705	-8.788261635603174
O	-1.8796214256507928	-3.370655140428571	-7.706895195603175
O	-3.343288283650793	-4.117577140428571	-4.283384875603175
O	-6.473463903650793	-5.619440990428571	-5.620354445603175
O	-4.530243653650793	-8.10002148042857	-7.7901505956031745
O	-2.344906893650793	-9.17877179042857	-4.872948875603175
O	-5.426843663650793	-9.99541929042857	-2.8744267156031746
O	-6.239341353650793	-12.97823539042857	-5.101211885603175
O	-2.949696513650793	-13.72290949042857	-0.8956658096031744
O	-5.118685513650792	-9.11152979042857	8.347188324396825
O	-5.062806083650793	-8.40270788042857	4.573866914396826
O	-3.665099703650793	-4.945303100428571	4.967623574396826
O	-0.9571725076507929	-5.883734580428571	7.431399494396826
O	-0.029791753650792785	-8.77347129042857	5.0732712443968255
O	0.2513756763492072	-6.555836310428571	2.0743902443968256
O	2.278506806349207	-4.010982740428571	4.0834774143968255
O	4.755641496349207	-6.5147664904285705	5.528939074396826
O	5.315641556349207	-7.773851520428571	1.9977179243968257
O	5.817621056349207	-4.158056050428571	0.6715305113968255
O	8.411958636349206	-3.520872250428571	3.5000558143968252
O	11.782985026349207	-2.5568662804285704	-0.1847186656031744
O	9.276139426349207	1.6457997735714294	-1.4016221956031742
O	9.157794326349206	-1.1705322804285705	-4.016759345603174
O	5.422172846349207	-1.3969327804285705	-4.687823725603175
O	6.3582431063492075	-3.379376680428571	-7.816864155603175
O	8.434827326349208	-1.2889568904285704	-12.181963685603174
O	7.157684066349207	1.0031712045714294	-9.454307975603175
O	9.771918026349207	2.2092864795714293	-6.990871315603175
O	3.991100686349207	10.10053871957143	-1.6987622256031742
O	-1.696193248650793	12.23969640957143	-2.4927286156031747
O	-2.0775824496507926	12.38898980957143	3.789064584396826
O	-0.05274267365079277	9.61568187957143	2.1616220743968255
O	3.5583986663492073	10.63310702957143	2.9425270043968252
O	2.6846714863492074	9.93230352957143	6.581078544396825
O	2.048923986349207	6.300505469571429	5.765800824396825
O	5.103060806349207	6.2016987195714295	3.4497762043968256
O	7.238024336349207	7.497807249571429	6.269063464396825
O	6.085591036349207	4.67183981957143	8.567139684396825
O	6.6028839063492075	1.9725293495714293	5.945201464396826
O	10.061723126349207	3.2523928295714297	5.017943074396825
O	11.867351426349208	-1.2971835704285708	6.056818444396826
O	-2.5924107936507927	-14.03602649042857	9.252067204396825
O	0.3404172663492071	1.2468469755714293	9.935338914396825
O	-2.500843903650793	-0.9690347404285709	8.796738214396825
O	-4.963257553650793	0.8416099035714293	11.076792014396826
O	-3.7244437036507927	4.204965069571429	9.994912814396825
O	-3.8471358236507927	2.9067956295714295	6.4239864043968256
O	-7.501578163650793	1.8897134265714293	6.744549714396825
O	-8.225432743650792	5.302710899571429	8.146916084396825
O	-6.6120174136507925	6.988753029571429	5.144326494396825
O	-8.292647993650792	4.67828484957143	2.6503617243968254
O	-11.625294673650792	5.226169689571429	4.219143044396826
O	-11.611714373650793	6.5834391195714295	-4.385338555603175
O	-9.767368653650793	3.237385219571429	-4.033785715603174
