22

O	31.564997098980744	-1.029247970903278	24.705031803662102
O	31.79890834515348	1.7358957033842766	27.06258362361812
O	26.641234702113366	-0.6168016984196235	26.378030235002885
O	27.72552142987024	-1.4798503338377662	26.049254171823655
O	28.8593355207626	-0.9940353469933285	25.39571026376053
O	30.159327958989028	-1.039173400119164	25.81574320324838
O	28.043706043373078	-1.9689150200885894	27.263474074100294
O	29.297393693318277	-2.476039077210278	27.43245235705523
O	30.299995859512602	-1.5768050627580577	27.01263991931318
O	31.549537914207836	-1.7049457370488255	27.421866632971607
O	32.45022411620185	-2.615581154691683	27.829367016798304
O	32.86688211798164	-1.665486239297461	28.970338194721872
O	32.21919448377844	-0.5676472812355513	28.656087857997168
O	32.60689701469405	-0.521405837285279	26.985293075231244
O	34.05820195116368	-0.8341202468368107	26.74076977019184
O	31.146859184784343	0.24613595343652328	29.134309295389293
O	30.655900491606502	0.9742238922303967	28.102273151191305
O	29.343838978620422	1.1814072435766818	27.894278918152473
O	28.48122968750651	0.5149730968751991	28.65134737402786
O	27.188346375916836	0.746706134747404	28.643656759115164
O	28.93281018404652	-0.12313116453275766	29.74683208131931
O	30.161301636484385	-0.611349067901406	29.70298952843705
