91

O	-3.441780024081967	-4.457259926959016	1.2030422379672134
O	-3.407536284081967	-3.912170046959016	-0.04950294303278657
O	-2.566799234081967	-3.9780532069590158	-1.1561281020327865
O	-1.6149554690819672	-2.922086576959016	-1.4014235170327864
O	-1.8544280640819673	-1.8103376369590158	-0.6905720580327865
O	-0.8489319998819673	-1.370096836959016	0.34136622396721344
O	-0.6572732080819673	-2.653298736959016	0.9617057279672134
O	-0.5762605270819673	-3.910470826959016	0.4186896079672135
O	-0.3587250930819673	-5.119710266959015	1.0567913679672134
O	-0.21371245908196723	-5.146472876959016	2.388254117967213
O	0.6836528359180327	-5.863658956959015	3.1485174679672134
O	-0.8067570230819673	-4.059702306959015	2.918378897967213
O	-1.1255051770819673	-2.856217446959016	2.2210165479672135
O	-0.16727881808196732	-0.7991146139590158	-0.6937594890327865
O	0.8275897559180327	-1.7307515069590158	-1.1180828550327866
O	1.9795145659180327	-0.9129066009590159	-1.1509667750327865
O	3.1716133659180326	-1.5701011769590156	-1.0372506200327865
O	3.2796824459180334	-2.373920886959016	0.10083486396721347
O	2.1684250959180327	-3.052074286959016	0.4809441549672135
O	1.642072845918033	-2.7126294469590158	1.7782482379672133
O	1.9750160959180325	-1.5150721369590157	2.3040869579672134
O	1.4024276959180326	-0.29233706995901587	2.105596487967213
O	2.0376248259180327	0.8613368780409841	1.7368037979672135
O	3.3935036859180325	0.8912086450409842	2.0799017479672135
O	4.072964255918033	-0.25030402195901585	2.3707169779672133
O	3.367960305918033	-1.3960852569590156	2.1003521779672134
O	1.1745391659180326	-2.847543466959016	-0.46690423423278654
O	-0.6169972550819673	-0.22611591995901587	-1.9808388420327865
O	-3.1320229440819674	-1.574727866959016	-0.42387440262278653
O	-3.950015764081967	-2.748910236959016	-0.32432139403278654
O	-4.833117544081968	-7.253336806959015	-9.832572682032787
O	5.087468875918033	-4.600860186959015	-8.055594512032787
O	5.299577055918033	-5.686898236959015	-4.407127352032786
O	4.162512145918033	-9.151898896959016	-5.238366242032787
O	1.3241514559180325	-7.604414756959016	-7.249833942032787
O	0.39838160591803273	-5.386926706959016	-4.354913172032786
O	0.9228923259180326	-8.114194726959017	-1.7989495520327865
O	-1.2431144620819672	-10.551503116959017	-3.5629346520327867
O	-4.0240478140819675	-8.046206856959017	-4.099588922032787
O	-4.040388584081967	-7.3945758469590155	-0.32512369903278654
O	-4.241897554081968	-10.726938316959016	0.7996675379672136
O	-7.425858704081967	-11.320069216959016	-1.2984105610327865
O	-9.076982984081967	-8.142572186959017	0.1066954269672134
O	-8.587771504081967	-9.430359036959016	3.638856007967213
O	-7.215064114081967	-1.9008414469590158	12.046070937967214
O	-6.817468194081967	-3.9947601369590156	8.863395417967213
O	-4.088756454081968	-1.724654836959016	7.3440781079672135
O	-5.945657804081967	1.5326115630409842	8.145178687967213
O	-9.070172504081969	-0.08603824295901585	6.592448727967214
O	-7.323229574081967	-1.0917947369590157	3.4803382079672134
O	-5.680320524081967	2.336927123040984	3.1891990879672134
O	-8.865334994081968	4.341109363040984	3.636466577967213
O	-7.489508484081967	2.898232643040984	-1.4819090820327865
O	-7.688608264081967	6.648695313040984	-0.8335434200327865
O	-3.508448644081967	5.628801163040984	-6.576802302032787
O	-6.154852004081967	3.196508913040984	-7.837994542032787
O	-4.972054914081967	-0.026488491459015856	-6.299791812032787
O	-7.263874944081967	-1.875165516959016	-8.676742832032787
O	-6.269222114081967	-2.435629026959016	-13.785550862032787
O	-3.5659380340819675	-1.0682399669590157	-11.504736962032787
O	-3.417936994081967	2.703378413040984	-11.377351862032787
O	6.300342845918033	3.947286833040984	-6.267717532032787
O	10.506535355918032	1.3748523530409842	-7.871874492032787
O	10.526744855918032	-0.11009773895901584	-4.377089022032786
O	12.793210155918032	1.0587028830409841	-1.5788403920327865
O	11.058945255918031	3.489935543040984	0.7823951479672135
O	7.690024265918033	3.239620773040984	-0.8540888140327865
O	7.207541285918032	6.633602893040984	-2.5327480920327865
O	7.048302285918033	8.000372063040984	1.0008938179672136
O	3.928808225918033	6.012974013040984	1.7137066679672135
O	2.5487358059180325	6.798855553040984	-1.7445770120327866
O	3.040040525918033	10.504764083040984	-1.1052700380327865
O	1.0135577259180326	10.266290483040983	2.1274035879672133
O	-1.7780234450819674	8.223777843040983	0.5485399799672135
O	-2.018953224081967	10.590785583040983	-2.4369710720327866
O	-2.1646557040819676	13.606082583040983	-0.14621789103278654
O	-6.843878754081967	11.392937083040984	-1.3775391380327866
O	-6.354246464081967	15.042533883040983	-2.2705124120327866
O	0.2036680259180328	6.006006603040984	7.351992407967213
O	-0.7785445060819672	2.633466783040984	8.708063617967213
O	1.9681416359180328	2.731935893040984	11.363829537967213
O	4.521409195918033	3.8919538230409843	8.870970677967213
O	3.210968355918033	1.277960173040984	6.615674147967213
O	3.679448445918033	-1.579348666959016	9.045596497967214
O	7.187316145918033	-0.29785908895901586	9.628558037967213
O	7.9568581759180335	-0.49761410795901584	5.898204397967214
O	6.212764955918033	-3.884796086959016	5.458898187967213
O	8.236218805918032	-5.240082826959015	8.393232887967214
O	10.298774655918033	-7.036789876959015	3.061621617967213
O	9.100308235918032	-10.191841916959016	1.2893795479672134
O	5.314281115918033	-9.558164606959016	1.4599293779672136
