97

O	3.526813841698411	0.8758682690079366	-1.6002838807142852
O	4.164931181698411	1.5621999508079365	-2.6206057257142854
O	-2.4713266483015888	2.6560616460079363	0.5996522042857146
O	2.9120233416984114	1.7432910870079366	-0.7757775567142853
O	0.25180491169841157	3.6891972460079367	-5.4580230557142855
O	-2.2330903883015885	-0.6112880139920636	-1.0374605467142852
O	1.9837252016984117	1.2003769110079365	0.12832007428571468
O	-3.0089948283015886	3.6679234360079365	-0.6352264597142853
O	1.1266876316984116	0.30758605600793665	-0.5035533707142853
O	-4.132113268301588	1.5496555286079365	1.0364262042857149
O	1.4165498716984113	-0.1652704739920634	-1.7855145467142854
O	-2.6036285583015886	2.8947446760079365	1.9449865942857147
O	2.683871611698412	-0.13706759399206336	-2.1064869817142853
O	-3.536649098301589	-0.5464571139920635	-0.34154554471428533
O	-0.2810679743015885	0.4556034260079367	-0.42246560271428524
O	-0.8943083783015885	0.9138608010079365	-1.3527313857142853
O	-2.2364797883015886	1.2324895940079366	-1.2189833269142853
O	-0.34027495530158847	1.7618288590079365	-2.2943505557142854
O	0.7949839816984114	2.4315821280079364	-2.1405968407142852
O	1.3153323016984115	2.7896634360079364	-3.405248755714285
O	0.5915940716984116	2.6459109560079366	-4.555521585714286
O	-0.009510058301588575	1.3729154360079365	-4.444071785714285
O	-0.9668845643015885	1.6241460677079367	-3.4595453957142857
O	-1.0666499907015885	-0.4999370839920636	0.3682426542857147
O	-1.6363891073015884	0.8137290680079365	0.8452091142857145
O	-1.8034158483015885	1.9040537560079365	0.014192764285714699
O	-4.066716548301589	3.0794819760079366	-1.2354985392142852
O	-4.301516758301588	2.2258577120079366	-2.2361666817142853
O	-5.273866448301589	1.2215858070079366	-2.2229477447142854
O	-6.067115308301589	1.1208622670079365	-1.0813942977142852
O	-6.299008968301589	2.3133262420079364	-0.4561550817142853
O	-5.111432038301588	3.0169684960079364	-0.28049275471428525
O	-2.0328802673015884	0.6202401560079367	-3.6391798757142855
O	0.34059751169841146	-1.0603342439920636	-2.283377895714285
O	11.730415441698412	7.520460206007937	3.151107694285715
O	8.240204391698411	8.639311456007936	4.065306754285714
O	-3.1152474383015885	11.050746086007937	6.6959354242857145
O	-1.8025314883015886	7.519613706007936	6.415926834285714
O	-3.2011181983015886	7.266957016007937	2.861059594285715
O	-1.5890103553015886	10.555068576007937	1.9032562742857146
O	1.6506322716984114	9.238614826007936	3.436643164285715
O	1.3767964516984115	5.926181766007937	1.469682864285715
O	0.1480882216984114	7.746746586007936	-1.6575230627142852
O	2.9998779616984113	10.093477926007935	-1.6321446797142853
O	5.549878521698411	7.398276336007936	-1.0005239447142853
O	4.071319991698411	5.328739006007936	-3.8423436257142853
O	4.438687841698411	8.235523886007936	-6.313167125714285
O	8.093159171698412	8.790374116007936	-5.618138735714285
O	8.86257024169841	5.102650876007937	-6.115279815714286
O	7.4192807616984116	5.1389436060079365	-9.557794265714284
O	2.6891953716984114	-4.435366743992064	-13.539504935714284
O	3.578089241698411	-1.3458675739920634	-11.493730735714285
O	1.3655986516984113	-2.3601459539920633	-8.501314675714285
O	2.601771091698412	-5.943669803992063	-8.439399995714284
O	6.187237261698411	-4.528827153992063	-8.617926475714285
O	5.648500351698411	-2.1712650139920635	-5.802506865714285
O	4.077710221698411	-5.014533983992063	-3.740158885714285
O	6.753516481698411	-7.555530453992064	-4.230944295714285
O	7.301094631698412	-4.133372903992063	0.057149104285714625
O	6.977379451698411	-7.831407573992064	0.9440369642857147
O	5.025816171698411	-3.999576443992064	6.660771224285715
O	8.132931031698412	-1.8735619339920633	6.100268974285714
O	6.777360691698411	0.7550561460079366	3.810704194285715
O	9.80989364169841	2.8652177860079364	4.520221724285714
O	10.652511841698411	5.373462906007937	9.043380164285715
O	7.256809281698411	3.8281917560079366	8.381547304285716
O	6.8033749416984115	0.3476698060079366	9.771270964285716
O	3.125128921698411	-0.5297023839920634	9.970912864285715
O	-4.116753898301589	-0.6904550139920635	8.569442824285716
O	-7.365029408301589	3.0456920860079366	10.147333864285715
O	-8.434954168301589	3.1649649260079364	6.496291124285714
O	-11.626413458301588	1.5546864835079366	5.218043124285715
O	-10.988779678301588	-1.8713958939920636	3.6710958042857147
O	-7.2176266583015884	-1.6908762139920634	3.9923470442857143
O	-6.426126468301589	-4.301113833992064	6.667869994285715
O	-7.619224818301589	-6.8893619039920635	4.150445554285715
O	-4.805477798301588	-5.968978563992064	1.8040033442857146
O	-2.321538008301588	-5.639106563992064	4.672835694285714
O	-3.2628874783015887	-9.144603693992064	5.766168684285715
O	-2.4635046683015887	-10.538333993992062	2.3101338342857147
O	0.8480401616984115	-8.660130893992065	2.0636588142857146
O	1.9293654316984117	-9.770852593992064	5.548282214285715
O	1.0851985016984116	-13.365071693992064	4.710226634285714
O	6.053133591698411	-11.803035793992063	3.5462158242857145
O	-3.2054128783015887	-8.586012993992064	-4.189145675714285
O	-2.5200496883015884	-6.118907673992063	-6.966128955714286
O	-5.984461298301588	-6.672101253992063	-8.453702335714285
O	-7.630820958301589	-6.381520223992063	-5.103689895714285
O	-5.423631408301588	-3.3511321139920636	-4.436041345714285
O	-6.5535257083015885	-1.6160861839920635	-7.636619975714286
O	-10.109307958301589	-2.3127997139920633	-6.654176415714286
O	-9.537858258301588	-0.5974738939920634	-3.2777312457142855
O	-7.640129948301588	2.3292382700079366	-4.902454345714285
O	-10.41609964830159	2.8639718060079367	-7.339098465714286
O	-10.458609528301588	6.951153626007937	-2.869991545714285
O	-8.436471218301588	10.220006406007936	-2.8460628857142853
O	-4.987965748301589	8.841180646007937	-3.816331255714285
