17

O	90.18818540653955	21.917326258808103	-5.979423559766284
O	90.77541124402777	22.13993254158132	-4.859776523036837
O	91.52460483277197	21.04202021553653	-4.2076163541302805
O	92.11427390314724	19.978708792578313	-4.7827406754776005
O	91.61374570022923	19.938609026608017	-6.080501505768007
O	91.07489427864732	21.14225072720167	-6.764194287528453
O	92.5264629903449	21.706306016394155	-3.6278977261542886
O	93.48421539113968	21.5956709094324	-4.403726173111251
O	93.50668655583443	20.269597474908167	-4.604103099998224
O	93.28632897948923	22.802386946380967	-5.198165087890444
O	93.01870507175506	24.00913695842505	-4.6440280359530535
O	92.14745963139814	24.975617739977647	-5.191532075563288
O	91.56900172627742	24.947658042383274	-6.390869099869779
O	92.40532037421073	24.18043781749547	-7.0261859668652225
O	93.23467298807685	23.14266376879467	-6.518636779662353
O	91.11161490556086	21.88240251187101	-7.889201970775101
O	91.39416967299245	26.184005228276423	-7.047955843877968
