85

O	-0.38927315585846145	1.4785592501199991	0.13044806724615365
O	0.8665178031415386	0.6733189671199991	0.6210408882461537
O	-0.5257038178584614	-0.33323094388000096	0.6565998182461535
O	-1.6561553338584614	-0.5240608838800009	-0.5459149083538464
O	-0.5963708018584615	-1.291390533880001	-0.7809323697538464
O	-0.9418397748584615	0.25993325711999904	-1.5233358497538463
O	-0.9017358178584615	1.550975740119999	-1.1372936077538465
O	-2.3120101768584616	1.575329970119999	-1.1227999977538463
O	-3.0177261868584617	0.572256112119999	-1.9042986017538466
O	-4.313626696858462	0.4940764311199991	-2.0973909517538463
O	-4.684610916858461	-0.16077155388000097	-0.9539329987538463
O	-5.842028106858462	-0.860789193880001	-1.0713270067538463
O	-4.068977896858462	0.4277868131199991	0.16867047524615364
O	-2.8109644468584616	1.163430686719999	0.10767325324615362
O	-1.4985067408584616	1.635157289119999	0.8528396582461536
O	0.5527422331415386	2.641906556119999	0.6131717782461535
O	-0.2988167898584615	3.667179326119999	-0.22797190075384638
O	0.8141106731415384	4.734230266119999	-0.31927332475384634
O	1.9950878031415384	3.925702456119999	-0.7614704477538463
O	1.1152316631415387	0.626655166119999	-1.5134050287538465
O	-10.777481836858462	-1.8034457838800009	-9.033879951753846
O	10.633937013141539	2.413172216119999	-8.104717991753846
O	8.715796133141538	4.92037003612	-10.236897511753845
O	6.495046723141538	2.6137805361199993	-12.314921241753845
O	5.745918623141539	0.610755916119999	-9.145293831753847
O	4.582308553141538	3.658438806119999	-7.174822901753846
O	2.828672703141539	4.85420636612	-10.360402321753845
O	0.6533483231415385	1.730137528119999	-10.437637701753847
O	-0.2864857308584615	1.794576362119999	-6.704554001753846
O	-1.0704153868584614	5.520476286119999	-6.795100771753846
O	-3.3009652468584614	5.0336394561199995	-9.814897071753846
O	-5.084148726858461	2.209752386119999	-7.941483881753846
O	-5.531255706858461	3.9910350161199992	-4.655937911753846
O	-6.971606106858461	7.207919736119999	-6.163800641753846
O	-9.532738446858462	5.127567036119999	-7.9894536717538465
O	-10.385055756858462	3.339543986119999	-4.739284751753846
O	-10.431788656858462	6.610176556119999	-2.8255163017538463
O	-9.023828986858462	7.295256116119999	8.050298318246154
O	-8.653739726858461	6.799339886119999	4.271070878246154
O	-5.267854126858461	5.207695456119999	4.554248808246154
O	-6.390355986858461	2.611908406119999	7.126953958246154
O	-9.56803528685846	1.8944689791199991	5.153217978246154
O	-7.405735026858461	1.179929603319999	2.0407534182461533
O	-5.004253676858461	-1.0339097838800009	3.8255755882461533
O	-7.860709926858461	-2.805783933880001	5.598480458246154
O	-9.41901028685846	-3.5250364338800013	2.2099326182461536
O	-6.063326186858461	-4.677949803880001	0.9408619882461536
O	-5.621345026858461	-7.06392476388	3.9299732382461534
O	-9.106762426858461	-8.534911653880002	3.5186059982461537
O	-8.555989586858463	-9.57139192388	-0.0715713257538464
O	-5.010125026858462	-10.84529482388	0.5738120582461536
O	1.1431996031415386	-12.00744062388	-1.0204464717538464
O	-0.6235351608584615	-8.575270893880003	-1.2488689777538464
O	-3.5931984068584613	-8.613048713880001	-3.6302948017538466
O	-3.8636442068584613	-4.9158113638800005	-4.643772021753846
O	-5.980081576858462	-6.175839503880001	-7.623701371753846
O	2.903184143141538	-8.535617203880001	-5.4969547417538465
O	5.126619013141538	-10.775062823880003	-3.3592321017538467
O	6.983017843141539	-9.45886372388	-0.33785277775384637
O	10.214176013141538	-9.34377022388	-2.4088137317538463
O	8.847198313141538	-7.362988503880001	-5.356153341753846
O	8.266703133141538	-4.503071543880001	-2.9529607417538464
O	10.414581213141538	0.9859347041199991	-4.2654152017538465
O	8.225300663141539	-0.025004333880001006	1.4607859982461537
O	9.551859013141538	-3.4687055138800007	2.4646654182461534
O	8.932819913141538	-2.818535273880001	6.181260478246154
O	5.496928313141539	-1.503668523880001	5.229921138246154
O	4.770218463141538	-4.704648173880001	3.3072302382461536
O	5.785794593141539	-6.824278993880001	6.262835288246154
O	3.4353678331415383	-4.874529473880001	8.544420978246153
O	0.4695701331415385	-5.534530813880001	6.177876058246154
O	-3.7937961968584615	-1.1126149138800008	11.208075158246153
O	-3.4907871068584613	2.502734336119999	12.393715858246154
O	0.2614378631415386	1.9717191911199992	12.798592358246154
O	0.7178949931415386	0.6595220171199991	9.274401878246154
O	-1.2831909130584616	3.666217496119999	8.093552288246155
O	4.067602663141539	4.30289038612	8.434845778246155
O	2.7156659831415384	4.374128646119999	4.971744498246154
O	1.8523854031415383	8.055079596119999	5.1920103382461535
O	5.384036573141539	8.825424686119998	6.380035218246154
O	6.889053433141539	6.936877566119999	3.4455024582461538
O	4.445989493141538	8.29358477612	0.9696449382461537
O	5.134474513141538	11.802907176119998	2.2133977382461536
O	8.872208213141539	11.30989047612	1.8780768882461536
O	8.388931053141539	10.683892316119998	-1.8217362317538464
