24

O	91.52990672477486	23.19066903563053	-4.765972624611444
O	91.5681409010786	24.502542177362038	-4.649967405632406
O	92.32847463795262	24.75637273676962	-5.7211389397835735
O	92.97069109966195	23.690000742227905	-5.323317063453269
O	93.17311598542355	22.42590688468009	-4.619318108484611
O	94.13641339831148	21.333740119464107	-4.247273813266961
O	93.58059524207586	19.998997925866767	-4.366886877524325
O	92.49402598991593	20.096021812995687	-5.1258980915294705
O	91.92099460094127	20.58380713597259	-3.994995563870672
O	91.99450434335655	22.057795056096214	-4.163368586548474
O	90.5729030412848	20.063331052826083	-4.112321674187113
O	90.16719953556803	20.378090251282774	-5.386090340917348
O	90.72213165272974	21.52107093369404	-6.016113836032743
O	92.07429655069843	21.127432365948156	-6.165140049690669
O	92.59401829984627	22.287202910558534	-6.743376167319294
O	92.0493253447705	23.075960334191716	-7.666852700478138
O	90.85718734341665	23.66378608682466	-7.398395787207717
O	90.15769594308516	22.75322901431727	-6.596169908269937
O	93.86156023041362	17.67011732337101	-3.8753643135859757
O	93.2910652760983	18.933704489326907	-3.3105012674660594
O	90.37856370463454	18.668511948282372	-3.7321760559535626
O	91.04295711006964	17.63346831635377	-4.676829931232138
O	92.4183305257699	25.859379401215566	-6.477057039724971
O	90.45296378395032	24.9189036808216	-7.781897484627205
