86

O	-0.3401717357419348	1.4498457662675803	-2.5048867239193546
O	-0.7100151527419349	2.0758485972675804	-3.603643523919355
O	0.49452113225806515	2.1548091072675803	-4.180534653919355
O	0.6279363922580652	0.9444158352675803	-3.7061909439193546
O	0.35449599225806505	-0.19750127773241966	-2.8368352639193546
O	0.645518672258065	-1.6387028427324197	-2.5246959439193546
O	0.815344382258065	-1.9069134127324197	-1.109068821519355
O	1.033041872258065	-0.7384617627324197	-0.5145329169193549
O	-0.30873542074193483	-0.5788473427324197	-0.6538058649193549
O	-0.44614480874193485	0.23765529526758034	-1.8870275189193548
O	-0.6345738807419349	0.15388410726758028	0.554062316080645
O	0.2682585622580651	1.1871942832675804	0.6116727660806451
O	0.8064617422580651	1.6914084072675803	-0.5996857909193549
O	1.5674697922580652	0.5843870799675803	-1.0478828172493548
O	2.0418142822580654	1.0993121092675804	-2.255932873919355
O	2.4751150022580655	2.3283313372675805	-2.526856883919355
O	1.6304302922580651	3.3719453272675803	-2.336649563919355
O	0.8308776722580651	3.0178918172675804	-1.2424235899193548
O	0.9914567822580651	-3.5815021327324197	0.5964978460806452
O	-0.01228394574193481	-2.7508126427324195	-0.14082623591935484
O	-0.7512473647419349	-0.6296494627324196	1.7789138360806451
O	0.5791401222580652	-1.2327572627324197	2.2999080560806453
O	0.9663327122580652	3.02545670726758	-5.0835720539193545
O	1.539408812258065	4.50796596726758	-3.1027844139193546
O	7.381358772258066	7.023790827267581	-9.719971303919355
O	10.804259382258065	-9.09522995273242	2.682040456080645
O	12.856389782258065	-6.13499109273242	1.4320129260806451
O	10.149429682258065	-3.7947152627324194	2.704325016080645
O	7.406025892258066	-5.591203452732419	0.764535446080645
O	9.779748182258066	-5.91026207273242	-2.143939563919355
O	10.145443582258066	-2.1330786827324197	-2.405832093919355
O	6.390026072258065	-1.3732776327324197	-2.1881221439193546
O	5.539827642258065	-4.04664278273242	-4.690756313919355
O	8.127555312258066	-2.77033844273242	-7.144680413919355
O	6.5955971422580655	0.7114159288675803	-6.7218054339193545
O	3.001529682258065	-0.17837054373241967	-7.022836743919354
O	3.4495600622580653	-2.2620676727324196	-10.185539513919355
O	5.188129012258066	0.6692678960775803	-11.820762053919356
O	2.3017810322580647	2.9062440172675803	-10.812370723919356
O	-0.23097777074193482	0.33278307426758036	-11.939297453919355
O	-9.474729757741935	-4.76483081273242	-11.924571853919355
O	-10.488228447741935	-0.24531122773241965	-8.155421703919355
O	-6.726766267741935	-0.2979972267324197	-8.627894023919355
O	-5.975110807741935	-0.7290780927324196	-4.936209303919354
O	-8.185127937741935	2.2178465272675805	-3.9167493339193546
O	-6.680380537741935	4.35123558726758	-6.7109657339193545
O	-3.0959169577419345	3.62184210726758	-5.394297953919355
O	-3.9810614877419352	4.28484539726758	-1.8537048009193549
O	-5.841426117741935	7.43947901726758	-2.913604893919355
O	-2.796984307741935	8.645922117267581	-4.825830863919355
O	-0.6465223807419349	7.73468604726758	-1.917602233919355
O	-2.902432567741935	9.66729202726758	0.5138292660806452
O	-2.924432097741935	12.76226280726758	-1.6692297719193547
O	0.8419567222580651	13.07012990726758	-1.6887594119193547
O	3.306371772258065	7.84426182726758	3.8978086660806452
O	4.9879482322580655	9.27155374726758	0.8487981460806451
O	5.055737542258066	6.25897427726758	-1.5238624939193548
O	7.853597902258066	8.274725637267581	-3.314809283919355
O	8.043096832258065	5.77392018726758	5.848160206080645
O	6.840892302258065	6.594000707267581	9.372579346080645
O	4.022208742258066	4.701677117267581	11.075632846080644
O	6.568161742258066	2.7306531272675802	13.137634646080645
O	8.793030162258065	1.5745701882675802	10.303037546080644
O	5.766708762258065	-0.35717445273241966	9.004414346080644
O	6.235646992258065	-6.20616701273242	7.635842046080646
O	0.5446297622580651	-3.7663564127324194	7.832770986080646
O	0.5761379322580651	-1.5251361827324197	10.941871246080645
O	-3.241038967741935	-1.4887552827324195	11.126364846080644
O	-3.3568772577419352	-0.8022300827324196	7.458431636080646
O	-0.8876969307419349	2.1154296772675805	7.831932356080645
O	-4.236197697741935	5.316380117267581	5.415419396080646
O	-10.903802957741934	4.295132927267581	1.168071566080645
O	-12.701305717741935	1.1650429182675803	-0.0712473259193549
O	-12.298383217741934	-0.35521471273241967	3.4072185960806456
O	-8.566796837741935	0.21773185726758032	3.4952817260806457
O	-8.381100017741936	-1.3237875727324195	0.02058383608064518
O	-10.192806677741935	-4.45909845273242	1.137875416080645
O	-7.938747837741935	-4.7297358727324195	4.205084116080645
O	-4.848323627741935	-4.3026782027324195	2.0754988060806454
O	-5.972289647741935	-6.942725532732419	-0.3696935129193548
O	-6.625594087741935	-9.40898739273242	2.4788094660806452
O	-3.1595877077419345	-8.88107883273242	3.917204886080645
O	-1.4845738187419348	-8.843795372732421	0.5283037660806451
O	-3.221201687741935	-12.04043519273242	-0.3449015469193548
O	-2.087147107741935	-13.67754289273242	2.8863361260806455
O	1.500782612258065	-13.13480319273242	1.8075601260806453
