82

O	-2.2219267602622947	0.43389997073442643	-1.008455482994918
O	-0.8644500952622949	0.6765511557344264	-0.4202576319949179
O	-1.062870518262295	1.9421334067344262	0.3047795560050821
O	-0.09031163026229488	2.1223206367344263	1.406492587005082
O	1.372333679737705	1.8882336767344263	1.507193947005082
O	2.394643089737705	1.3525174027344264	2.387921717005082
O	3.716725719737705	0.9972259127344264	2.693869477005082
O	1.956329979737705	0.7958733510344265	3.483446317005082
O	0.5462229797377051	0.9689330481344264	3.500138467005082
O	-0.3237709442622949	1.2396600837344265	2.465015967005082
O	-0.952007806262295	0.14067906273442643	1.854055087005082
O	-0.3382429342622949	-0.12176536726557363	0.651844746005082
O	0.8939731897377051	-0.6404452332655736	0.994245956005082
O	1.015863479737705	-1.3950772032655738	2.096481157005082
O	2.259080169737705	-1.7900857532655738	2.649828117005082
O	3.507431689737705	-1.6516481332655735	2.080116477005082
O	4.697873179737705	-1.8818406632655735	2.702879527005082
O	3.238073139737705	-1.0360240432655736	0.8944399930050821
O	2.013689949737705	-0.6540342432655736	0.3154663900050821
O	-2.239090680262295	2.4861815467344264	-0.2248469279949179
O	-3.212423980262295	1.5053775057344265	-0.657045888994918
O	8.513110349737705	-5.398942613265573	10.142035517005082
O	-12.241524160262294	-1.0311293132655734	5.045547457005082
O	-11.101892160262295	0.5965637177344264	8.288179547005083
O	-9.302220390262294	-2.2921586632655737	10.009082107005081
O	-7.674582360262295	-3.148923123265574	6.672199677005082
O	-6.263177100262294	0.37457783273442646	6.095112757005082
O	-5.451736030262294	0.4484085947344264	9.819392727005082
O	-3.166503890262295	-2.5802259232655738	9.541105967005082
O	-1.398769447262295	-1.3127221132655738	6.380302207005082
O	-0.9133146912622949	2.1693769867344264	7.757461507005082
O	0.49693550973770517	0.8170280115344264	11.039874217005082
O	2.947813349737705	-1.2718967132655736	9.058204637005081
O	4.093040299737705	1.4719935497344263	6.749732107005082
O	4.799219829737705	4.025549356734427	9.321923837005082
O	7.023948199737705	1.4793171297344263	11.039959017005081
O	8.788603009737706	0.8329717431344265	7.720920907005082
O	9.034736109737706	4.5259602067344264	6.993217067005082
O	10.241350839737706	8.744815876734426	-3.075624172994918
O	9.027568249737705	7.022540436734427	0.10673263491508207
O	5.899087349737705	5.592735326734426	-1.5037955129949179
O	7.8471880697377046	4.030139096734427	-4.384538692994918
O	10.551330539737705	2.712287376734426	-2.030629192994918
O	7.7748640597377054	1.0028130237344264	0.059661506905082075
O	6.090027409737705	-0.42895212326557364	-3.054957882994918
O	9.449715949737705	-1.620915043265574	-4.400615972994918
O	10.153050339737705	-3.3345165232655734	-1.035568382994918
O	6.688928379737705	-4.814626483265573	-1.063468252994918
O	7.184644589737705	-6.1924852332655735	-4.735868042994918
O	9.199793219737705	-9.759053583265572	-0.996070632994918
O	1.152705799737705	-9.322088283265574	-1.771243592994918
O	3.421157439737705	-10.114157483265574	1.196762467005082
O	3.080068219737705	-6.788400363265573	3.353018257005082
O	4.583249229737706	-9.051058183265573	6.214230937005082
O	-3.348181090262295	-10.738255083265573	1.141829267005082
O	-4.794146160262295	-12.023311783265573	-2.133045992994918
O	-5.9417193902622945	-9.704563083265572	-4.908598362994918
O	-9.569728250262294	-10.224396183265574	-3.822556792994918
O	-9.153206560262294	-9.406342383265573	-0.14674430799491792
O	-8.181075000262295	-5.891107743265573	-1.239048882994918
O	-10.949970260262294	-1.1035469032655736	1.159515147005082
O	-7.308351210262295	-0.18504314326557358	-3.732831162994918
O	-8.125395860262294	-3.0648412532655738	-6.088493392994918
O	-6.705223020262294	-1.2431394332655739	-9.111098852994918
O	-3.718722270262295	-0.3416150332655735	-6.949290802994918
O	-3.236788270262295	-4.012081563265573	-6.043758152994918
O	1.6752578697377052	-3.9440338832655732	-7.857225952994918
O	6.6449248597377055	1.8986448167344263	-9.994823082994918
O	6.344933249737705	5.7010222767344265	-9.953213982994917
O	2.875141619737705	5.366450406734427	-11.495893282994919
O	1.6691680397377051	2.9723088667344264	-8.792602772994918
O	3.0698925097377048	5.364433466734427	-6.197033852994918
O	1.140900099737705	8.291002856734426	-7.634347952994918
O	-2.041106710262295	6.227965096734427	-7.789894402994918
O	-1.6195868302622949	5.133230516734427	-4.214435432994918
O	-1.0282469662622948	8.650186336734427	-3.034603522994918
O	-4.215115360262295	9.822091576734426	-4.787688512994918
O	-6.260968200262295	7.097239356734427	-3.120046282994918
O	-4.561206610262294	7.405400386734427	0.22131442600508208
O	-5.166194220262295	11.122229416734427	0.10201488388508208
O	-8.853170820262294	10.661359676734428	-0.706652258994918
O	-9.170531300262294	8.783885916734427	2.576977547005082
