88

O	-2.2391852875740748	0.7495438526296296	2.393267257907407
O	-2.1391654655740746	1.3646542146296297	3.660202197907407
O	-1.4566551005740747	0.7624821636296296	4.636646617907407
O	-1.4691780775740746	1.4136602946296297	5.889676587907407
O	-0.3021861755740747	0.5489270406296297	4.073181897907407
O	-0.15263084557407458	0.33437146462962963	2.745962207907407
O	1.1888574444259252	0.22210331072962966	1.543120987907407
O	0.6933796644259254	0.8647164656296297	0.07950829190740694
O	1.4780941244259254	2.16126068462963	0.1416923409074069
O	2.494016514425925	2.3485598146296294	1.222657427907407
O	2.137415194425925	2.2781566346296294	2.704441287907407
O	1.0497646944259256	2.7398074646296293	3.2421867179074066
O	0.9642480844259256	2.8386096546296296	4.607171187907407
O	0.2507772644259252	3.1513121446296295	2.251253157907407
O	0.7570410244259256	3.1902005046296296	0.817388357907407
O	-1.0551879835740747	0.5451933116296297	1.7547656779074068
O	-0.6474505555740746	0.6565256426296296	0.46819261690740693
O	-1.3836450855740745	0.7358093626296296	-0.7649450790925931
O	-1.3075021485740748	1.8367204546296299	-1.317560032092593
O	-2.4594478125740746	-0.20381102737037035	-0.761014984092593
O	-2.5946076575740746	-1.3259844953703703	-0.08015948509259307
O	-3.7566138155740747	-2.0927506153703703	-0.10766839409259307
O	-4.300016015574075	-2.2964194253703707	-1.325403392092593
O	-4.195848435574074	-1.2111822353703703	-2.144960872092593
O	-3.1126675055740747	-0.3575866583703704	-1.9309533320925931
O	-5.152169205574075	-3.3618606053703703	-1.459426322092593
O	-6.528905525574075	-2.9656804853703704	-1.420222802092593
O	-7.098904455574075	-3.9483627153703704	-2.4626098720925933
O	-6.984688385574075	-5.1278619653703705	-1.765220372092593
O	-5.776129665574075	-5.842952965370371	-1.6945989020925931
O	-6.149886935574075	-7.10555174537037	-0.9964862880925931
O	-7.618392045574075	-7.344836425370371	-1.191667230092593
O	-8.153883165574074	-6.35334304537037	-0.16397925409259306
O	-7.500297065574075	-5.038748905370371	-0.4361473380925931
O	-6.516262865574075	3.7590369346296297	12.128718027907407
O	-9.002568215574074	8.56464602462963	-7.736024462092593
O	-9.598378705574074	10.22948745462963	-4.3512955220925935
O	-5.940272025574075	9.54607339462963	-3.3801188320925935
O	-6.230107605574075	5.885016164629629	-4.088330732092593
O	-9.651749325574075	5.940718754629629	-2.4509305120925933
O	-8.148964745574075	7.08168437462963	0.833588137907407
O	-5.2612896855740745	4.559765344629629	0.955637737907407
O	-7.543713975574075	1.7054167146296297	0.008937749907406922
O	-10.108499085574074	2.5337677946296293	2.6130222879074068
O	-7.247263815574075	2.7570249646296294	5.159985627907407
O	-5.742588265574074	-0.5913400803703703	4.2098590879074065
O	-8.652515945574075	-2.6153314753703705	4.356385817907407
O	-9.271717935574074	-1.2141852353703702	7.877544857907407
O	-5.725085535574075	-2.0658576953703705	8.849532657907409
O	-5.959041695574075	-5.4748388053703705	7.3039649479074065
O	-1.3318003695740748	-13.50220514537037	6.290431187907407
O	-2.0968324885740746	-14.16147234537037	2.6507811979074067
O	2.8054452544259254	-11.13580764537037	3.932664147907407
O	0.029783594425925486	-8.631102685370369	4.466437467907407
O	1.3997861144259256	-6.04631037537037	1.9841272679074071
O	4.826187954425925	-6.14188688537037	3.604790707907407
O	3.2752745044259255	-5.961739425370371	7.085235737907407
O	1.3411888744259255	-2.8595229153703703	6.073802737907407
O	4.326729494425925	-1.2427672353703703	4.465342167907407
O	6.4621798444259255	-2.0959802453703706	7.453826857907407
O	3.954766724425925	-0.5477552213703704	9.836412327907407
O	3.8879035544259253	2.4807174146296296	7.593628907907407
O	4.933193334425925	8.88353231462963	4.732435647907407
O	2.596140524425925	8.899818534629631	7.7530729079074066
O	-0.2856291855740747	6.627341484629629	6.486093367907407
O	1.8257986644259254	12.654780954629631	2.260807737907407
O	2.044358044425925	14.39701015462963	-3.5258179220925934
O	2.2305016144259255	10.76493565462963	-4.623618592092593
O	3.145326614425925	5.05576798462963	-7.233106332092594
O	6.0400591744259255	7.52575027462963	-7.273759842092593
O	8.625022984425925	4.7445697146296295	-7.683317172092593
O	6.797737064425926	2.8527549746296295	-4.947354382092593
O	7.084530554425925	5.92579385462963	-2.704473122092593
O	7.871888244425925	-10.491311545370369	8.089757757907408
O	9.541404584425925	-7.739139835370371	0.1916205889074069
O	10.539234284425925	-6.0123074753703705	-3.048938122092593
O	8.422435184425925	-2.9820545253703705	-2.3146997220925933
O	5.4982794444259255	-5.3536171753703705	-1.541114132092593
O	5.834589964425925	-7.081361485370371	-4.866132842092593
O	6.001265974425925	-3.7120186453703705	-6.632988972092593
O	2.953362374425925	-2.3975524753703703	-4.804005352092593
O	1.0317233944259254	-5.5942931153703706	-5.720475342092593
O	1.8940389944259255	-5.277141525370371	-9.378156662092593
O	0.8289185944259254	-1.6106052253703702	-9.508487492092593
O	-2.1848519455740747	-2.1381579353703706	-7.5071386620925935
O	-3.293679385574075	-5.13854824537037	-9.609075892092592
O	-2.8064454175740745	-2.9950418153703704	-12.793621972092593
O	-5.449797305574075	-0.5641567943703704	-11.525463072092592
