17

O	92.9857058123746	23.02765946008824	-6.2907118003973626
O	93.38692578884347	21.70175181500835	-6.031908164938904
O	91.0454443758967	22.494034442022112	-5.494590806028636
O	90.60527654249175	20.028588799233344	-4.787720994234872
O	91.05861337563854	19.236757030813315	-3.641423247905877
O	93.33967538939915	19.845222824690282	-4.253429038912447
O	92.32044407596506	17.766376088663215	-4.820472836061391
O	91.61865941499806	23.4737147366566	-6.252130739868684
O	92.78248974544964	20.77308056769528	-5.2344205700747475
O	91.52263992877697	21.245367820009307	-4.840357424268069
O	91.33309915310063	16.65110830141067	-4.523545671125591
O	92.33752120900273	18.80223359190666	-3.9081696080604407
O	93.47418922573075	17.611354787191146	-5.275832156847202
O	91.46850560731487	24.72090411356163	-6.746211568572388
O	91.9276424446103	15.567777123970407	-4.352866548554673
O	90.38972704946394	17.17720877580794	-3.7530701867620264
O	90.64452778621764	16.647492252682763	-5.7625817784466555
