18

O	90.90892931117595	24.796816874218727	-6.640602522843908
O	90.56436419992346	23.909558484274417	-5.598666493904268
O	90.5476518591419	22.577586783846037	-5.306723222928029
O	91.41262964038889	21.89181330945926	-5.98486406596008
O	92.34950179841584	22.694154001888336	-6.342731543502795
O	91.8972158701487	24.152834308900502	-6.925140551543699
O	89.44578151726475	21.80958800898735	-5.323033146694508
O	89.76052417351171	20.619293401824685	-5.791726590565796
O	91.04407321252678	20.60626768834862	-5.560207688454031
O	91.80379543651068	19.521870974937467	-5.065907854776668
O	91.1974171456934	18.508678118002074	-4.33986738345077
O	91.91145330950415	17.450818805960957	-3.6097206441918943
O	93.14579436368284	18.201973463047164	-3.2672215448012203
O	93.15270187862211	19.77139121039852	-3.5498740614000033
O	92.97492978355761	20.16124269759772	-4.887558851675021
O	93.84233914120378	17.57227459128803	-4.0046307615851475
O	90.20368097271057	18.816311685716556	-3.654610659724299
O	90.4055650418405	25.753798538628047	-7.22141228070244
