21

O	90.83086132538429	25.035315031690217	-7.43183137284889
O	92.02370378003843	24.571685820966426	-7.128682259760378
O	92.05184559246572	23.81520906955481	-5.989482606312653
O	91.49510062984764	22.660159525138045	-6.532190476680318
O	90.21980964694873	22.856593053965746	-6.9241093215366245
O	90.09698533676108	24.00671796725444	-7.7050429857602865
O	93.08723745461111	23.42449428396786	-5.2690598115258345
O	92.84952406951517	22.267600031502774	-5.09337396744981
O	92.61629461846951	21.90245122394514	-6.450214373694989
O	93.6296789996495	21.473746502140823	-4.299776499170063
O	92.60600780973407	20.51184359869573	-4.111812836567235
O	93.15651990765424	19.19247032178328	-3.971388790414933
O	94.49483020249959	19.200429259027384	-3.9958895484311183
O	95.22092021034955	20.381725014754117	-4.549963054077352
O	94.42458219050647	21.027078490447686	-5.4425809669790075
O	91.2247488201842	20.673671411408623	-4.278227996175052
O	90.82881021337494	20.361651664580414	-5.599591409599304
O	91.50922318077166	19.058930044192664	-5.677337251444304
O	92.17603990623964	18.364257365627683	-4.597142378081674
O	91.37203730924968	25.84916456573996	-8.450567510750549
O	92.86502672720925	17.13401922284815	-4.477189738967133
