82

O	0.929947773592187	-0.23781052009375037	-1.0059977138593752
O	0.793565753592187	0.7560128339062497	-2.014327874859375
O	2.209679643592187	-0.9221140800937502	-0.7898172790593752
O	0.08002532059218692	0.3746184859062497	0.09292398114062483
O	1.731524103592187	0.2719886769062497	-2.984238724859375
O	-0.477363459407813	1.4070395659062498	-2.3268946848593752
O	2.945472853592187	-0.3979430700937503	-2.719676884859375
O	3.3365790235921864	-1.0363772200937504	-1.5117145878593752
O	-0.24523318740781302	1.8579644529062498	-0.2674053318593752
O	-3.2196640164078127	3.4687212699062497	-0.2720548738593752
O	-1.311210501407813	1.3007287839062498	-1.1761228728593751
O	4.613373303592187	-1.49274913009375	-1.5060320288593751
O	-3.270903206407813	1.8077186499062496	-1.3985721108593752
O	-3.164318386407813	1.9066484799062497	0.4794630951406249
O	-2.356180046407813	2.07880457990625	-0.3820124638593752
O	-2.256004866407813	4.31395763990625	0.28718834514062475
O	-4.145147266407813	4.20121228990625	-0.6514757307593751
O	-2.583852746407813	3.9142794899062494	-1.5586039158593752
O	13.737441943592188	0.7284506809062496	-3.2160811748593754
O	-1.727636086407813	14.32377161990625	-2.147270884859375
O	1.883181543592187	14.11898851990625	-1.0261514958593752
O	1.170028713592187	10.85221633990625	0.8048205251406249
O	-0.29824713340781306	9.10267764990625	-2.235677134859375
O	2.4749650935921865	10.77492439990625	-4.283183784859375
O	5.1310145935921865	8.97774738990625	-2.2249022248593753
O	3.264680023592187	5.46261015990625	-2.302923574859375
O	2.834540783592187	5.81486951990625	-6.054337224859376
O	6.433944903592187	6.87065583990625	-6.738242684859376
O	7.5981039635921865	3.8865515499062493	-4.674638314859376
O	5.204911453592187	1.3146980309062497	-6.200850064859376
O	6.036274923592186	2.16754934990625	-9.814037694859376
O	9.734132043592188	1.7756971139062498	-9.057415914859376
O	9.023643793592187	-1.59590715009375	-7.438014444859375
O	6.735789683592187	-2.6080758800937502	-10.287135714859376
O	-1.090817582407813	-10.22429068009375	-9.388936124859375
O	1.084669673592187	-7.0963081500937495	-9.120468814859375
O	-0.910794634407813	-5.53496604009375	-6.314491154859375
O	-0.762825217307813	-8.66895663009375	-4.158479574859375
O	2.919486613592187	-9.13562808009375	-4.885185244859375
O	3.5599703135921867	-5.62836196009375	-3.7001642648593753
O	1.484880533592187	-6.02485758009375	-0.5412926188593752
O	3.148146833592187	-9.31396338009375	0.1429789571406248
O	6.548929203592187	-7.643825670093751	-0.10754453185937518
O	5.361530963592187	-4.87043829009375	2.139787975140625
O	4.029645223592187	-7.3481190000937495	4.770673555140625
O	7.294118313592187	-9.31114818009375	4.717592295140625
O	9.463219143592188	-6.36052121009375	5.599049975140625
O	6.990659413592187	-5.01163393009375	8.192867635140624
O	3.933522153592187	-0.28522066009375036	11.464153265140624
O	4.250805663592187	-0.6395455500937504	7.740768605140625
O	7.7676262035921875	-0.4665889600937503	6.349493005140625
O	7.312148013592187	0.8741647459062497	2.823389745140625
O	11.012741743592187	1.7124928329062499	2.790192175140625
O	4.220001993592187	4.85495029990625	8.512690145140624
O	2.057961813592187	4.11988984990625	11.524101965140625
O	-1.533433293407813	3.03604100990625	11.246649665140625
O	-2.653870496407813	6.59814503990625	12.135959965140625
O	-0.6117468774078131	8.391212259906249	9.475572165140624
O	-2.6106923764078127	6.62286609990625	6.928491615140624
O	-5.270943966407813	9.94627576990625	2.6942607951406248
O	-6.6697866864078135	3.80875104990625	3.2095182651406247
O	-7.068797016407813	3.25494872990625	6.945830425140624
O	-9.098401326407812	0.06858260090624968	6.479772615140625
O	-6.434382456407813	-0.8665515400937502	3.811553045140625
O	-3.7064509964078134	-0.39254133009375036	6.358035415140625
O	-5.539902516407813	-2.45364350009375	9.003619645140624
O	-5.937534516407813	-5.31932003009375	6.544623425140625
O	-2.160385896407813	-5.33569615009375	5.876446745140624
O	-3.745995396407813	-11.07071708009375	0.6052976151406249
O	-5.944640316407813	-11.23333668009375	-2.506574744859375
O	-8.700146486407812	-9.43965518009375	-0.5592224718593752
O	-6.416116516407813	-6.6014096900937504	0.5096731651406248
O	-5.328895396407813	-6.34775329009375	-3.129191244859375
O	-9.548820116407812	-3.31173318009375	-1.6372081868593753
O	-6.500001986407813	-1.3760583900937504	-2.499559594859375
O	-7.290467046407813	-1.3999070500937505	-6.129940714859375
O	-10.833192156407812	-0.18000941009375038	-5.4810817748593745
O	-9.511108626407813	2.6811450599062496	-3.440796974859375
O	-6.617821256407813	3.3890697299062493	-5.689094304859376
O	-9.054358756407812	3.43887802990625	-8.616900084859376
O	-11.474366756407813	5.79840550990625	-6.946798954859375
O	-8.650137386407813	8.32946269990625	-6.844070674859376
