89

O	-1.1590379188063493	-2.8464251921269836	-1.69478532515873
O	-1.2089328042063492	-3.778627342126984	-0.6639935671587299
O	0.11297301879365085	-3.8817511921269836	0.019642648841269983
O	0.34061366879365074	-2.556788972126984	0.3838214028412701
O	-0.08326837120634933	-1.683940382126984	1.30970393284127
O	-0.21617277520634925	-0.48126578612698395	0.73144322284127
O	-1.4118537072063493	-0.662224487126984	0.059619962841270024
O	-2.3884487712063494	-1.336992672126984	0.6234419828412701
O	-3.6233616412063494	-1.563801172126984	0.006589072841270083
O	-4.084471891206349	-0.954099802126984	-1.16507910215873
O	-5.217968961206349	-1.332746322126984	-1.8302967971587298
O	-3.0109145812063494	-0.23573126612698392	-1.58122470615873
O	-1.8055002662063493	0.09464745237301606	-0.9583741860587299
O	1.1094603787936508	-0.09758962212698395	0.35532350284127
O	1.9861261787936508	-1.118003672126984	-0.14836482215872993
O	1.0454628587936508	-1.9758282521269839	-0.60728473815873
O	0.025310718793650766	-2.0983102821269837	-1.6103527051587299
O	3.157439798793651	-1.292354212126984	0.5771329928412701
O	3.384324948793651	-0.07403741912698396	1.3012970428412702
O	1.995724158793651	0.4107599958730161	1.38388001284127
O	-0.1480889962063493	-4.655955412126984	1.2440014728412698
O	0.07501789879365073	-3.521640972126984	2.0682961828412703
O	1.544647498793651	-3.775848352126984	2.03231486284127
O	-2.526257041206349	-2.925398812126984	-2.19240926715873
O	4.284893578793651	0.604833864873016	0.5658707928412701
O	4.184215598793651	-0.522168862126984	2.3056354828412697
O	-13.314462251206349	-5.350513922126984	0.24183151284127002
O	2.8045552187936504	-2.583409762126984	15.021234592841271
O	4.942670778793651	-2.5707867221269836	11.90545569284127
O	3.9036412987936506	-6.205433022126984	11.570971592841271
O	0.1781151787936508	-5.991153282126984	12.32877819284127
O	-0.008451331206349222	-2.8932081821269837	10.08254209284127
O	1.591545588793651	-4.560026772126983	7.045859602841269
O	-0.46939164520634924	-7.680686412126984	7.994595312841271
O	-3.771691381206349	-5.8199203221269835	7.617731592841269
O	-2.844641701206349	-4.097086522126983	4.35101457284127
O	-1.5045333962063492	-7.399016932126984	2.9071720128412704
O	-4.60534717120635	-9.237499142126985	3.7618718828412696
O	-6.638036361206349	-6.599500482126984	2.0561204428412703
O	-4.630148391206349	-6.372168012126984	-1.11243714715873
O	-4.466571001206349	-10.012426882126984	-1.86110034715873
O	-8.24518625120635	-10.027495582126985	-1.63813702215873
O	-8.40880936120635	-7.077686802126983	-4.05638128715873
O	-5.847381011206349	-8.666073082126985	-6.34637155715873
O	1.8631971587936509	-8.836618462126985	-13.508313507158729
O	0.3953299687936507	-3.049168122126984	-13.450279007158729
O	-1.3133200962063492	-4.539162732126984	-10.39525692715873
O	0.4369691287936508	-2.215679772126984	-7.91483974715873
O	-0.5984297602063493	0.912558886873016	-9.858064497158729
O	-4.166421651206349	-0.36551852012698394	-10.31845670715873
O	-4.377365431206349	-0.895227516126984	-6.4947062771587305
O	-2.9103556412063494	2.558303207873016	-5.75314578715873
O	-5.236487541206349	4.1135014078730165	-8.25662130715873
O	-8.23619507120635	2.449800227873016	-6.62557018715873
O	-6.911952881206349	3.5075847478730164	-3.2125847071587303
O	-6.596624451206349	7.211174947873016	-4.43341343715873
O	-11.723781251206349	6.109746057873016	-2.66914030715873
O	-6.019870371206349	6.864718867873016	2.91648222284127
O	-9.237023181206348	4.883091677873017	2.7856848428412704
O	-7.786757281206349	1.223412177873016	2.3377461628412703
O	-11.46553985120635	0.23008702487301608	3.4792769628412694
O	-5.342837371206349	5.7001632078730164	8.255364372841271
O	-3.9060336012063495	9.187483187873015	8.65947021284127
O	-0.5286630452063492	10.163641617873015	7.27488740284127
O	0.9943206887936509	9.834617907873016	10.783289892841271
O	-0.2644838322063492	6.340455977873016	11.55169749284127
O	1.8341725087936507	5.113579467873016	8.63067616284127
O	5.706683378793651	0.554257092873016	9.39206729284127
O	6.103715038793651	3.8347244778730163	4.17697431284127
O	5.672450008793651	7.450989577873016	5.22874979284127
O	7.223579758793651	8.760305367873015	1.99635799284127
O	5.005122108793651	6.332439087873016	0.12278648284127014
O	1.9307914387936507	7.605325187873016	1.9366745528412699
O	-0.3671968172063492	8.753849717873015	-2.61783538715873
O	1.1477491887936508	6.767313767873016	-10.18808519715873
O	3.7921570587936513	4.5221820678730165	-11.78657170715873
O	6.434868578793651	6.157295417873017	-9.58680879715873
O	4.503948308793651	5.503779927873016	-6.40204244715873
O	4.062834748793651	1.9106149478730161	-7.56523159715873
O	7.74857701879365	1.408964477873016	-8.01204818715873
O	8.529354438793652	2.972878017873016	-4.68651555715873
O	5.997657968793651	0.681391422873016	-3.06692354715873
O	7.344431598793651	-2.3350881021269836	-4.56671216715873
O	10.970785348793651	-1.477345302126984	-3.5917937371587296
O	9.819919748793652	-1.064967032126984	0.025495236841270086
O	7.5056394787936505	-4.0643125321269835	-0.03890477615873
O	10.259121148793652	-6.111898722126984	-1.44979550615873
O	12.70149054879365	-4.994530152126984	1.24556839284127
O	10.338595948793651	-6.526622352126984	3.7796594928412697
