84

O	-1.6771396082812502	2.9006783432281242	0.7868587231718751
O	-2.9998524822812502	3.1126778032281246	0.894238593171875
O	-3.43492184228125	3.049375543228124	-0.3977001838281249
O	-4.70503219228125	3.499397353228124	-0.6691001058281248
O	-2.6839776622812503	2.1673111932281244	-1.1138063398281248
O	-1.5359694252812504	1.4603067882281242	-0.6833854818281249
O	-0.4025547832812502	0.6135406892281243	-1.153950567828125
O	0.9757890477187497	0.6225049412281243	-0.6864377198281248
O	0.8543882877187498	-0.05748508677187569	0.5599786131718751
O	-0.07716801328125023	0.9255309532281243	1.1415005231718751
O	-1.2118305772812503	1.6334193742281244	0.6018045931718752
O	0.8255509877187498	2.0757010832281244	1.2729156631718752
O	1.9329050177187495	1.3614336012281243	1.858253083171875
O	2.9131825977187495	0.3985111942281243	1.653598273171875
O	2.1178678177187495	-0.6057449967718758	0.8822173931718751
O	3.29810337771875	-1.1778547867718758	0.2268179511718751
O	4.5552682077187505	-1.2793774167718757	0.8040859231718751
O	3.82467656771875	-0.6604636267718758	2.006480363171875
O	4.96913462771875	-0.7021534367718758	2.5590791531718753
O	3.9396311177187493	0.9961050101281244	0.7788454231718751
O	-11.355169562281251	7.453942603228125	3.808727003171875
O	4.01930410771875	-1.9761029567718758	13.748819983171874
O	0.24814206471874978	-1.6523671067718755	14.229685283171875
O	-0.21553524128125023	-2.867012796771876	10.634848183171874
O	2.1019981477187497	-0.2452967367718757	9.092806363171874
O	0.5497583177187498	2.2481812832281243	11.612703183171874
O	-2.90944959228125	1.7196183602281243	10.126655783171875
O	-1.7746063522812503	1.9492700102281244	6.448836833171875
O	0.28542261471874975	5.077703883228125	7.164099733171875
O	-2.6274309422812503	6.735810333228125	8.908436223171874
O	-4.80287695228125	5.892080683228125	5.874672143171875
O	-2.3332160122812504	6.917413663228125	3.1569640531718752
O	-1.6272346562812503	10.350989883228124	4.7581911131718755
O	-5.3318633922812495	11.097508663228124	4.989211693171875
O	-5.68824703228125	10.108698863228124	1.3460850831718751
O	-2.6382181722812503	12.131670363228123	0.39111720317187515
O	3.31337909771875	10.222140033228124	-8.608627776828126
O	1.5337354077187495	10.083955013228124	-5.232498346828125
O	2.4278089677187498	6.464201173228124	-4.487913716828125
O	1.1402800477187496	5.289491763228124	-7.924020976828125
O	-2.03652030228125	7.370713643228124	-7.599095906828126
O	-2.6842699222812505	5.768234283228124	-4.205319446828125
O	-2.0510046822812504	2.2883939232281243	-5.359104726828125
O	-4.17008973228125	2.8722030932281246	-8.482366326828124
O	-7.04904037228125	3.9479034232281247	-6.234206506828125
O	-6.48298454228125	0.8589618202281243	-4.074862356828125
O	-6.51481225228125	-1.4587426767718756	-7.0938913668281245
O	-9.73458692228125	0.10378212422812427	-8.395008716828125
O	-11.68448276228125	-0.5290490267718757	-5.208790406828125
O	-10.25086296228125	-4.049772316771875	-4.765568956828124
O	-8.20985546228125	-9.086897136771876	-1.2978367398281248
O	-6.9484484922812495	-5.462484406771876	-0.9464699168281249
O	-9.69591387228125	-3.064954266771876	0.0720262321718751
O	-7.70921590228125	-0.3510808267718757	1.8444597331718753
O	-11.06551766228125	0.8175505432281243	3.342126983171875
O	-6.6925836422812495	-7.458279046771875	4.200017943171876
O	-6.03349769228125	-10.839299136771876	2.583749763171875
O	-2.75385300228125	-11.636064436771877	0.8817041031718751
O	-1.6743332942812503	-13.643634836771877	3.967545573171875
O	-2.33093521228125	-10.952433336771877	6.563321553171875
O	0.3135092887187497	-8.871032226771876	4.857763453171875
O	4.80739261771875	-6.5483422867718755	8.087701543171875
O	5.2212936977187505	-6.349175976771876	2.006380473171875
O	4.04714161771875	-9.751434136771877	0.7825306931718752
O	5.73054341771875	-9.357011236771877	-2.615069916828125
O	4.27050944771875	-5.757000436771875	-2.591645436828125
O	0.8069311377187497	-7.213533536771876	-2.024969006828125
O	2.2149261377187495	-7.057468536771876	-7.215329896828125
O	-1.0160718262812503	-5.116321516771875	-6.462138306828125
O	1.8214135077187494	0.3587813542281243	-11.497145016828126
O	5.0127077777187505	2.430276803228124	-11.497631816828125
O	6.9645442377187505	-0.7062044267718757	-10.553161216828125
O	4.79695135771875	-1.4603622767718758	-7.492145106828126
O	5.17423679771875	2.1751314932281245	-6.542399476828125
O	8.945781847718749	1.9462380722281243	-6.645676286828126
O	8.915001057718749	-1.3459169767718755	-4.714822296828125
O	6.64761148771875	0.09300993222812426	-2.100622306828125
O	8.720470417718749	3.0437101432281244	-1.6723060068281248
O	11.932930737718749	0.9832037342281243	-1.351245755828125
O	10.36875883771875	-1.1151446167718755	1.354705833171875
O	8.64151300771875	1.7939042692281242	2.982197733171875
O	11.96746563771875	3.6251183832281244	3.002780313171875
O	13.77853163771875	0.6985944112281244	4.5787145131718745
O	11.372733937718749	1.0040312106281244	7.492303743171874
