86

O	1.6123909087121215	-1.5269270419242427	0.4021701655621215
O	1.8830751787121218	-0.43791665192424256	1.2384253035621215
O	2.104118528712122	0.6974678320757575	0.5425738635621215
O	2.4454933487121218	0.8026781660757575	-0.8188539314378785
O	2.2429308987121215	-0.48015708192424245	-1.3685495274378785
O	1.1275046187121216	-1.1793473819242426	-0.8103743274378785
O	0.9781197287121217	1.4180046460757576	0.27287814556212153
O	1.0388881487121218	2.2730900980757576	-0.6439924707378786
O	2.3768454487121216	2.1427827980757574	-1.0741425294378786
O	-0.06671312528787832	-0.6303315819242425	-1.5201761194378784
O	2.8010337487121215	-0.8502097519242424	2.228942303562121
O	3.6326396387121216	-1.9810460619242425	1.6298774535621212
O	4.189999828712121	-2.1825951119242424	0.5484212335621216
O	0.046577279712121666	2.3776793880757574	-1.6817984364378784
O	-1.2587884492878785	2.0535661050757574	-1.7225308464378783
O	-2.0383977912878786	2.5910037880757573	-2.7113810764378785
O	-1.8029779612878782	3.7075738080757574	-3.3631225564378786
O	-0.8055705682878783	4.349722288075758	-2.809056276437879
O	0.24823911471212168	3.5664358180757576	-2.3102461964378787
O	-2.5865743212878782	4.330595628075757	-4.267461366437878
O	-2.6636718512878783	6.325638948075757	-12.497017156437877
O	8.66506459871212	-9.866580681924242	-3.5468885164378787
O	10.831472508712121	-7.561782621924243	-5.662803996437878
O	8.695715988712122	-7.158226891924242	-8.793343256437879
O	5.617422008712122	-6.724770791924243	-6.543955996437878
O	7.149392688712122	-3.899068371924243	-4.5119606464378785
O	8.593175598712122	-2.527247181924243	-7.737679506437878
O	5.127235028712121	-2.1044979919242426	-9.230654656437878
O	3.5777212887121213	-0.4393606019242424	-6.085080586437878
O	6.548981778712122	1.8959659550757575	-5.631671756437878
O	6.312524578712122	2.9381512780757575	-9.243273466437879
O	2.602007638712122	3.5845823380757578	-8.728743296437878
O	2.8858248687121217	5.479056738075757	-5.464704726437878
O	5.570037678712121	7.846664318075757	-6.668652916437878
O	3.457515378712122	8.716520288075758	-9.692035266437879
O	0.5081781287121216	9.378518288075757	-7.400722426437878
O	2.6791486187121216	11.308420418075757	-4.973974916437879
O	0.2638657357121217	12.801433518075758	5.617737513562122
O	1.2050695687121218	11.422307018075758	2.1930717535621214
O	0.9956669387121218	7.749771778075758	3.1692043635621214
O	-2.4881104612878784	8.179739718075759	4.709761053562122
O	-3.6940757712878782	10.191855268075757	1.7244995335621214
O	-2.5146396912878783	7.388598588075757	-0.5400159155378785
O	-4.068090061287878	4.622917598075757	1.4749561135621212
O	-7.271466301287878	6.646574638075757	1.7549872435621214
O	-7.369421021287878	6.923212098075758	-2.0186978864378786
O	-6.655638961287878	3.1958142980757573	-2.2879489764378786
O	-9.465411541287878	2.3639808180757576	0.11745670056212143
O	-11.938380291287878	4.602244158075758	-1.7355721764378784
O	-11.436582291287879	2.873011548075757	-5.0524422064378784
O	-11.452915891287878	-0.6045284419242425	-3.4955419264378786
O	-9.685643321287879	-6.791437741924243	-3.0819691864378784
O	-7.332279051287879	-3.7911658619242425	-3.244914136437879
O	-7.6407627812878784	-1.7542910819242425	-6.437029476437878
O	-4.170934171287879	-0.17211063192424247	-6.712657886437878
O	-5.096663541287878	0.5329801290757575	-10.402355606437878
O	-4.586559871287879	-7.7484043419242425	-5.955952956437878
O	-6.366329861287879	-10.180773881924242	-3.6317982664378787
O	-5.509854681287878	-10.493159681924242	0.04018856156212147
O	-3.5081901612878785	-13.671233981924242	-0.7517662064378785
O	-1.3388827162878782	-12.226207381924242	-3.5385127164378787
O	0.11243284171212165	-9.898949681924243	-0.9833617784378785
O	6.0790891387121215	-9.444589181924243	-0.38641524543787853
O	2.4950448787121218	-6.812185711924243	3.9644978635621215
O	-0.30040183728787834	-9.262437881924242	4.613404513562122
O	-1.1699583132878784	-7.633885921924243	7.962332773562121
O	-1.0255269462878784	-4.273800291924243	6.208277393562121
O	-3.4103293412878783	-5.536172331924242	3.5242261135621216
O	-5.815201521287879	-6.737612131924243	6.172671123562122
O	-5.745089991287879	-3.3284647519242423	7.8591532435621225
O	-6.655653281287878	-1.6254820519242423	4.539479623562122
O	-6.091968941287878	5.171094868075757	8.612268313562122
O	-3.240656881287878	6.840334358075757	10.524420643562122
O	-2.4348814112878783	3.461044148075757	12.092083943562121
O	-2.225089131287878	1.6874188120757574	8.741945583562122
O	0.002647981712121661	4.552044468075757	7.589234963562122
O	2.4060383187121217	4.085451688075757	10.467247443562123
O	2.4653392187121215	0.3026922590757575	9.895751543562122
O	3.1501123887121216	0.7632694620757575	6.291952403562122
O	5.9628993687121215	3.1911822380757577	6.8723708535621215
O	7.560199068712121	0.7471691710757575	9.298247573562122
O	7.500416488712121	-2.087030961924243	6.843802163562122
O	8.487346148712122	0.12435826907575753	3.9156855835621216
O	11.384532408712122	1.3867865240757575	5.932974913562122
O	12.521691708712122	-2.1274589619242423	6.826311813562122
O	12.95545130871212	-2.7978879819242426	3.1199124135621212
