86

O	-1.7508132496318183	3.0241608986616675	-0.8170000550606065
O	-2.3000885166318183	3.6293390486616675	-1.8747652980606067
O	-3.1572644766318185	2.6439820786616677	-2.3635529580606063
O	-4.329955896631819	2.9948578186616674	-2.9694916080606064
O	-2.3626859866318184	1.5460406116616674	-2.5586380080606066
O	-1.2972591516318184	1.1598776406616673	-1.7129588780606066
O	-0.13463149363181837	0.23490799966166742	-1.5580638080606066
O	1.0810882033681817	0.47187144766166744	-0.7749429070606065
O	0.6518668733681817	0.2563734236616674	0.5631178819393934
O	-0.31491397563181833	1.3776530036616674	0.4867294129393935
O	-1.2146065446318184	1.8220041666616673	-0.5500317160606065
O	0.6240751433681816	2.502057528661667	0.5092978019393934
O	1.5647908833681816	2.0516132986616675	1.5403557319393935
O	2.5287491333681813	1.0853650125616674	1.7814943319393932
O	1.7572726233681815	-0.1281728613383326	1.3196719619393935
O	2.9527703433681816	-0.9641816613383325	1.2278737919393934
O	4.059006153368182	-0.8202122113383326	2.0646446619393934
O	3.141112203368181	0.24347255766166742	2.7800959919393935
O	4.171151723368182	0.15237691066166736	3.4862941419393936
O	3.740865623368182	1.1708232926616673	0.9443711019393934
O	-11.157858656631818	8.784306578661667	-1.6658566380606066
O	2.4946415633681815	0.7238411256616675	13.312653961939393
O	2.2662058033681816	4.5123280886616675	13.387379661939393
O	-1.5016997886318184	5.085995798661667	13.173990061939394
O	-1.6610485886318185	2.3907567586616674	10.463203161939393
O	0.9997894233681816	3.9870795086616675	8.245198221939393
O	-0.6262238266318183	7.391737218661667	9.165270511939394
O	-3.9235913366318185	6.315144328661667	7.607162641939395
O	-2.3954019666318183	4.834651668661667	4.379894671939394
O	-0.18299997463181839	7.895115828661668	3.904541021939393
O	-3.1316929266318185	10.221969238661666	4.325602761939394
O	-5.002023596631818	8.128361028661667	1.6993926119393934
O	-2.173406876631818	7.855993428661668	-0.7994424750606065
O	-1.3763546586318185	11.584447408661667	-0.8125359740606065
O	-5.019592006631818	12.418769208661667	-1.4445760480606065
O	-5.039296056631818	9.912843038661666	-4.286827028060606
O	-1.7395002336318184	11.217951808661667	-5.609686848060606
O	4.988725683368182	5.322054988661668	-11.933454138060606
O	2.8594324733681815	6.7596181486616675	-9.112073178060607
O	3.361000953368182	3.8555063386616673	-6.731290538060606
O	2.3678959733681815	1.2753740476616673	-9.422056238060605
O	-0.6435353816318183	3.344137318661667	-10.479502138060607
O	-1.7841674476318183	3.4566517886616674	-6.854875858060606
O	-1.3119366766318183	-0.19522460133833253	-6.249030398060606
O	-3.0340119466318183	-1.0067545913383324	-9.544241408060605
O	-6.043048716631818	1.0137416359916673	-8.439134478060607
O	-5.970356656631818	-0.7754097613383326	-5.073039688060606
O	-5.838559666631818	-4.192114661338332	-6.696637228060606
O	-8.766212246631818	-3.337775901338333	-8.994450848060605
O	-11.105230656631818	-2.4322610213383324	-6.156533458060606
O	-9.997189976631818	-5.387823941338333	-3.9962932980606065
O	-8.74123424663182	-8.368480821338332	1.5836055419393933
O	-7.269951946631818	-5.0038700813383326	0.4578548259393935
O	-9.900900226631817	-2.3357309113383327	-0.08169187806060652
O	-7.919336936631818	0.8643129136616674	0.4808955809393935
O	-11.325371856631818	2.6242199686616674	0.8887882919393935
O	-7.7541143966318185	-4.4788156613383325	5.944426601939394
O	-7.157604836631818	-8.225554611338334	6.095384961939394
O	-3.7926612166318185	-9.781573791338333	5.387312161939394
O	-3.2186530566318186	-10.194643491338333	9.158223701939393
O	-3.9235148366318184	-6.592008771338332	10.150026761939394
O	-0.9615502559318184	-5.592582151338332	8.104476881939394
O	3.3047005033681818	-2.1598786513383326	10.550855961939394
O	4.418810613368182	-4.761644711338333	5.126467401939394
O	3.1088097433681816	-8.326885291338334	5.375989081939394
O	5.189129723368182	-9.491455791338334	2.3987945019393933
O	4.016202183368182	-6.217397741338333	0.6512085819393933
O	0.4180345533681816	-7.174059971338332	1.3486124519393934
O	0.9056006633681816	-10.727252791338334	0.07177372993939352
O	2.3855362533681816	-9.392652691338332	-3.1415003480606067
O	-0.7468003326318184	-7.275559901338333	-3.7701717080606065
O	3.0295497033681813	-4.740179651338332	-10.297079968060606
O	6.3634032433681815	-2.9698395613383326	-10.825507838060606
O	7.958231603368182	-5.394669191338332	-8.359667258060606
O	5.421281703368182	-4.661222281338333	-5.607237388060606
O	5.972487773368182	-0.9719376713383325	-6.286279838060606
O	9.721263443368182	-1.3109674813383325	-5.797485348060606
O	9.203714043368182	-3.3569455513383324	-2.6116518880606066
O	6.779985743368182	-0.8481757913383325	-1.2059725180606065
O	9.029977933368182	1.9628930546616674	-1.9039280380606065
O	11.982378543368181	0.19268715266166736	-0.24309310406060652
O	9.974559643368181	-0.43447594133833256	2.8692319319393933
O	8.263378893368182	2.8851922286616674	2.8018789219393936
O	11.737223443368181	4.506600438661668	2.4448692119393933
O	13.135408743368181	2.5695160786616675	5.374050751939394
O	10.479273443368182	4.222027268661668	7.503787891939393
