86

O	-2.529132285306451	-1.2236012137580647	1.7648709429193536
O	-1.9211248083064514	-2.0453955237580645	2.666950822919354
O	-1.0151042005064512	-3.0109736037580643	1.9654043029193538
O	-0.1473711663064513	-2.2806478037580646	1.2637778829193538
O	0.6843910746935487	-1.3580820937580647	1.6467837529193536
O	0.5420347546935487	-0.25115495075806454	0.8639316229193537
O	0.8606568046935488	-0.4824103167580646	-0.5278871330806463
O	2.2391298146935483	-0.8051037137580646	-0.9942388650806462
O	2.4746742346935484	-2.1393787337580643	-1.6074743070806463
O	1.0725929946935489	-2.5341372737580645	-1.7894528470806463
O	0.25139908469354877	-1.7249439737580647	-0.9860505560806463
O	-0.6955691763064513	-1.9948232637580647	0.04631454191935375
O	-1.8002401633064513	-1.1298672737580646	0.5739712739193537
O	-0.31341983530645123	0.5191870922419354	1.6112038629193537
O	-0.3196395153064513	0.4900647132419354	2.923607722919354
O	-1.3223432283064513	1.0902668872419354	3.6762586129193537
O	-2.271281775306451	1.9972613562419355	3.219276742919354
O	-3.330712215306451	2.3590950862419358	4.0111121429193535
O	-2.2026892853064513	1.8828429462419354	1.8619179229193537
O	-1.1659489562064513	1.3907536862419354	1.0592649729193537
O	-0.4653330793064513	-4.093614123758065	2.7239744429193538
O	-1.8243509513064513	-4.134780613758064	3.199822142919354
O	-2.273275165306451	-5.289364703758064	2.4177753929193537
O	-3.334363885306451	-0.4428853367580646	2.7114193229193537
O	-4.7901993053064515	3.6776088462419354	12.984704832919354
O	11.430621244693548	-6.609674743758064	2.5260870529193538
O	9.591351044693548	-8.809894743758065	5.022154722919353
O	9.392764044693548	-6.492961233758065	8.041346382919354
O	8.392054004693549	-3.661263583758064	5.698077462919353
O	5.460888184693549	-5.5713677337580645	4.122521212919353
O	4.733041424693549	-6.9001747737580645	7.639081952919353
O	4.173809404693549	-3.3801638137580645	8.996209982919355
O	2.0134799246935486	-2.2896480237580645	6.002168252919353
O	0.017961594693548744	-5.369106683758065	6.289328082919353
O	-0.6802133093064513	-5.0446582437580645	9.927323432919355
O	-1.8532311583064511	-1.5491828837580646	9.322956302919355
O	-4.134891865306451	-2.2262517237580646	6.389126722919354
O	-6.039370255306451	-5.020842683758064	7.937171712919354
O	-6.776926535306451	-2.7679815437580646	10.826080932919353
O	-7.993801625306451	-0.08077570275806456	8.416041762919354
O	-9.943364845306451	-2.5877202737580642	6.373699872919353
O	-14.552446355306452	-6.453309233758064	-2.2247403170806463
O	-12.889398455306452	-1.0323086837580646	-4.0900274270806465
O	-11.052552655306451	-1.5657950237580647	-0.7977638170806463
O	-7.578766155306451	-1.1023146137580646	-2.312007197080646
O	-8.532175945306452	2.2307924262419356	-3.935971377080646
O	-10.329219075306453	3.4427546962419355	-0.7858141680806463
O	-7.122478985306451	2.6848077862419357	1.2083814129193537
O	-4.865724695306452	4.4152353662419355	-1.3628595770806464
O	-7.216338795306451	7.374734726241935	-1.4426814270806463
O	-7.091107005306451	7.663667076241936	2.359544252919354
O	-3.3143632853064515	7.271836196241936	2.248062542919354
O	-3.0435140053064513	10.141386776241935	-0.4084136010806463
O	-3.1660018153064513	12.174355486241936	4.759471802919354
O	3.668704654693549	8.616986036241936	2.301240742919354
O	2.0516142746935486	9.037480446241936	5.7239176429193535
O	0.7842885946935487	5.328536276241936	6.334162122919354
O	0.5089243346935488	6.569120856241936	10.089885032919355
O	8.290133144693549	6.594717326241936	4.583007012919354
O	10.203835144693548	8.422669856241935	1.8536153729193539
O	10.117880344693548	7.302724146241935	-1.7639621270806463
O	13.571330144693547	5.699287446241936	-1.3322476570806463
O	12.798755044693548	3.6197020262419355	1.7361258929193537
O	10.249287944693547	1.7441807062419354	-0.4073325150806463
O	10.435206644693547	-4.2933713037580645	-0.6951400150806463
O	6.843628944693549	-1.2892203137580647	-4.767314807080647
O	8.925883544693548	1.6807605862419353	-5.879964807080647
O	6.845281624693549	2.1711011762419354	-9.035870717080646
O	3.765951014693549	1.8354553262419353	-6.882651017080646
O	5.0581458446935486	4.505828606241936	-4.4840240870806465
O	0.7442915446935487	7.372217286241936	-5.179796617080647
O	-6.384010345306451	5.8487041562419355	-8.381495397080645
O	-7.951812565306451	2.7125184462419356	-9.892706267080646
O	-4.7249823753064515	2.1459121762419353	-11.844703767080645
O	-2.547059885306451	2.3412409962419356	-8.749061457080646
O	-4.9499520653064515	-0.07796981175806461	-7.050644167080646
O	-4.6525914253064515	-2.6044261037580645	-9.857810187080645
O	-0.8658042633064513	-2.2952312237580643	-9.843777687080646
O	-0.7608686883064513	-2.8002996737580643	-6.122888817080646
O	-2.962826445306451	-5.829547803758064	-6.256257137080646
O	-0.7370202873064513	-7.412409323758064	-8.955094637080645
O	2.377554114693549	-6.881689303758065	-6.833456217080647
O	0.6969427246935487	-7.844827413758065	-3.577534207080646
O	-0.5751301263064512	-10.961925413758065	-5.196672007080647
O	2.8944909746935483	-11.874664413758065	-6.494409407080647
O	4.040043124693549	-11.945345213758065	-2.8663998770806463
