24

O	91.82021849126953	21.850887153308282	-6.855425692382926
O	91.31797819646559	23.14383895213196	-7.041708416316362
O	90.24463161861802	22.945035878385585	-6.236563507018654
O	90.35658462464157	21.842942676846445	-5.3433056550462386
O	91.57523616369261	21.399341562881073	-5.045271036680319
O	92.21949085556535	20.702339458968567	-5.921053264720777
O	91.95744684761	20.468507887218077	-3.857446318933035
O	93.14775337808338	21.3402400268643	-4.131204837500665
O	93.74035685741727	22.579946534402335	-4.324121312406814
O	92.5686536145503	23.430871580519668	-4.3259409585921595
O	92.5192221435959	24.696077023297327	-4.613813991571653
O	93.02069184507288	25.2006792907831	-5.692723077213374
O	93.998246458665	24.35063825833678	-5.959027212087505
O	93.79002568880847	23.061580157116403	-5.711864421685041
O	93.38806657157268	20.594093212891973	-5.131057508679041
O	89.50303710836083	20.51244740763069	-5.306080063304699
O	91.37353220083521	24.360843943845197	-7.614403068487352
O	92.47320268943835	26.313044518806787	-6.3139079165143315
O	94.28163967685045	19.727616329780822	-4.758564330932783
O	93.7666304299951	18.388300755881048	-4.5694706603888875
O	93.96746613700182	17.639406547576172	-3.455344127083376
O	95.28674308847546	17.673280578866944	-3.1479143234254083
O	95.57171522883141	18.942316766447536	-2.762974199358405
O	95.24977369630574	19.87124551355851	-3.7065269969417143
