20

O	92.53587536843175	22.81826995059467	-5.888970423131898
O	92.34334737506192	23.701183778938308	-6.873830368954842
O	91.21677942125012	24.367172214482604	-6.5504325470527105
O	91.0166760829816	25.553927124648453	-7.199702044469058
O	90.40037536508974	23.645218181369916	-5.739779290042367
O	90.60868105106053	22.327731431098208	-5.260119671963445
O	90.1000129594656	21.253132745793327	-4.371121635076196
O	90.86108107200518	20.22700868158855	-3.6499254209980174
O	91.1768265829247	19.352259501612043	-4.725167578427405
O	91.94510528120205	20.37029451173414	-5.462909522403457
O	91.69253482575161	21.746684133402876	-5.794434954796191
O	93.06904044286924	20.57844765453821	-4.556158999972171
O	93.30356542228861	19.20804336611109	-4.1541005213691475
O	92.80750465404877	18.04031726669883	-3.61780154827786
O	91.39764543545776	18.101581626991685	-4.123385174042569
O	90.8526829494636	17.31008822389572	-2.997555826652741
O	91.56102322246716	16.235684392535745	-2.450434228311186
O	92.6081182748632	16.61898151899371	-3.549330980121491
O	93.17861812121814	15.589438986499278	-3.114325399993018
O	92.76813584644782	18.184798636104148	-2.141543054313784
