17

O	93.0256715963541	23.545615592427172	-4.609133211825854
O	93.23065179354566	22.405299454009484	-3.7520899046072564
O	92.06426683713428	22.135711024150204	-6.01867537951968
O	92.29101426153952	20.10724737553821	-3.0707621736646393
O	91.25763629061338	19.354939334996313	-3.812688295406036
O	93.12543107276464	19.668868794243853	-5.558546637299136
O	92.97808390003769	17.79621558639015	-4.120788610808107
O	92.1704312471461	23.477912591400838	-5.780554332580782
O	93.0264301907381	21.08859780850215	-3.9854411615962753
O	92.85317506000646	21.078429666354527	-5.342712784590972
O	91.97969659216939	16.74527666063642	-4.046074152063356
O	92.23100638259194	18.875167209537363	-4.705095327271321
O	94.14231498854433	18.244214154654284	-3.8162854813271965
O	92.20160291823598	24.598008981096854	-6.5797574090715045
O	91.29258476215821	16.77219089549211	-5.386827311343366
O	90.77275697768269	17.22546710065817	-3.5021648173242887
O	91.96380087512077	15.505235463680755	-4.153831213734641
