21

O	92.87480345662708	20.953076706253764	-4.8566571475591465
O	92.82680339088986	21.565024214978475	-6.054147250217121
O	92.84660430148257	22.82791384585548	-6.217503347010259
O	92.71756282214339	23.481886028728983	-5.0761380462791195
O	93.54907313351212	23.058090700104692	-4.08691279104154
O	93.23572104973427	21.763901029313647	-3.874748752312674
O	92.3670274047275	23.378288088878556	-7.303353912302153
O	92.01684720740201	24.675850983402984	-7.330037667091565
O	91.42837176424305	25.280598616403363	-6.347444565139123
O	91.82517613067279	24.580362938335362	-5.307653509820982
O	91.3506813240718	26.58544571233358	-6.679404501620888
O	91.61099265873035	20.231693148600666	-4.59707384192507
O	90.52490899116944	20.938905323001585	-4.562938257529204
O	89.61962274780123	20.48688597051004	-5.446082972191875
O	89.95387670858653	19.395788239307482	-5.754770535039521
O	91.17690394255531	19.264908417104948	-5.363699972943174
O	90.3151054854919	22.36307611655959	-4.658935351909712
O	89.49676246217206	22.848767335078904	-5.618204838684349
O	89.59436827004617	22.573174794143448	-6.873147228812579
O	89.69954743774181	21.23076047238763	-6.709562065517261
O	89.65952132220401	23.524431444686044	-7.8217541622575135
