80

O	-1.459077348406349	-1.4214089116365076	-3.2679728001666675
O	-2.3567359784063493	-0.9778465516365076	-2.2314775401666673
O	-0.036494562406349074	0.08202922836349247	-2.4838356301666673
O	-2.4823435634063493	0.022695758363492358	0.13734228083333266
O	-1.350862181406349	0.6342613773634924	0.8653732998333328
O	-1.4986641884063492	2.0439436953634926	-1.2854825141666673
O	-2.6403636324063493	2.5833655683634924	0.7148264098333328
O	-0.06489144240634914	-1.0168658316365073	-3.2969167001666673
O	-2.256118290406349	0.0644696583634925	-1.3751391171666674
O	-1.226008036406349	0.7727553303634924	-1.9314764801666673
O	-2.125396865406349	2.9718687183634924	2.015098159833333
O	-1.539120505206349	1.8398379583634925	0.16883554083333274
O	-3.622510802406349	2.4913421483634925	-0.10723047816666731
O	0.618966957593651	-1.3938824216365076	-4.4302786601666675
O	-0.7261158254063491	3.4605603383634924	1.7436959698333325
O	-1.534388958106349	1.8786958873634925	2.677522699833333
O	-2.233926890406349	3.9532946883634925	2.7731157898333327
O	4.365710487593651	-0.8318403816365076	-13.287380030166668
O	-5.079717762406349	13.920849398363492	-2.2952830501666672
O	-2.259948358406349	13.813712198363492	-4.866659010166668
O	-0.48249050240634905	11.170712498363493	-2.729843320166667
O	-3.502716912406349	8.894281598363493	-2.6620076801666674
O	-4.109370132406349	9.704493138363492	-6.314170110166668
O	-0.6917102534063491	8.314721318363492	-7.284191370166667
O	-0.9877599794063491	5.141766448363493	-5.310518540166667
O	-4.581164522406349	4.429054028363492	-6.554139820166668
O	-3.457389352406349	4.876275248363493	-10.081496740166667
O	-0.5901425124063491	2.4317314083634924	-9.487349390166667
O	-2.652047532406349	-0.2362260616365075	-7.714699180166667
O	-5.432723902406349	-0.42485128163650754	-10.154364390166668
O	-2.818965542406349	-0.9688634816365074	-12.880457430166668
O	-1.2178369024063491	-3.7238622016365075	-10.794149230166667
O	-4.61169841240635	-5.226756001636508	-9.996528880166668
O	-6.5024770224063495	-11.649163601636507	-1.2551276551666675
O	-5.734910842406349	-8.787314551636507	-3.6625978301666673
O	-4.7241601324063485	-6.393876561636507	-0.9105646761666673
O	-2.2219039064063493	-8.798756231636508	0.6215372998333326
O	-0.8436701134063491	-9.804992601636508	-2.7836757601666675
O	-0.17237160240634908	-6.113301421636507	-3.4903619801666674
O	1.498951887593651	-5.495597331636507	-0.1325945231666673
O	3.512472727593651	-8.633634321636508	-0.5345393476666673
O	4.7264885075936505	-7.357405211636507	-3.919512230166667
O	5.559594827593651	-4.051599621636507	-2.3700827301666676
O	7.513792287593651	-5.634735881636507	0.5416704968333327
O	9.50320497759365	-7.812317001636508	-1.8636115001666673
O	10.814663177593651	-4.914916791636507	-3.8868463701666673
O	11.431028477593651	-2.7025220516365076	-0.7974679621666674
O	11.758336177593652	2.910144408363492	2.3389506498333326
O	8.75184937759365	1.6376312643634925	0.3811120688333327
O	9.56557617759365	1.1141178115634924	-3.3293100201666674
O	6.054420757593651	1.4917134043634925	-4.900456960166668
O	7.82985470759365	1.9375387443634926	-8.269113180166668
O	8.537248177593652	7.095502018363492	-0.3411232401666673
O	10.17865637759365	7.343836408363492	3.0724006798333328
O	8.33006978759365	6.539919198363492	6.255955949833332
O	6.4620088075936515	11.247134198363492	3.529217159833333
O	3.5360890175936506	9.051156498363493	4.374951699833332
O	-1.277914391406349	5.774510098363493	6.876027769833332
O	1.8344731175936508	6.145497728363493	8.924469239833332
O	0.9468877475936508	3.1371974683634924	11.151437469833333
O	0.23086804759365087	1.2281514313634925	7.941981419833333
O	3.659265987593651	2.201103838363492	6.538785219833333
O	5.313376297593651	1.0059417772634924	9.709397769833332
O	3.5156962775936513	-2.3347767616365074	9.438578909833332
O	4.801992887593651	-2.7737589216365075	5.864679149833332
O	-1.4068755334063492	-15.656473801636508	-0.1195798221666673
O	0.6613218775936507	-9.506691901636508	5.918300179833333
O	-3.036939502406349	-10.319670401636508	6.351509239833332
O	-3.125187762406349	-7.891346611636507	9.284236989833332
O	-1.593346691806349	-5.073734411636508	7.282657429833332
O	-4.133369192406349	-5.8513173216365075	4.5534704098333325
O	-5.673576502406349	-2.3017138416365075	8.399632119833333
O	-5.227591842406349	-0.9196829216365074	4.924784199833333
O	-8.71411425240635	-1.8256323116365074	3.867237039833333
O	-10.16947314240635	-0.12047141163650754	6.960118349833333
O	-8.311210552406349	3.087933368363492	6.2633650298333325
O	-8.883336002406349	2.955023148363493	2.4833815098333325
O	-12.526282722406348	2.4575702883634927	3.1272859498333325
O	-12.641055822406349	5.458347688363492	5.451016489833332
O	-11.49844885240635	7.620235138363492	2.551656069833333
