83

O	0.07142972740876896	-3.0951729400415378	3.9924127610984614
O	0.6648114374087688	-2.0375951000415378	3.270602181098462
O	0.479071697408769	-1.2915872000415374	2.1442666410984614
O	-0.7589448535912311	-1.2284569800415377	1.7678673610984614
O	-1.4903283895912312	-1.4435827500415375	2.8014766610984614
O	-1.0466273082912312	-2.6723629000415374	3.7836883210984613
O	1.1545883774087689	-1.4666841500415377	0.9965625610984614
O	0.33689263740876885	-1.2650083600415374	-0.016471637901538605
O	-0.5785687285912311	-0.5367624900415375	0.5604661810984615
O	-1.217287676591231	0.6029299909584624	0.021424838098461407
O	-0.6134650775912311	1.3398304409584625	-0.9854342179015386
O	-1.0835357223912312	2.6448799599584625	-1.4731919139015386
O	-1.6977128975912312	3.1504051499584627	-0.2192511379015386
O	-1.4361079225912312	2.3166910499584628	1.1147263210984615
O	-1.8970512235912311	0.9898475739584625	1.1170418010984613
O	-2.816446922591231	3.0732432299584627	-0.6290655698015386
O	0.6316860074087689	1.3745732549584626	-0.9963192209015386
O	0.4239316574087688	-4.150904550041538	4.509812631098461
O	-5.385653872591231	-9.522858560041538	9.26238651109846
O	-13.349852062591232	3.2175064999584624	-4.936010218901539
O	-13.916437162591231	-0.3971407300415375	-3.8602897789015387
O	-10.162603792591232	-1.0444364300415376	-4.328828178901539
O	-9.127178652591232	1.7942207399584624	-2.0474141989015386
O	-11.963689662591232	0.8086829526584625	0.2831398580984614
O	-10.479337672591232	-2.6674552400415377	0.7920473910984613
O	-6.871826562591231	-1.4966839900415376	1.4012029410984612
O	-8.065772022591231	1.2144612959584624	3.8378917910984613
O	-10.048570972591232	-1.3367229000415377	5.775691251098461
O	-6.822163642591231	-3.4969486300415373	5.907026441098461
O	-4.411648782591231	-0.8461101800415376	6.881884781098461
O	-6.5676493225912305	0.6161582139584625	9.724980341098462
O	-6.956230392591231	-2.8349858100415375	11.20340284109846
O	-3.2186282425912314	-3.3205512500415373	11.005919641098462
O	-2.5464024925912314	0.1598094099584625	12.334580741098462
O	6.768874467408769	5.664866349958462	10.629747941098461
O	3.410428617408769	3.8623990299584623	10.32654944109846
O	3.295034697408769	3.8869245799584626	6.534005441098461
O	6.821284447408769	2.4437582599584626	6.230806601098461
O	6.0671339174087695	-0.1780880810415375	8.89916941109846
O	2.958261707408769	-1.2261678300415375	6.959006451098461
O	4.74491570740877	-1.3855786900415374	3.7220671810984616
O	7.6493282574087695	-3.272024590041538	5.264196081098461
O	5.156775717408769	-5.837065730041537	6.538578061098461
O	3.5126489974087693	-5.985040540041538	3.137038601098461
O	6.893208867408769	-6.487505530041538	1.3820649310984614
O	7.918813277408769	-9.286888760041538	3.7904782210984616
O	4.823956627408769	-11.347392060041537	3.0863137610984612
O	4.965202577408769	-10.713274760041537	-0.6706717717015386
O	2.4475813874087686	-9.910007060041538	-6.501370238901539
O	1.5018392274087689	-7.815980160041539	-3.355510128901539
O	0.0768784674087688	-9.979228260041538	-0.6089149805015386
O	-2.008331243591231	-7.485236530041538	1.3392315210984613
O	-3.7754970425912315	-10.607816160041539	2.8512245210984615
O	-3.1779681125912314	-8.202746570041539	-6.221423678901539
O	-1.012997610661231	-8.337574710041538	-9.349694848901539
O	0.8784086474087689	-5.328270510041538	-10.63217779890154
O	-1.8151927085912312	-4.835019640041537	-13.326134758901539
O	-4.846162022591231	-4.899502380041538	-11.00988755890154
O	-3.459732002591231	-1.7855000600415374	-9.428787928901539
O	-6.986439452591231	3.0601874599584624	-8.666756518901538
O	-0.8484528445912312	3.7615427999584625	-7.750337638901539
O	0.8901278874087688	1.7383539289584624	-10.42433602890154
O	4.221821457408769	3.5499901699584626	-9.819194668901538
O	3.7968166074087693	2.9466836599584623	-6.160432428901538
O	3.2251839774087694	-0.8143704400415375	-6.8496215289015385
O	6.364607687408769	-0.9663371400415375	-8.822312538901539
O	8.345628217408768	0.6523691619584624	-5.986352678901539
O	7.09639497740877	-2.0060628800415374	-3.5135475589015384
O	11.235880537408768	2.0059101799584624	1.9899242510984616
O	11.016944737408767	5.577545539958463	3.2951750810984617
O	10.681438737408769	6.750898259958463	-0.30920378390153863
O	7.797518237408769	4.424097739958462	-1.0812687769015386
O	6.175164917408769	5.611629969958463	2.1425471310984614
O	6.460460937408769	9.261355919958461	1.1419195910984614
O	5.115760167408769	8.499463299958462	-2.3441220789015387
O	2.2345996674087685	6.622392499958462	-0.9006168119015386
O	1.366473517408769	9.385472919958461	1.5354132410984616
O	1.3828013474087688	11.925240739958461	-1.3056605679015387
O	-0.9970479470912311	9.895241589958461	-3.4229474989015385
O	-3.1716408825912312	8.924972899958462	-0.4450338779015386
O	-3.388477882591231	12.576660539958462	0.5036633010984615
O	-4.441091762591231	13.537385139958461	-3.0127226889015386
O	-7.475522402591231	11.280391039958461	-2.6176915489015387
