87

O	0.9188785133761204	0.7810492260044773	3.3820396295134336
O	2.0455083033761206	1.2549107651044773	3.971868699513433
O	3.0150765333761207	0.33656723710447733	3.5795700595134337
O	4.06960816337612	0.1521886321044773	4.430964229513433
O	3.034005503376121	0.31698324710447734	2.1787830195134337
O	1.8604354233761204	0.4354249371044773	1.4083013095134334
O	1.40727227337612	0.5756692871044773	-0.012658458686566641
O	0.11715100337612028	1.2181396601044774	-0.38182081748656665
O	-0.7911635926238798	0.17734026410447734	-0.02839013068656664
O	-0.5144307816238798	0.1464857341044773	1.4073327395134334
O	0.7293424333761203	0.28863603610447736	2.1280622595134333
O	-1.2169323302338797	1.3398516971044774	1.8745174695134335
O	-2.5051013466238796	1.2346131931044773	1.1648107895134334
O	-2.8962815266238797	1.2247336741044772	-0.19318644248656663
O	-1.9225783426238796	0.29172183010447733	-0.8502026874865667
O	-2.1649086336238796	0.7369116612744774	-2.2426582104865664
O	-3.4855553366238796	1.1088300261044775	-2.6117360904865667
O	-3.90851146662388	0.7557106663044774	-1.1444920604865665
O	-5.11676662662388	1.2040314321044774	-1.2460697204865667
O	-2.7454546666238797	2.5213667731044773	-0.8735144304865666
O	4.564783503376121	-1.5488922268955228	13.430335789513434
O	-12.94031585662388	-4.4642984768955225	0.7499178015134333
O	-13.67680375662388	-2.4014081768955227	3.8492805495134337
O	-11.92845845662388	-4.423959946895522	6.577349589513433
O	-8.94585515662388	-4.854783426895522	4.227143839513433
O	-8.53168986662388	-1.1169401368955225	3.5532580795134336
O	-9.29259626662388	-0.5932186068955226	7.310144609513433
O	-6.240281786623879	-2.649484186895523	8.281230399513433
O	-3.8205939266238795	-1.0082632868955228	5.779729059513433
O	-5.013499186623879	2.4835303231044774	6.739365629513433
O	-4.53663996662388	1.7393134541044772	10.410168989513434
O	-1.0035316016238798	0.5073987561044773	9.613038389513433
O	-0.012725996623879743	3.3693376031044773	7.321541479513433
O	-1.1046991906238797	6.112414303104478	9.725091019513433
O	0.8913406833761204	4.529086433104477	12.538945089513433
O	3.8949197433761205	4.345228583104477	10.217912589513434
O	3.3320670833761206	7.896515463104477	9.039817159513433
O	3.7388158533761207	15.870301053104477	2.3129656795134337
O	7.05208847337612	11.785951953104478	-0.5016008224865667
O	5.266260603376121	9.918754933104477	2.2966992395134334
O	3.5428098933761207	7.419563663104477	0.012540132113433362
O	6.854561923376121	6.498489173104478	-1.7330819604865666
O	8.69680188337612	6.248128463104478	1.5910676295134332
O	6.01619286337612	3.8541767431044773	2.8413865495134334
O	6.062131693376121	1.7314241511044774	-0.2635290584865666
O	9.84029554337612	1.6661695681044772	-0.23354714248656663
O	9.78531254337612	0.3750541881044773	3.3449467495134333
O	7.18327113337612	-2.223155826895523	2.3358932495134335
O	9.26011774337612	-3.404910466895523	-0.6190661084865666
O	12.37382064337612	-3.7245396268955226	1.5562693495134332
O	10.74060394337612	-6.045289726895522	4.067959299513433
O	8.98333084337612	-8.104591926895523	1.3581157395134333
O	4.150809243376121	-11.667612246895523	-0.9979013594865667
O	3.796581373376121	-8.182707546895521	0.5744124665134334
O	4.89482492337612	-8.074664876895522	4.191436869513433
O	2.82916476337612	-5.172035666895522	5.537939269513433
O	3.660956073376121	-6.511545806895523	9.058753189513434
O	-0.8896955256238798	-10.767524146895523	1.9951233195134335
O	-0.5183601116238797	-12.675497546895523	-1.2675724804865665
O	-1.0824242806238797	-11.049272646895522	-4.627765440486567
O	-4.53933082662388	-12.708450446895522	-4.8160950804865665
O	-5.82782883662388	-11.524387046895523	-1.4368860004865667
O	-5.5645469766238795	-8.022386226895522	-2.7352808104865667
O	-10.31438581662388	-4.358577956895522	-2.3595387104865666
O	-5.51444643662388	-2.580146236895523	-5.773761260486567
O	-4.427158776623879	-5.675836426895522	-7.723244280486567
O	-2.51755675662388	-3.595568856895523	-10.285326610486567
O	-1.1093058184238798	-1.6179447768955226	-7.267863090486567
O	0.08442109337612025	-4.883729926895523	-5.7261675904865665
O	1.6863844633761202	-6.051810276895522	-8.958786760486568
O	3.566152533376121	-2.7742236968955227	-9.230341720486567
O	5.05962776337612	-3.268418206895523	-5.740314560486567
O	8.55258842337612	3.7808251431044773	-6.943629720486567
O	7.173434993376121	7.258901593104477	-7.668625580486567
O	4.80509195337612	5.703388633104478	-10.212971310486568
O	3.3861331633761207	3.1827451331044774	-7.717562710486567
O	2.9647620833761206	6.0428755331044774	-5.276996390486567
O	0.9627726733761202	8.077701283104478	-7.773452990486567
O	-1.1801178340238798	5.0322448131044775	-8.618331160486568
O	-1.8595908666238796	4.246670543104478	-4.958360490486567
O	-2.78259654662388	7.783747753104477	-4.281492690486567
O	-5.19949955662388	7.855040683104478	-7.245068710486567
O	-6.908021956623879	4.710160003104478	-6.085452200486567
O	-6.77817114662388	5.662229243104478	-2.4448372004865666
O	-8.33270785662388	9.027534223104478	-3.3887992204865665
O	-11.11180081662388	7.375474783104478	-5.364556950486567
O	-12.14799435662388	5.635698443104478	-2.1619706204865667
