19

O	88.97617498555499	21.722278885664146	-5.608300320635581
O	90.5285837762839	23.77840401451342	-6.497824856263096
O	90.40370025373228	22.520442627801398	-5.849031958341581
O	91.24467396633487	21.478527532553795	-5.646587987774273
O	92.30295594041147	21.693415962045258	-6.56222051656159
O	92.37525091112082	22.894939183645153	-7.117204122762914
O	91.6728408363126	24.00563483864805	-7.024068586769255
O	91.09200129106453	20.1559134027988	-5.372012139843323
O	92.17979369303147	19.952811297560608	-4.495607152243024
O	93.3396287088032	20.569420629297547	-4.595382286369151
O	93.29178220427221	20.907998009557122	-5.915977742203778
O	93.55888688480734	21.67196265900054	-3.6863916751212153
O	92.52037608738296	22.56527553511631	-3.3893310591243626
O	92.38731283728573	23.84904812464825	-3.920359719514794
O	92.85417063677382	24.46631178244759	-5.001075327237189
O	94.09610194271963	23.888981750164568	-4.688536115805415
O	94.42809878838862	22.621143146009256	-4.170475002422021
O	92.57998398606539	25.68846172915552	-5.665972907713142
O	90.35948014834057	25.032031707441664	-6.960026000032219
