84

O	-7.5951083530000005	2.416806271574468	-0.5433146089040424
O	-5.496253773000001	2.638591252574468	2.917309930765958
O	-7.8089904830000005	6.2106288615744685	-1.1143737122340425
O	-7.991330313000001	3.3290594315744677	0.38807902476595757
O	-9.543840833	5.632151771574468	-0.8879782012340424
O	-6.897974793000001	3.7443447115744677	1.1718237107659577
O	-5.002672513	-0.6078588584255322	2.4719822807659577
O	-2.5059402020000006	0.9549137315744678	1.9338624507659576
O	-6.0534838330000005	2.801913327574468	1.6326390007659575
O	-7.6007951930000015	6.622350811574467	0.24442953476595763
O	-5.654507153000001	1.5391615245744679	1.2064873807659575
O	-3.1977767952000007	2.964770748574468	1.4078690807659575
O	-8.269871733	7.436786001574468	-1.9126931292340423
O	-6.786331903000001	1.4802883695744677	0.08765956976595757
O	-6.337038863	2.523062751574468	3.9647805507659575
O	-2.932675733000001	3.108526141574468	0.10676514276595761
O	-3.2906953691000007	1.8722797675744678	2.181827470765958
O	-5.415250813	0.2331232515744679	1.4873837607659575
O	-5.792545153000001	1.5564323565744678	4.7012332607659575
O	-6.275979553000001	0.8298161315744679	5.8311930507659575
O	-4.510364433000001	1.7707288025744679	4.344289720765957
O	-4.394961333	1.9950526035744678	3.0540765207659577
O	-4.510261983	3.315754261574468	-1.1919346682340424
O	-5.162267433	4.6091867915744675	-3.6010481292340426
O	-4.755798543000001	4.638610571574468	-1.3108932722340425
O	-5.566584103	5.233464881574468	-2.4586352392340425
O	-3.422436103000001	5.1242551415744675	-1.4207066192340423
O	-6.966417213000001	5.120178311574468	-2.0980104292340425
O	-2.5935256440000005	4.348835801574468	-0.5490544842280424
O	-6.209984193	4.662381701574468	-4.5697448092340425
O	-7.854883793000001	4.567109571574468	-3.0603021092340423
O	-7.466298023	4.152416151574467	-4.302511329234043
O	-3.7758946670000006	2.327028152574468	-0.5341250473340424
O	-6.829589033000001	1.6747743905744679	6.665871430765957
O	-5.143874793	0.27513311157446774	6.508637320765957
O	-6.870351293000001	-0.30565495842553236	5.446781630765957
O	-3.9559972290000007	1.187623585574468	-1.0885760622340424
O	0.11957579699999954	-3.932184458425532	12.926435150765958
O	0.03475979699999954	-7.522644978425532	-6.2993622792340425
O	-1.8749427430000007	-6.664204168425533	-9.435787329234042
O	-4.439304943000001	-4.744869058425532	-7.262840339234042
O	-5.280316713000001	-8.075388558425532	-5.552542179234043
O	-6.778353743	-9.324066358425533	-8.852620829234043
O	-9.572558423	-6.675596168425532	-8.491026599234042
O	-10.657338493000001	-7.8827668584255335	-5.034094509234043
O	-5.543783383000001	1.8978350395744679	-10.374499429234042
O	-4.699665973000001	5.662898271574468	-10.746714349234043
O	-1.0565489930000007	5.3546156015744675	-9.770102029234042
O	-0.8482661930000006	1.9208045115744679	-8.095831759234041
O	1.5305301769999997	-3.2249395184255323	-8.758958879234042
O	-4.044005322	-8.683016058425533	7.368916580765958
O	-5.534569633	-6.261661158425532	9.804678650765958
O	-5.8317523630000005	0.49198247157446784	11.527232950765958
O	5.943564427	11.367955811574467	3.0066517807659574
O	3.1955974369999995	11.576217111574467	0.3951229947659576
O	1.4208686169999996	13.803189141574467	-2.0958950492340422
O	0.8573872469999997	10.688868171574468	-4.207306109234042
O	3.671362366999999	9.950315351574467	-6.602595259234042
O	5.906647117	7.258840561574468	-5.207167149234043
O	8.023988787	1.4041300415744677	-5.389547599234042
O	9.692887787	1.7170708105744679	-2.0499030992340423
O	2.9055040769999994	-1.4327031484255324	9.551409750765957
O	1.3605628569999992	-3.7356655184255323	7.167597500765957
O	-2.3923174870000006	-2.9210997884255323	6.407134460765957
O	-5.157512003000001	-4.185303718425532	4.522656930765957
O	-5.1418132430000005	-7.889867858425532	3.766724140765957
O	-1.3632950330000007	-8.002922658425533	3.8653001807659573
O	-1.5018767930000008	-6.744936808425532	0.2777805297659576
O	2.9698333369999994	-5.318133018425533	-0.07101808223404238
O	1.0383156469999997	-2.5460624884255325	-2.0967673292340425
O	-0.23980200300000076	0.48932395157446784	-0.4218773692340424
O	-0.014647813000000731	3.0549009245744676	2.5020870007659575
O	-1.9961679130000007	6.1403814015744675	3.690964900765957
O	-3.4302799090000007	4.706759971574468	6.786406170765957
O	-1.9130860330000006	1.853422115574468	8.542382140765957
O	0.8543396269999994	2.8300232205744678	10.832204250765958
O	0.2658970269999994	6.625239741574468	10.677325150765958
O	3.5415265569999996	7.699963351574468	6.615828850765958
O	5.118433517	4.450223081574467	5.450673190765958
O	4.117288866999999	1.2130787055744678	3.7788894707659573
O	4.489977257	1.3192516305744677	0.00661665476595763
O	5.8625086369999995	-1.856734978425532	-1.6164724192340423
O	6.307467697	-2.828781628425532	-5.231958119234043
O	10.083380487	-3.023742038425532	-5.806131289234043
