38

O	1.6805473217343647	-13.574484489316212	-15.294044611557714
O	0.8496809594905832	-10.133201888281045	-16.175904031196723
O	2.1718805863904977	-9.964387288178205	-16.493611894918057
O	2.074509197111681	-12.01309873094072	-15.597468205230683
O	0.43931472702470753	-9.5555133140987	-14.910727834511487
O	-0.8775185014071214	-9.900896823461402	-8.856593747165531
O	2.5583350754300485	-8.634291585692846	-16.27651718600976
O	0.8728873355285067	-11.552141257349822	-16.17475446391375
O	2.89941835623786	-11.242024236017123	-16.420752316272782
O	-1.986852502172944	-10.598621661809148	-9.210948920957321
O	0.03463926109072624	-9.689902741429208	-9.989204481271672
O	0.7547382087952723	-10.420272248594877	-13.927218255025963
O	0.7352049303967982	-10.78640808781618	-10.507585779632969
O	2.871159837153867	-7.281568734449467	-16.01890787574219
O	0.968360253904172	-9.911135874299598	-12.655820740934711
O	0.9204689820121361	-10.98300019451094	-11.849563887254774
O	5.146751907761013	-9.242583545935556	-14.363065000388463
O	5.054713210756781	-7.971144739296067	-14.962487800455962
O	2.39359938820757	-14.364799206166971	-14.266943017071135
O	1.815143933584086	-14.338464243113698	-16.58281399130708
O	-0.471569462901515	-9.795702139880072	-7.557413662884799
O	3.882358671458965	-7.212861263548222	-14.908043613176696
O	0.7252703526844231	-8.402771016887666	-14.945553428284754
O	3.725999530889127	-8.89934999768984	-16.765840362489644
O	-2.506903093095459	-11.390543104064491	-8.24320630583853
O	4.013722724379717	-9.870598104134855	-13.757819023502087
O	-2.223358514664138	-10.939584914222351	-10.412557022100199
O	-0.645501761253942	-9.013348315498755	-11.01166374851306
O	0.09814904131729829	-8.890754947877323	-12.209660512940772
O	-0.6537216828416339	-11.009526353542693	-6.889442802975006
O	-2.0063299513867845	-11.337372534039226	-6.93390102285487
O	3.35474255178641	-8.895569480018422	-13.088730900906807
O	-0.07197367523111442	-13.800434972008567	-14.873124012491523
O	3.180723314831403	-7.70985286591951	-13.771403940314332
O	3.7774908233224265	-11.135037727579665	-13.431257799220154
O	3.8821550440323973	-11.797402461294851	-12.204112592200316
O	0.8544744838102529	-12.338861967449523	-12.206966102416096
O	5.926859700679461	-10.154960921835745	-15.012985373236237
