30

O	6.941141365127816	-3.5262046806446334	-13.303146817889132
O	3.774016145751901	-8.480896500665363	-16.35375347065883
O	5.0469537023156485	-8.677614417540562	-15.249939880790725
O	4.3045194409033884	-7.446498576874202	-16.96103752057444
O	2.6196178720892056	-9.536838916214474	-17.149055652343975
O	5.358245467742853	-6.950590122313535	-14.967985243638887
O	4.915987536983521	-6.484623488127321	-16.126716827492537
O	1.8341373339919502	-10.3288245092115	-15.922486809026662
O	3.427367507477592	-10.482337257318875	-17.912387746476032
O	1.7107802396335217	-8.869090767001628	-18.068140035026744
O	5.934013957451152	-5.951408697159525	-14.19012115641301
O	5.34920428208775	-5.191891480106199	-16.35463938433344
O	0.49706423806660904	-10.350055892326868	-15.630777849854091
O	2.673824604356525	-10.426392416912623	-14.813422424067156
O	6.237935349154634	-4.677406151812211	-14.353418386677244
O	5.939369176965494	-4.256381505260599	-15.601118588503091
O	0.07549645003811101	-10.305852844927617	-14.22841773953878
O	2.096605816561838	-11.547103190600215	-13.917645905553506
O	1.03160991118808	-10.796997626472198	-13.23229816226784
O	-0.8731327604245367	-9.76247158208054	-13.578028807118583
O	1.3347587288008134	-9.629774334483002	-12.393722574208866
O	1.6750354202656972	-8.468027725109186	-13.211609577565882
O	1.227793068595465	-8.020402303569831	-14.402645057581719
O	2.934720880169767	-8.004377567869613	-13.239386667179076
O	1.7493275436531275	-6.927191277405127	-14.991046880495759
O	2.9918389957563956	-6.594130497389201	-13.327814361987965
O	2.6151721762211975	-5.9431907980079295	-14.50936535556381
O	2.7326787873713365	-4.564429618694636	-14.902585740150013
O	3.179728875995882	-3.526772012433275	-14.293550664522066
O	2.727279969835291	-3.893202439664958	-16.127567389244405
