83

O	-1.6879475469282608	5.024850327434782	0.33853864876086914
O	-2.7913769509282607	2.2802983064347826	3.5262692647608693
O	-1.8271979309282607	5.929019807434782	-0.6765964632391308
O	-1.4741312959282606	3.6493811474347826	0.2417046397608692
O	-4.91169079592826	6.558859877434783	-0.7246446542391308
O	-1.8151696279282608	2.6888722334347825	1.208616494760869
O	-3.6292555459282605	0.8078895274347826	1.140997634760869
O	-1.8689162059282607	2.8538913394347825	2.553348224760869
O	-2.199311285928261	4.259303227434783	2.493934184760869
O	-5.524253955928261	2.0372936476347827	1.3641459247608692
O	-1.8379317709282605	5.235119707434782	1.6816996447608692
O	-2.9342764299282607	2.2403639144347824	4.8073500047608695
O	-5.59830485592826	2.261928276434783	-0.09400803723913081
O	-4.338119775928261	1.3968074934347827	1.9223676347608691
O	-6.37122505592826	5.942120287434783	1.7068130747608692
O	-4.228548655928261	2.2062808831347827	5.247560254760869
O	-4.521733895928261	1.3952008934347826	6.404316524760869
O	-5.008803885928261	2.2081452758347826	4.085268564760869
O	-3.9937525759282604	1.9092100984347826	3.163867044760869
O	-5.535662595928261	4.416818717434783	-0.1546751632391308
O	-1.8584991909282607	5.679183707434783	-2.044393855239131
O	-4.491262605928261	3.9564196274347827	0.9504440407608692
O	-4.821841855928261	5.338286807434782	1.515871024760869
O	-4.1601729259282605	4.004654737434782	-0.5589330202391308
O	-6.162360745928261	2.9975534714347827	3.654414314760869
O	-6.420525755928261	2.6058614274347827	2.289205884760869
O	-5.302309745928261	6.321498577434783	2.463389504760869
O	-4.408817685928261	2.601049786434783	-0.8390479082391308
O	-4.500605895928261	6.551201767434783	0.6355541887608692
O	-4.353658985928261	7.7115502874347825	-1.446303705239131
O	-6.264542805928261	6.798670157434783	-1.1562965352391308
O	-4.817746205928261	7.516911547434782	-2.885560635239131
O	-6.10276240592826	6.770333237434782	-2.677011175239131
O	-6.45579667592826	3.3152508474347826	-0.41651243423913076
O	-3.4347805859282605	0.8161697374347825	7.065298154760869
O	-5.476617565928261	0.47527899743478264	6.465368194760869
O	-4.912475755928261	2.3503777634347824	7.358770464760869
O	3.4500370540717396	-4.198958122565218	12.31951413476087
O	-2.156576993928261	-7.005464942565217	-6.243267675239131
O	-4.805225565928261	-5.849748182565218	-8.71709245523913
O	-6.49581072592826	-3.9524457725652176	-5.909656445239131
O	-7.059308255928261	-7.253430422565216	-4.011311645239131
O	-9.52093732592826	-8.216242242565217	-6.7332636552391305
O	-11.923755555928262	-5.549445412565218	-5.537316285239131
O	-12.009954265928261	-6.735875572565217	-1.8768362252391309
O	-7.9408570459282615	3.0321520874347825	-8.10519584523913
O	-6.982453075928261	6.736906187434782	-8.54587760523913
O	-3.2525649639282608	6.115795907434783	-8.862142075239131
O	-2.752754143928261	2.5786384124347825	-7.510672205239131
O	-1.0898541359282607	-2.6913689325652173	-8.98502068523913
O	-2.5951741782282607	-8.212248542565217	8.10229596476087
O	-3.094561705928261	-5.7757583725652175	10.89555583476087
O	-2.4209296169282606	0.8380934474347825	12.54111323476087
O	4.540288624071739	11.481713487434783	-0.27979814023913085
O	2.1856711240717392	13.916760657434782	-2.0951660052391308
O	0.8140225640717391	10.931809217434783	-4.023761475239131
O	2.6747887340717393	10.071002557434783	-7.163018305239131
O	5.07228666407174	7.188039387434783	-6.621099745239131
O	6.458318714071739	1.2150417194347827	-7.433094375239131
O	9.119487784071739	1.1960512264347827	-4.735625245239131
O	5.567976714071738	-1.8678016025652173	8.33572377476087
O	3.102765094071739	-3.840233512565218	6.420973164760869
O	-0.5949549959282607	-2.6405559025652177	6.8263529447608695
O	-3.9332326459282605	-3.5502747925652174	5.7063185847608695
O	-4.537744675928261	-7.172973092565217	4.955643474760869
O	-0.9374390359282607	-7.586884262565217	3.9787212847608693
O	-1.8627702459282607	-6.253403252565217	0.5755973297608692
O	2.413144254071739	-5.160482412565218	-0.9795912952391307
O	0.32716207407173936	-2.251319072565217	-2.429172035239131
O	-0.2455935959282609	0.4399248574347825	-0.1380615042391308
O	1.352173794071739	2.909084021434783	2.6951026747608693
O	-0.07114725592826066	6.294829697434782	4.4504952347608695
O	-1.0166009359282606	4.747228657434782	7.639485684760869
O	0.9213266040717394	1.9042883004347826	8.80648999476087
O	4.28382495407174	2.5012991464347825	10.24341383476087
O	4.06288092407174	6.309688687434782	10.35672113476087
O	6.255252844071739	7.302242607434783	5.556197794760869
O	7.109709604071739	4.007674547434783	3.890509354760869
O	5.451703934071739	0.9578661274347826	2.453377314760869
O	4.66892210407174	1.2100700934347826	-1.238578255239131
O	5.03142793407174	-1.9033451925652174	-3.244787475239131
O	4.5001050640717395	-2.853771272565217	-6.862534135239131
O	7.936923784071739	-3.3641701525652175	-8.46766195523913
