36

O	6.8028482240963735	-3.9505489666847775	-13.182609403491718
O	5.882163534911401	-4.971415106753103	-14.271918417214323
O	1.0741866477139377	-9.722183623847044	-16.366319688052343
O	2.521129008639278	-9.994309669772393	-18.49497282432025
O	2.5495515323293994	-10.243254219599766	-17.058669857013403
O	4.929824115440959	-4.551950898733226	-15.130434141507017
O	0.23518887900108343	-10.3712616404527	-13.004985869913098
O	2.717270202905709	-11.682281444104053	-16.800568723906537
O	0.697930328476712	-14.201626652085832	-13.608250954269781
O	4.093908025144095	-5.516320148305745	-15.640714898930112
O	-0.549398719459048	-11.45747998389831	-9.83170156628428
O	1.9058926067713058	-8.696817781541387	-13.441753396431123
O	4.091727001817169	-6.897283355782828	-15.375725592847346
O	0.19046699925689303	-13.92219881495107	-11.997461487285037
O	1.261833630989404	-11.656865344556877	-11.071302635559526
O	3.4610258931378812	-7.882922539424923	-16.14140345301387
O	1.4107048960139306	-15.525062679645433	-13.801201843136292
O	3.516507894808448	-9.279938687617818	-16.013791020477058
O	1.7863437239276574	-13.273132066336272	-14.099501596312669
O	4.48242640809086	-9.652830876378545	-15.12691599788474
O	5.192241763338836	-8.670228039683437	-14.440921943531997
O	5.210336198499572	-7.317591454670315	-14.7666137454662
O	6.0940204178771875	-6.325321321650855	-14.352926480980473
O	-1.341271148443325	-12.297146484266245	-10.74497600017743
O	1.1054257319776006	-10.354192212478331	-15.093839336205619
O	-0.2239976325158386	-11.034380870354422	-15.172615043627564
O	-0.8647560088000334	-10.756085979051868	-13.896511212199997
O	1.2086260293821143	-9.671440024379038	-13.831412630080365
O	-0.026524515524751102	-9.929461320775633	-11.647839292534877
O	-1.4528343772900003	-9.507850071343428	-11.45954003663902
O	0.5135955981223477	-10.76050604690446	-10.567075265168734
O	-1.1472170214625104	-10.577958870203634	-8.84493965609331
O	-0.9312541625557378	-11.207841682421943	-7.498701151484183
O	-2.660334326550722	-10.528684330832741	-9.052122751162056
O	-0.5291543960906901	-12.756812380130981	-11.843106242405998
O	-0.5474346703128257	-14.2296942688052	-14.854407999524916
