39

O	7.071208209795112	-2.919361482782377	-13.397679842433813
O	3.5311805688410702	-6.364434262559342	-16.428977163003136
O	3.0176897942698235	-7.517115565124192	-15.975163384757085
O	4.965939154244486	-6.16558683905014	-14.710435448906747
O	4.823799830408196	-7.514876780469017	-14.58402927283455
O	4.065140504336371	-8.270932562301127	-15.423707739818987
O	4.062870074191873	-5.577549304339044	-15.457401301642241
O	4.228893353072076	-4.206821811854411	-15.728164774821352
O	5.875233763989593	-5.332332062352744	-14.12457510327185
O	5.25106614037132	-3.4555303637497663	-15.216165951751456
O	5.891181443338661	-3.987126763462026	-14.101395414984449
O	1.9997705874038956	-8.43044904995477	-17.084866344261627
O	0.7904891849499815	-7.561739542326366	-17.321148925922326
O	-0.3893858345345551	-9.820321033479027	-14.645019473154258
O	-1.021053605215826	-10.993810698230627	-13.960555901118445
O	-0.3066336536683094	-12.043702713088429	-13.354538160791229
O	0.055537526874680054	-13.243192824567341	-14.063457081307725
O	1.4240706569239663	-13.051523699069172	-14.744535499070523
O	-2.044564679353532	-11.441109956589408	-14.581112870644954
O	0.42814367445063883	-9.760218742112244	-15.934265662873864
O	1.7382286569112302	-9.809703121808987	-16.102349216944493
O	1.7253061668422984	-10.00371183888661	-13.57290749394498
O	2.1676982014026045	-10.059288101429736	-12.366907789340791
O	2.3731576305353332	-9.826068278697653	-14.853712757719745
O	0.440254702658776	-9.490133567642705	-13.511907900177329
O	2.7372118284767266	-8.421540596632742	-18.31370098833189
O	-0.084700107169561	-8.762527647785557	-12.487926079633265
O	-3.9364593668145007	-9.662319207786007	-8.3507753660509
O	-0.4151638930336663	-10.223018410050791	-8.697469383598813
O	-1.641083985910404	-9.772765553086778	-8.18020557425248
O	-2.7852798220898647	-10.299261240694769	-8.679764832502832
O	-0.5003445186608664	-11.222754509035557	-9.810886423642042
O	-1.716059732102952	-8.757410217303295	-7.311978548922527
O	0.5369765983540327	-9.214162714409902	-8.977286679254622
O	-0.48027093600552995	-9.26852650905728	-11.060356821389792
O	-1.179497737740757	-10.351707490706843	-10.85593000281515
O	-3.9465811292427135	-8.453459393083149	-7.7873923531983245
O	-2.9021780025149893	-8.193117726405925	-6.998903513092975
O	0.7831227525030826	-9.103922050477768	-10.308572833746133
