32

O	3.8178144847150803	-9.615097749749648	-15.276454166444584
O	2.839384800618851	-10.661735777621116	-15.34981720212561
O	2.709684629533483	-4.209989939216744	-15.319563574011443
O	1.6238019460780806	-3.5828726973054597	-15.526142793662395
O	3.021767740518606	-5.648958090270526	-15.413705043826962
O	3.5069451587971443	-3.110143128377439	-15.672893668450454
O	4.221418100860351	-6.017384798914696	-15.008578863366084
O	0.9445009646187272	-11.920313622185514	-12.558334434063708
O	0.6149159083248881	-10.604266246787382	-14.253450405178533
O	4.444928518112047	-7.324791249216211	-14.567365038764605
O	-2.1980094021255647	-9.927250358117924	-9.49719224691541
O	3.599040596404116	-8.348481239414243	-14.815985889134698
O	2.301092639931361	-7.9564237889712865	-14.63468874588805
O	2.1338120723467604	-6.717886245992881	-15.318037431875092
O	-0.016025642980667776	-11.048443136920024	-13.130163849265223
O	1.9683274349758197	-10.771931981197339	-14.130769565035608
O	-0.9943829898955903	-9.53980177822299	-10.164735279269308
O	2.19127652835367	-11.603904130764302	-13.054240154240595
O	0.535862063921452	-12.574594218685245	-11.384447165914906
O	-0.32844342819939687	-11.972724990320913	-10.469435632794253
O	-0.77855634056277	-10.744644127035283	-10.943474928827033
O	-1.0878091982857914	-10.803929793183135	-12.301632946848972
O	2.895961527030188	-12.88544852013252	-13.427195881378825
O	-3.3341635433060164	-10.222727929430173	-10.088315068870266
O	-4.214748858780404	-10.346177088031569	-9.054847000329255
O	-3.4885784662031663	-10.509863400103935	-7.954916847147457
O	-2.1807944116886047	-10.78172003518261	-8.425285353667679
O	-3.6864757113507745	-10.077492939506577	-6.648667874721659
O	-2.772985153519139	-10.470035405529934	-5.7376154988293315
O	-1.7565571352291158	-11.28293434846298	-6.158976946414493
O	-1.3370141145932513	-11.190159016981191	-7.457767435555331
O	-3.7853090672336718	-10.63298857207835	-11.415180414776186
