31

O	6.900288076974022	-3.3458713334605905	-13.438472405959242
O	5.750730355673932	-4.334035432568072	-14.285697380379125
O	0.41252265819286915	-10.479112449004877	-15.595966952562158
O	1.802547760965227	-12.337511093718781	-16.532078720497843
O	1.5259807559217675	-10.934569351335039	-16.862175707040965
O	4.992039364552287	-4.371278631124263	-15.41855374384581
O	0.058756115259955166	-10.212437615260562	-12.69133481080283
O	1.1148063404260675	-10.747849815739496	-18.229252751347087
O	4.155864837502703	-5.482257056078668	-15.445852461670333
O	-0.1448504530629391	-11.389192815445483	-9.289688491024556
O	2.2441453384881305	-9.392749028729275	-12.64752137713046
O	2.7182569778741965	-8.478189483812836	-15.672551424885924
O	4.751074502000073	-6.661573953976864	-15.151132723236937
O	-0.6123976881091435	-12.31126212636449	-11.30514176937746
O	-0.2721080344496727	-11.024365974907768	-6.866059227089084
O	2.9386423004157636	-10.070748272610459	-16.332122953142935
O	6.104757068762578	-6.012775702292809	-14.284660614991743
O	3.9496377097037687	-10.423140582597952	-15.550541232995132
O	4.8030571156174044	-9.312745444578225	-15.268192737118033
O	4.295970046904674	-8.052304392445254	-15.283515199739654
O	1.3542076988476714	-10.64561071417182	-14.473380077895225
O	0.8832845952309158	-11.930185808709709	-13.862955813766858
O	-0.4855326514352978	-11.37765815085799	-13.408144942682123
O	1.2285506692913915	-9.68720131636734	-13.383595218836536
O	-0.2056063421119676	-10.028262288712291	-11.289683796064914
O	-1.7139109653103617	-9.810460303052125	-11.165502758052927
O	0.02093003014857331	-11.394463278317659	-10.689498187363347
O	0.5527064682260168	-12.435196280578637	-8.60340750077702
O	0.665249167638466	-11.991846194481075	-7.171445384252542
O	-1.4883455241862862	-11.449295254774526	-7.351172734647307
O	-1.4810433158819265	-11.132073903527749	-8.818327005298706
