82

O	-2.67275186857551	-1.680230311257143	2.461745076387755
O	-5.98980835257551	4.365596188742857	-5.350792143612245
O	-6.55512758257551	3.287919088742857	-4.542073243612245
O	-5.85377824257551	2.189564904142857	-3.901779163612245
O	-4.53788716257551	2.208916728742857	-4.404102483612245
O	-4.23262164257551	2.9778116757428568	-5.522652103612245
O	-4.59139194257551	4.376117238742857	-5.563377093612245
O	-6.33784977257551	0.8503753887428569	-3.029175293612245
O	-4.81625565257551	0.03763352874285708	-2.791468983612245
O	-3.63595105257551	1.788363772742857	-3.317605373612245
O	-3.60249239257551	2.361660835742857	-2.003748598612245
O	-2.71780829457551	3.5443001787428567	-1.818995530612245
O	-4.74395782257551	2.568066327742857	-1.512670074612245
O	-1.5656420365755102	3.532439198742857	-2.557493623612245
O	-0.62226238257551	4.416908558742857	-2.044620151612245
O	-1.10418259557551	5.735068188742857	-1.967937762612245
O	-2.3152407275755102	5.700679758742857	-1.3491456086122449
O	-3.26615238257551	4.8404267987428575	-1.8129796186122449
O	-0.23995002257551	6.909116638742857	-2.287953203612245
O	-0.7034659725755101	7.892383008742857	-3.099420823612245
O	0.14779439742448974	8.969618108742857	-3.270883523612245
O	1.0840298274244897	7.092051248742857	-1.9871234986122448
O	-1.93286058957551	8.009935318742857	-3.292560473612245
O	1.53747608742449	8.890964738742856	-2.9257601236122452
O	1.89802993742449	7.541709048742857	-2.9912283636122448
O	-4.4645364125755105	-0.642397531257143	-1.612200922612245
O	-3.8475697625755103	-1.8131299712571431	-1.234345316612245
O	-3.54805929257551	-2.2666500712571427	0.1020476463877551
O	-3.63615517257551	-1.3811570612571433	1.088889396387755
O	-4.78549219257551	-0.723541331257143	0.835283886387755
O	-4.86124230257551	-0.09820244125714295	-0.3957911786122449
O	-7.03781308257551	-0.3027801112571433	-3.638232293612245
O	-7.13198645257551	0.9525628987428569	-1.789432525612245
O	-8.97598708257551	-9.098400361257143	4.582431956387755
O	6.41732313742449	-4.186958531257143	-6.471530143612245
O	7.38601183742449	-1.779825941257143	-9.221143623612246
O	3.76742686742449	-0.5751497112571431	-9.379180073612243
O	2.68666853742449	-4.098482381257143	-10.428975563612244
O	4.50404840742449	-3.584171931257143	-13.727688123612246
O	-1.17800589657551	-3.2733918312571433	-14.162922823612245
O	3.2843020674244903	6.806950428742857	-9.101195913612244
O	2.9403996374244903	10.068474218742857	-7.377623263612245
O	5.07060910742449	8.918081638742857	-4.374801593612245
O	5.00784440742449	5.089182828742857	-4.529171203612245
O	8.27476274742449	0.40649182874285694	-4.901932793612245
O	10.43425914742449	-2.598538371257143	-5.794049923612245
O	-6.12074471257551	-10.391258361257144	-3.203301503612245
O	-9.50088956257551	-8.926080261257143	-2.302851273612245
O	-12.55373675257551	-3.4444147812571435	0.489806216387755
O	3.3738963074244905	8.755953558742856	9.498101476387756
O	-2.08251956657551	7.8970379987428565	9.568728176387754
O	-1.85637592397551	9.463722608742856	6.043748086387755
O	-1.72204668657551	12.667202338742857	3.9653152063877553
O	0.5076094374244897	10.841177438742857	1.6591747663877552
O	4.15164666742449	10.895381868742858	2.565616256387755
O	5.24138699742449	7.647389688742857	4.030919026387755
O	8.33031544742449	2.1849429973428567	3.6538573363877553
O	6.83771206742449	0.7105551987428569	6.827713956387755
O	3.34223440742449	0.29452141874285687	8.230585416387754
O	-5.26477509257551	-6.062994121257143	6.230427166387755
O	-3.93446723257551	-6.667461361257143	2.786844066387755
O	-5.85966543257551	-5.020241571257143	-0.2669990166122449
O	-5.91672108257551	-4.944674641257143	-3.964607623612245
O	-4.26162897257551	-7.983757961257144	-5.591458013612245
O	-2.0071678279755103	-8.660958961257142	-2.642709313612245
O	0.22019737742448986	-5.929047171257142	-4.074949303612245
O	3.0025788374244904	-5.436181791257143	-0.16539538261224496
O	2.8074485874244903	-1.772143961257143	-1.6045256146122449
O	0.014426147424489999	0.37899500874285685	-0.6932148636122449
O	-2.84265698057551	1.7804813927428569	1.8090079263877552
O	-5.82926697257551	3.9061585987428566	1.6332358963877551
O	-8.70095187257551	1.5773118577428569	1.145100656387755
O	-8.40935319257551	-1.828976121257143	3.037111566387755
O	-8.69875584257551	-2.424609561257143	6.733325796387755
O	-9.97310966257551	1.1294381087428569	7.389231316387755
O	-5.21801518257551	3.320771298742857	8.329146956387756
O	-2.5199833995755103	0.6791960287428569	7.936554526387755
O	-0.8598209425755101	-1.4235601012571433	5.285525746387755
O	2.1555825874244903	0.18286216874285688	3.626515666387755
O	5.10515800742449	-2.153496661257143	2.7057193963877553
O	8.323999847424489	-1.412515931257143	0.8075584163877552
O	11.09879724742449	-1.9249881412571428	3.4089239763877552
