37

O	6.964020554870902	-3.287861706382539	-13.82178792627617
O	2.2972866191358006	-9.52268806892523	-16.69058674423701
O	1.1868187092904403	-10.39495365714247	-16.377971891035674
O	2.1214541159781817	-11.530324748730546	-16.099167153328963
O	3.1916695021044883	-11.2296383147706	-17.095138429932916
O	3.659708388650014	-10.21396907773489	-16.327447124272503
O	2.6572202096449464	-8.464566914741809	-15.688713979482813
O	0.789978154345766	-9.968794119145645	-14.99014658265043
O	1.983190690136007	-9.87555589676699	-14.131007709658832
O	-0.12670402734592123	-10.708838628701708	-14.50712944567421
O	1.601265757349656	-7.916691576307914	-15.498790762200269
O	3.6689275954288956	-7.612449287788773	-16.255500956503354
O	4.295577713191418	-6.610017843609174	-15.579213107559081
O	5.899069612690886	-4.47597964397502	-14.505240277789387
O	4.9774383612309405	-4.241244897524522	-15.474788517116203
O	6.32470370729556	-5.7555263279360265	-14.596063976151228
O	4.263304358089524	-5.276115874668184	-15.977418508602725
O	1.6757792343878601	-9.718416781352719	-12.77485538623263
O	0.7346645645561622	-8.725546352934039	-12.481119075402095
O	0.18441630999924463	-9.809711099005387	-10.518924945047113
O	0.505772041936698	-11.007547809797838	-11.178947423838467
O	-0.1648286753752517	-8.82785882464572	-11.404898469326792
O	1.1436557067507547	-10.924587421104418	-12.380299667146293
O	-0.7934099119358766	-9.971675261513273	-9.458808957856787
O	-0.5355657670727272	-9.771926217600296	-8.124872027580778
O	-1.753590650516136	-11.650878270031791	-7.629558741834068
O	-2.495722573357284	-11.363626712874867	-8.777064387788387
O	-0.5469529661888091	-11.030890140612936	-7.485365614991897
O	-1.889508178480308	-10.700035279410104	-9.805637401905496
O	-2.090902249506078	-11.022034001038808	-11.020511763839457
O	2.5295353436898536	-11.131562895036929	-18.313330139333953
O	2.522471963224168	-9.902251158641032	-19.06934829456351
O	5.583808874800206	-6.733990698140066	-15.18675290813782
O	1.399317023479656	-9.176991518897092	-19.227048933420996
O	1.385063789031718	-12.145524130964656	-12.968911501001028
O	3.0025979095977644	-10.198904133173844	-20.34755647210515
O	3.4074003639945207	-8.843692918664235	-18.988847191972255
