79

O	3.0612919913409096	-1.1971394451295456	-2.977150991659091
O	-0.46979644865909087	5.449021804870455	2.0745279983409093
O	2.5683042513409093	0.6585546648704546	-0.5946477116590909
O	-1.676642370459091	4.644365094870455	2.2392786883409093
O	-0.4230028386590907	6.065552544870455	3.333385748340909
O	0.658016891340909	4.4527591648704545	1.8166926283409093
O	-1.355525953659091	4.003215494870455	3.5254422883409093
O	-3.034477338659091	5.154276694870454	2.2475854483409092
O	-0.5861896586590909	5.028609634870454	4.247309268340909
O	-1.7466687756590908	6.740601664870455	3.4354871683409094
O	0.7173070313409093	3.2198796948704542	2.406764778340909
O	1.488661981340909	2.5888566978704546	1.5592113893409092
O	-2.6829088886590906	3.571826444870455	3.940891748340909
O	-3.558941018659091	4.558306534870455	3.447842158340909
O	-3.9563929086590908	5.384289554870454	1.388438866340909
O	-1.6008784354590908	5.416071714870455	5.22527242834091
O	-2.289788997659091	6.705006064870455	4.90654994834091
O	0.5473575713409091	3.9663145048704544	0.5159424143409093
O	1.6164643713409093	3.1273892848704543	0.3910070653409092
O	-3.157211238659091	2.3891277578704546	4.074465298340909
O	-4.772626008659091	4.851009474870454	4.179349568340909
O	2.035136661340909	2.3011188533704545	-0.7132064916590908
O	-5.4566151486590915	3.538012954870455	4.015763458340909
O	2.442977971340909	2.4905022308704545	-1.9646459116590906
O	-5.349143768659091	3.0973142778704545	2.529220268340909
O	3.260932151340909	1.6057130668704547	-2.554750461659091
O	2.7536616113409096	0.3490663648704546	-2.2469450416590906
O	-6.574638068659091	2.5446978758704546	2.2777833183409095
O	-7.216413408659091	1.6154705448704545	1.4581916313409091
O	-6.857250378659091	1.7183601148704546	3.5391492883409095
O	-8.63069573865909	1.5517049428704546	2.025211438340909
O	-8.35325548865909	1.6680112798704545	3.4961298083409096
O	-7.626502668659091	3.5802383248704546	2.451983518340909
O	-7.292939298659091	4.799044054870455	3.2467311783409096
O	-7.3323319986590905	5.9883195048704545	2.5502285483409093
O	11.160784391340908	6.653064054870455	-4.09596706165909
O	1.5296807113409092	-7.595185295129545	5.41569470834091
O	-1.4663515536590908	-8.074209555129546	7.721715708340909
O	-1.8526262936590907	-4.244476685129545	7.9394224783409095
O	1.6572533813409094	-4.100822425129545	9.535450648340909
O	0.21777691134090915	-5.861520135129545	12.585340478340909
O	-1.8955697576590909	-2.8057227451295454	13.40326337834091
O	1.1527863213409093	-0.44520245512954526	13.47509367834091
O	-8.910863148659091	-2.379165375129545	6.792834028340909
O	-11.91419090865909	-1.6724763851295457	4.528642758340909
O	-10.578420268659091	-3.467610105129545	1.4933586083409092
O	-6.889132488659091	-4.056677865129545	2.272215708340909
O	-3.085336928659091	-8.294752755129545	3.1204076083409094
O	10.563802791340908	3.5010397948704544	3.809562418340909
O	10.01110069134091	7.108196384870455	2.8176278083409088
O	5.663234631340909	11.263511694870456	-0.5142287116590909
O	-8.091629018659091	3.4993188648704545	-8.753752581659091
O	-11.651019108659092	3.9465553648704548	-7.45086978165909
O	-10.71301395865909	1.4327673348704546	-4.7514180416590905
O	-11.301646318659092	-2.1696689451295454	-5.647449821659091
O	-8.08393934865909	-3.846378845129545	-6.69794183165909
O	-3.434070198659091	-7.816834755129545	-5.50408621165909
O	7.533991581340909	3.7835121448704543	-6.232419611659091
O	7.4469794413409085	2.1922319405704545	-2.8441935316590907
O	6.055116411340909	4.358402854870455	0.0002680503409091539
O	5.241297261340909	4.302414184870455	3.5926100383409088
O	7.500278021340908	2.1167632718704548	5.721041718340909
O	8.18995407134091	-0.17356542512954531	2.7809644283409094
O	4.874302311340909	-1.8183231751295454	3.6732320883409093
O	4.201021931340909	-4.165673245129545	-0.3127853916590908
O	0.5545967213409093	-3.2236944051295455	0.5744035203409092
O	-1.0040573626590907	0.23951794487045452	-0.2604131526590908
O	-1.1421814606590908	3.0326539778704547	-2.8574372916590907
O	-2.727935218659091	6.353375304870454	-3.266752901659091
O	0.2064996513409092	8.451991564870454	-2.090421821659091
O	3.6030371413409092	7.581290664870455	-3.3973037316590906
O	4.726511111340909	7.894003854870455	-6.963029351659091
O	1.636791921340909	9.901962074870454	-8.04535537165909
O	-1.1977376226590908	5.672108604870455	-9.74009252165909
O	1.8637514413409093	0.5106491948704546	-6.156628951659091
O	-0.3926720386590907	-2.197923825129546	-4.888080621659091
O	1.101636261340909	-5.428431165129545	-3.6854785516590907
O	-0.33801666865909086	-8.608846755129544	-2.225585801659091
O	-0.02177543865909093	-11.348168755129546	-4.871457211659091
