42

O	-0.26719149143751153	-13.433518646463057	-12.031381074289044
O	-1.5923420781568725	-13.782057397541436	-12.266939002942792
O	4.049206381137525	-11.092133280284802	-15.7066683265739
O	0.06399655024255146	-12.083741750139378	-11.643656291454013
O	0.7041828144683562	-9.770357372109988	-10.279520955886396
O	-1.4716196670244894	-9.243523289387806	-10.374984201691587
O	3.1683680651637025	-11.569090869128374	-14.675662650661252
O	4.235200264259895	-9.724684939837996	-15.676852548604595
O	0.9163304386209346	-8.902241162797601	-11.348113491208505
O	-1.309593709901196	-8.473028176157026	-11.55935113185809
O	-2.4586142570262766	-12.707099963498255	-12.013071068012895
O	2.828252907657258	-9.681908164550748	-14.02235817461549
O	-0.5426439240252616	-10.245451112335921	-10.74447045962236
O	-0.8261904006530747	-11.75130426700986	-10.555004733198333
O	2.1626678265830597	-10.907584278870946	-14.142959434117193
O	0.4979562214250901	-9.124072350785813	-16.38644164077386
O	3.504453056849654	-8.796592652326815	-15.05452606470091
O	-0.19480271056669896	-9.049148871136921	-12.245457174781667
O	-2.1736754660395246	-12.090881521535138	-10.760380673010662
O	1.248532782409617	-8.284317494303172	-15.505245195256663
O	1.1740897259568754	-8.688005509908201	-17.52651023033905
O	1.0240531475268533	-11.60277296682819	-14.714950910748946
O	1.014532983014432	-8.35295487933704	-14.105505528475678
O	-0.5819059810217766	-12.29303904226909	-16.229150019156027
O	-0.8488421525097776	-9.2190456960975	-15.849230806651537
O	-1.1683231745164209	-9.199253211851644	-14.413462504837057
O	-2.7923336455704986	-12.220824679315708	-7.8632343103564395
O	1.252300022917746	-9.318329258655114	-18.778055009224655
O	2.382865436048653	-8.0884746384164	-17.189670345068176
O	-0.16216440716050062	-11.612849801610277	-14.274458101981736
O	2.550921893753887	-8.041363171889678	-15.91171160346618
O	0.6893507106891699	-12.106701784530546	-15.931472786310788
O	-1.1352856090632804	-12.09990039497728	-14.984299303620881
O	-0.14305038989671637	-8.931491741477602	-13.578934611840882
O	1.635559088991533	-7.705807890408645	-13.207509882812067
O	-0.8818389009305374	-11.807407845503786	-17.41450783225569
O	-3.6741625305757735	-10.215493488691003	-9.233882712837682
O	-4.499295702380764	-12.26126374596278	-9.722070130907028
O	-3.1813176896867246	-11.575028613486484	-9.490945709880682
O	1.8115566039832052	-8.425782750515346	-19.72433022367818
O	0.008180837017986775	-9.538536793840196	-19.229484994282593
O	2.1054129751603443	-10.308989926335695	-19.058188127860156
