35

O	6.957043805899783	-3.517288461872254	-13.295810126979653
O	6.04068592915252	-4.5095319051812535	-14.391952161682882
O	2.6360738393747485	-10.38379336124776	-14.298188399622978
O	1.3782270855775218	-10.564278252732427	-16.309162961464597
O	1.887794007909934	-9.50873678728262	-15.402186550491608
O	5.2569939604110605	-4.4042385156748605	-15.500618377352577
O	0.12728866924492266	-9.735115707836913	-12.898505421605226
O	0.7838479969546368	-8.61213188067854	-15.109752967802327
O	5.871153852770683	-6.184914850969792	-14.07338262617876
O	4.610316296870794	-5.5437410853447835	-15.871383665254466
O	1.817410713751876	-8.3019087563173	-12.080909901185393
O	4.578702677992949	-6.617167671380736	-15.134717633561998
O	4.208044822672327	-8.045060657202772	-15.126652054388796
O	3.2801259085651395	-8.600020997010564	-15.806043161125046
O	2.099387626091742	-10.447095145884955	-13.113786312008367
O	1.08638777331891	-11.627686709811059	-13.186606482301638
O	0.01573711117087484	-10.827159728756893	-13.922391712011889
O	-0.9799498181216624	-9.372417149031842	-12.020978807763646
O	-0.9850821149076276	-8.461634483820507	-10.969277855769635
O	-1.623631240476299	-10.519682956018361	-11.747403617314193
O	-1.3634451311238438	-8.804056319236539	-9.639088799795136
O	-2.1880348805769394	-10.658399868707443	-10.521394775108352
O	-1.5308842193011278	-10.120904247223425	-9.408927866439095
O	-0.7980557334466933	-10.955958869321968	-8.40842392502262
O	-1.4033698522169766	-11.722768489421096	-7.475085609464314
O	0.4511232026005887	-11.514586057549748	-8.737152935711526
O	-1.0585219123166771	-13.03055401305042	-7.208054208970639
O	-3.168322683564223	-11.740438095707663	-7.505978120418057
O	0.5357680595305494	-12.887097424718466	-9.076436794077315
O	0.029761915078310608	-13.575758114621635	-7.9420172982549655
O	-3.3360510197474893	-11.644314460803018	-5.777402010212815
O	-3.721300346727106	-12.924756981918613	-8.203620777414471
O	-3.5663579561635332	-10.572798952844506	-8.197348024471045
O	1.388786763625503	-9.20798134641689	-12.817668545363356
O	-1.8181289450301996	-11.587663078209058	-12.590420994736197
