32

O	6.840952793647503	-3.506961316188407	-13.44256988649461
O	1.525471336277365	-9.741399936112176	-17.49377673225969
O	1.6289328330397628	-10.660812046062802	-16.366505333761413
O	1.3884530709318406	-11.915324055901959	-16.891797080840117
O	-0.15229389763949897	-12.20062709480516	-16.638071652924772
O	-0.7892677908734447	-11.059032060493566	-17.354331488788628
O	0.20985854587534458	-10.064383596202983	-17.997798700310838
O	1.8330082701019506	-8.753683124053904	-16.509402217075007
O	1.137443617885789	-10.46907257168975	-15.043748007318197
O	2.7332806209034075	-9.141960503086507	-15.493420777692393
O	2.8493413059239376	-7.829749219298938	-14.904459914471085
O	2.8060203266614625	-6.649431061290799	-15.551339477074805
O	3.9783796231224247	-6.117019943755585	-16.18465571083616
O	4.917755480269326	-6.651847214442115	-15.249891326394106
O	4.331023644164911	-7.818383711067507	-15.112286101585553
O	5.933193646252151	-5.802013043214329	-14.651925485178598
O	5.754067398977318	-4.5748832140972695	-14.280360215959194
O	5.054386128725497	-3.961448297359053	-15.386508366065296
O	4.135099013890239	-4.638247030826143	-16.10037145486098
O	3.4961213833825817	-10.111847023179347	-15.797395847184234
O	0.2088898676368416	-9.76638381689404	-14.30320572298847
O	-0.17605117298899042	-9.677029892249351	-12.925794682077603
O	0.29261335792083365	-10.510348006323206	-12.032701675928738
O	-0.3307462057854078	-10.597997685077916	-10.860470969940305
O	-0.5274217175741889	-9.356038157985903	-10.233101044224536
O	-0.7491064456696614	-8.543534674098785	-11.749566040844503
O	-0.7272552322437233	-9.593665166656455	-8.713449736988803
O	-2.0809884702850265	-10.090472368717982	-8.45450023976538
O	-2.3834670003407377	-10.847793379066406	-9.68987047508515
O	-1.0342337184729775	-11.552685045075972	-9.863696950187705
O	-2.1335650034365194	-11.174391890615048	-7.462403484485237
O	-0.371509284508317	-9.008653201962982	-15.077200989147567
