36

O	4.761390157044415	-3.543323595136459	-15.557833303916123
O	0.4731792000117627	-9.73636027883564	-15.203119503410887
O	2.1215173595775214	-9.86929483154967	-15.25588628686084
O	2.017366889755215	-10.653288126520152	-16.36533715639676
O	0.5425612039162768	-10.735334630415595	-16.654762723536212
O	0.7659875990852028	-9.290960582693511	-16.544246872848515
O	0.37423243242910864	-8.945128365429662	-14.07225216692173
O	2.167915264743566	-10.388402530521049	-13.941486519768144
O	2.2115714897858902	-9.914679336870424	-12.70682315043617
O	1.680821544688044	-11.52581568750136	-13.909867663342858
O	-0.6518436653443285	-8.42338682215965	-13.854660795985271
O	1.2023781339112674	-7.8987834069999465	-13.77290904293769
O	2.1199331382592903	-7.003633593912818	-14.130661919687679
O	2.0666711160689326	-6.325732173158465	-15.437908062647079
O	3.8965254622079204	-5.017076729038509	-15.468228652212595
O	4.415385271121064	-6.222029235232477	-15.389487497307144
O	2.9254707649127036	-5.546928715765442	-16.243617886510336
O	3.5054911040211447	-7.158184577547413	-14.603570535731173
O	1.4295787430118123	-9.694632941947006	-11.678687635707266
O	1.1499326025243404	-8.576418396269343	-10.859567181712686
O	-0.12272610566268405	-9.702238248778043	-9.397584227550722
O	-0.30621816046162653	-10.70443086072815	-10.3427775630252
O	0.07673147030182648	-8.48425194182633	-9.956893658336792
O	0.31825099543508184	-10.488024552874776	-11.592600869280812
O	-0.9188252081712891	-9.624435126661732	-8.20388086965107
O	-0.5467843684530784	-9.047683818768324	-7.022759270669034
O	-2.081564646978368	-10.091943828482815	-5.891367817913845
O	-2.6579446368808686	-10.516840227593024	-7.119124526899752
O	-0.6929011783621233	-9.986315973402938	-6.003045646972007
O	-2.1028367443061207	-10.222052843725828	-8.333587063906434
O	-2.4767616932143	-10.870445922288226	-9.338545539468234
O	-0.22251369511258723	-11.613865901545843	-15.666637382716312
O	-1.7515818044551548	-11.742753477696446	-15.57278881738635
O	-0.14623328966351057	-11.515687321399206	-12.38344488698035
O	-1.7297658653952697	-12.356559276977091	-16.90828741580838
O	-2.152622536637913	-10.544260968684608	-16.285154906688614
