30

O	7.200235098272198	-2.9437356961903167	-13.469734959435767
O	6.054765504401343	-3.879852054287274	-14.367445993662361
O	1.081979903550078	-8.991774680450131	-15.99699725754693
O	1.8781249503284525	-7.903982538712423	-18.220166571000995
O	2.4365222656943915	-8.611389184583906	-17.031387375197557
O	5.418771406317056	-3.713745524123447	-15.564394504260559
O	0.5450026818719298	-9.503153672075696	-13.107719721159928
O	2.9156067306527014	-9.920732910105293	-17.533871672905565
O	6.150282620093944	-5.599922966675128	-14.340270747553868
O	4.732875652415406	-4.795728374833383	-16.034585947009766
O	-1.816198560473401	-12.012250894985174	-9.02213775518355
O	2.3889990195957687	-8.26420276569645	-13.729032584024438
O	4.9765890499999355	-5.98859214995695	-15.48278641279202
O	-1.5907705703277566	-12.175943761971286	-11.415471018999227
O	4.69328647114922	-7.375196619481459	-15.857837616327686
O	3.490057576833147	-7.61256986554649	-16.18621984609645
O	-0.647596969824229	-12.456217973909839	-8.32060027242032
O	-2.939311476456819	-11.556643686153457	-8.20187699495578
O	1.5954363496742578	-10.005364050608964	-15.110820978443464
O	0.5374428050690252	-11.034187407470789	-14.95319123751839
O	-0.11697540522488303	-10.702006813706163	-13.676354100715844
O	0.40968977184270017	-9.062990279955043	-11.71183810952529
O	-0.651240013104144	-8.288474431805405	-11.186055947501155
O	1.1027764348068856	-9.629031909262254	-10.617755602273549
O	-1.4596990893303534	-9.012294129382601	-10.287439486831254
O	0.2531811069362542	-10.300592738201448	-9.726873731763305
O	-1.0191637068331652	-10.2902266893708	-10.346639675362084
O	-1.8338653991055995	-11.53734114690965	-10.378717945062192
O	1.7589886054408743	-9.365027903759058	-13.776717141307572
O	2.0656253896634946	-10.51746702243343	-11.125457144990893
