80

O	2.679715458145834	-2.743937255791667	1.410978137708333
O	-2.346304773854166	0.4744613842083334	5.3571715307083325
O	-4.534648491854166	5.357917224208333	1.178878090708333
O	0.716374048145834	-1.2459018657916665	4.702974290708333
O	-3.418722831854166	0.5521276232083334	6.268042340708333
O	1.496517528145834	-0.9266091457916665	3.240591910708333
O	-1.7373131058541662	1.7579865662083334	7.026862820708333
O	-0.031489841854166034	-0.28036592579166664	5.468766800708333
O	-1.2850619808541661	1.4628934099083335	5.769223120708332
O	-1.400423988854166	-0.6725871157916667	5.547322630708333
O	-4.376845291854166	6.791419954208333	0.857525784708333
O	-4.299346241854167	5.267780204208333	2.573509073708333
O	1.3486997081458338	-2.558858955791667	2.471994092708333
O	-3.091576581854166	5.519915754208333	3.352575240708333
O	0.20365640814583408	-2.535911025791667	4.718255220708333
O	-3.335259461854166	2.5312000732083333	5.521356300708333
O	-2.684155632854166	2.2056341442083336	4.285776970708333
O	-3.3583368518541663	3.1710524342083337	3.581150810708333
O	-2.927891314854166	4.442414534208333	4.338537960708333
O	1.0722974381458337	-3.282110135791667	3.671209160708333
O	-2.262532401854166	0.4064641142083334	7.318694990708333
O	-5.849872791854166	5.0412654142083335	0.8796538067083329
O	-2.8405709468541662	2.6410757542083334	6.891154190708333
O	-5.001366431854166	6.879713754208333	-0.5376862792916672
O	0.5122862081458339	0.4264652142083334	6.486720900708333
O	-5.293520211854166	7.260423804208333	1.837216805708333
O	-5.319838531854167	4.555503364208334	3.379545100708333
O	-4.675881351854166	2.8004579242083336	5.536972910708333
O	-4.825226381854167	3.141311744208333	3.376245500708333
O	-6.867742001854166	6.124591864208333	0.743297375708333
O	-6.482963761854166	7.170383034208333	-0.2946363792916671
O	-1.7743393908541663	4.169921964208333	5.094633200708333
O	4.3602278781458335	-11.520973255791667	6.895675240708333
O	8.206275498145835	5.201576394208334	-2.719879989291667
O	7.469167808145834	8.909915004208333	-2.676489589291667
O	5.541321588145834	8.420424574208333	0.577239140708333
O	8.714769398145833	7.231009804208333	2.3121847897083327
O	10.036814798145834	10.789460354208334	2.001509338708333
O	8.486331498145834	9.414688724208334	7.268829460708333
O	-0.3204807218541661	13.129365244208334	-3.1852268092916676
O	-1.1831205418541662	11.608917444208334	0.24243422070833298
O	-4.805893231854166	11.817696744208334	-0.5407499192916669
O	-4.527819001854166	9.222628734208334	-3.2922847692916672
O	-1.0755087418541662	7.568951064208333	-3.076192849291667
O	4.016766728145834	6.674080854208333	-5.385287369291667
O	9.250907498145835	-4.537311145791667	7.770767310708333
O	0.09717209814583372	-6.575889295791666	11.578021340708332
O	-10.545641371854167	-2.6695554257916667	-7.422174739291668
O	-11.150123501854168	-4.987189805791667	-2.429135249291667
O	-10.956855281854168	-1.2362456757916667	-1.191999549291667
O	-12.945693801854166	1.9651130532083334	-0.6129490892916671
O	-9.794876501854166	3.766449424208333	-1.545817029291667
O	-9.380025931854167	4.231482434208333	-5.289387679291667
O	-6.844788181854166	1.8518502452083334	-6.749102829291667
O	-1.0605122598541663	0.6041896422083334	-9.090350699291667
O	-1.466936596854166	-3.1575897357916665	-8.957579199291667
O	-2.5409234788541664	-5.624012325791667	-6.255099449291667
O	1.8331193081458337	-10.052967755791666	2.658637220708333
O	4.235353888145834	-7.171278345791667	2.883034270708333
O	3.707910778145834	-4.759023725791667	5.904037600708333
O	4.826799258145834	-1.4517738157916666	7.407797110708333
O	8.555586698145834	-0.8589184857916667	6.877161830708332
O	8.544231998145833	-2.8407247357916665	3.647066020708333
O	7.270385658145833	0.3398813942083334	2.000135554708333
O	5.763381528145834	-1.5593521957916667	-2.047845389291667
O	3.123330248145834	1.2503397502083335	-1.560821799291667
O	0.11033206814583396	0.6398660482083335	0.47928264070833304
O	-2.461109504854166	-1.9437777157916665	1.923359312708333
O	-5.321789531854166	-1.7920454957916665	4.433134520708333
O	-3.6281425518541663	-3.5163887957916664	7.430446040708333
O	-1.3438397758541663	-6.534000035791666	6.671895340708333
O	-2.443937935854166	-9.851073955791666	5.3457133507083325
O	-6.158081591854166	-9.093960155791667	6.049240790708333
O	-7.335367391854166	-7.124058605791666	1.2363589437083329
O	-4.1645035918541655	-7.185868865791666	-0.8968683592916669
O	-0.8216475818541662	-5.400615465791667	-1.0546611892916669
O	-0.8310312218541662	-2.3959171557916665	-3.3720784992916677
O	2.299350738145834	-1.6924228057916666	-5.389697199291668
O	3.3119814881458343	1.1566081242083335	-7.651463449291667
O	3.347131378145834	-0.26156027579166663	-11.200818699291668
