29

O	4.444970908255215	-9.793916364071725	-16.028888698017987
O	3.957942457227161	-10.31976425919925	-14.70243651048009
O	3.6558554050480643	-10.611133620946706	-16.848450010732368
O	4.652850720831008	-8.369309359374427	-15.890230091717047
O	3.686984109889891	-11.744727381414906	-14.9030270796808
O	2.583901248967752	-9.882230448687968	-14.228144006785449
O	3.881005903303845	-11.93857876706868	-16.35774787457808
O	2.2859160268381133	-10.860025134265433	-16.912470803404062
O	5.665311455088395	-7.563445174619154	-15.562726297873121
O	3.500606396335694	-7.67016217418598	-15.616690886384221
O	2.6066917667975416	-12.100005453439161	-14.050647882731763
O	1.8605244165098522	-10.982853482499134	-13.668659224250012
O	2.330423169289669	-8.875374012407157	-13.467489517235956
O	2.8885978394224012	-12.974900332124282	-16.572269599653225
O	1.6663532328667952	-12.178055619280599	-16.11261009687215
O	5.619222878687028	-6.29890856340622	-16.203723705965263
O	3.404280842278093	-6.322875357777191	-16.032608246002404
O	2.658435772877696	-12.938037798201986	-13.129078090853831
O	0.5744519296741446	-11.054578127672528	-13.05226788057629
O	4.535070124152279	-5.490109512338705	-16.094092557888242
O	0.4023275955589227	-12.213403826573224	-12.110487133240508
O	4.488258977093469	-4.057081379999943	-16.246068315061343
O	0.5571760595011561	-11.65120350885836	-10.737577851798044
O	5.277661254055269	-3.1768851046099136	-15.696508872017837
O	3.3384412977816824	-3.3214581209596714	-16.667422067229143
O	-0.25330026702234676	-12.211765883012813	-9.701345310020793
O	-1.6279757291540298	-11.899298090509713	-9.968422025096883
O	0.10861396718975058	-11.588920176425683	-8.453719360297185
O	0.03484614571354605	-13.611375178072063	-9.607715792904239
