36

O	7.377041561155276	-3.3002471891137737	-13.752069386464402
O	-0.633248759771746	-11.330279069025163	-12.050450928324686
O	2.2363175982059524	-9.32615390308698	-16.515914721376145
O	1.4893876852831154	-8.360831959758004	-17.437842450428423
O	-0.7720941287517098	-10.398587956530605	-14.147912810798843
O	-0.05031546368790707	-10.068192971475428	-15.410695910579856
O	1.251045497622902	-9.527104837927576	-15.205366740218341
O	1.146304792980399	-11.517560044213983	-13.869501178703178
O	1.6300364797967153	-10.067153991718092	-13.935548930005789
O	-0.1895515993747905	-11.509126434479459	-13.448345049011884
O	2.6634294731228776	-10.289787665054071	-17.550346286291337
O	3.828309467939221	-7.240351762600948	-16.18639812898123
O	3.711629368827623	-8.563885739172047	-15.916859029730475
O	5.324741859617733	-6.722071409713202	-14.597180670587012
O	5.338413771361468	-8.090903696603569	-14.346356944842498
O	4.283552622122504	-8.927065834012746	-14.697419840256245
O	4.379031207693208	-6.283120033487242	-15.38642770039192
O	4.426934401004255	-4.925405018114612	-15.708339094742016
O	6.293858497931348	-5.802894889731238	-14.256628080304868
O	5.426864848725104	-4.0354893919838455	-15.375014715498601
O	6.265750053276857	-4.453781127292987	-14.39132065123826
O	1.5421513393129667	-11.854451971346094	-15.28421825025402
O	2.7883523844332982	-12.127604161783495	-15.328288403747388
O	0.8173269960019951	-12.416012999398653	-16.291998843724798
O	-3.1289457676447032	-8.98933712294377	-7.095208848137085
O	0.050429702370847984	-9.392493670389303	-8.833051946519817
O	-1.108475434954208	-9.8019715270995	-8.083193654623404
O	-1.79628775985024	-8.792888812126119	-7.466605774401337
O	0.7694092381264772	-10.50443157081935	-9.466330698416478
O	-1.955322858001816	-10.654128013237706	-8.817268679712946
O	-0.2956430388005238	-8.378457663093428	-9.85101069842873
O	-0.08311082234097356	-9.972369771784516	-11.796011353282008
O	1.1066551104353954	-10.165620116790697	-10.920687383839299
O	-3.8490613998811227	-9.550126661562167	-8.110064768070309
O	-3.32271699122432	-10.730365260503966	-8.538107733096794
O	-0.9875070991604273	-9.03891844998647	-11.04876721738492
