37

O	0.5466061888538221	-12.86692812512193	-14.428176132273414
O	0.6018978601057521	-9.384169974351007	-16.501251100690915
O	-3.109825053597282	-12.58131834154231	-13.281929417916162
O	-0.5109021550940085	-12.589424159897687	-15.241416208833082
O	-3.0286637301226405	-14.07800734168227	-14.353811540345138
O	-0.6867305520487914	-11.198387193330667	-15.368869816866438
O	3.889024555696013	-9.803144826543909	-16.526463392483123
O	3.0876369073354493	-7.607201036401488	-14.655337512197136
O	0.40360425702176617	-10.438463473019787	-15.58653600626113
O	-3.562209435247225	-11.679886306615508	-14.302701265389755
O	1.7573593218043588	-10.543092321374534	-15.283666828133619
O	1.0166935112943332	-8.058716332600195	-14.105647132573331
O	-4.344329272369133	-13.115795796336016	-12.544691373397631
O	1.6079152052524712	-12.056116466654439	-14.809648499809379
O	0.4059276524203428	-9.634162276336918	-17.811426901307122
O	1.0548780192046987	-8.417862695002661	-12.81981219860864
O	1.9790198649504656	-7.985651113276793	-15.038262518023014
O	3.0527599426148866	-10.459222280591966	-15.679628178433052
O	1.41801650790158	-9.006492149231791	-18.407175736794258
O	1.896723737208518	-9.029469865074002	-19.7520922761146
O	1.578559782138703	-8.031515040274924	-17.490134543410328
O	1.4990224579623614	-8.498465738231335	-16.263790381121527
O	0.5471133518031364	-10.347145182504914	-12.33156308703246
O	-0.6703190027489647	-11.794144360657402	-10.25166926162236
O	-0.7793787553404616	-10.356591654685353	-12.077166501917489
O	-1.4704236753280764	-11.479975506834792	-11.309701755800566
O	-0.8864711453851903	-9.167935675009423	-11.301671048721438
O	-1.759318225244514	-12.534640384584481	-12.261877564699315
O	0.005545659774375267	-8.194663611386844	-11.854113494439465
O	-0.9176725551477949	-13.142081658360146	-9.850677208016148
O	-1.3825080601380106	-13.860837318815985	-11.914776767456383
O	-0.7798343422456826	-14.194852228575543	-10.735254953622084
O	1.6368362502511973	-9.59777230540938	-12.779371602413134
O	0.8704299224529657	-8.946056984901759	-20.562579297018374
O	2.672223823577614	-7.844405579238991	-19.95821707745274
O	2.863394167502377	-9.943268005648859	-19.896542055762247
O	2.73020171516632	-10.236678708087954	-12.593774736032469
