32

O	6.747818537518944	-4.501359688439116	-13.366865484297108
O	0.9899160290290405	-9.840458672863964	-18.502413733304458
O	1.4758086622973074	-10.72545070115742	-17.42700776727512
O	1.2107879700800943	-12.05250538031979	-17.966590411672676
O	-0.27147013873574366	-12.379131273285495	-17.749459207895153
O	-0.9985591724354705	-11.427027103407084	-18.697169516532576
O	-0.4621990773912712	-10.032402169228808	-18.65578224601729
O	1.6117883414086256	-8.720382105740091	-17.967646897516286
O	1.29241084847088	-10.442443602898397	-16.0479893239888
O	1.39263072214864	-8.322887768987686	-16.653182536559747
O	2.4732462999787863	-7.635293792732686	-16.03699537502436
O	2.7729018000272965	-6.4841210510139655	-16.640613011308638
O	4.14629988759742	-6.14804738432388	-16.706702669001924
O	4.709181340759714	-7.1700968442726385	-15.844911973634545
O	3.8514860297288807	-8.195576500883886	-16.05541947779289
O	5.638276775996305	-6.591504745159642	-14.887369722842381
O	6.002744400693212	-5.3654873815788635	-14.679885522434924
O	5.542677531129923	-4.407344264343762	-15.64635478666684
O	4.493763646412795	-4.7548872323528	-16.409652526543255
O	0.24503587876473087	-8.011207574041036	-16.430711564953512
O	0.22613670458218582	-10.497140138913643	-15.148567509759612
O	-0.010990030973988318	-9.843559591207482	-13.867534851827301
O	0.7199591449314635	-9.856057748201321	-12.774322153112719
O	0.0026694282123340685	-10.319376514322562	-11.701760572857218
O	-1.019505103348859	-9.397547854240294	-11.42246468422636
O	-1.387323089757997	-9.120544415207073	-13.104201243241079
O	-1.522805022509563	-9.506147987284862	-10.013412339204066
O	-2.0035455488106155	-10.787855207149065	-9.622944606792913
O	-1.3806377234810796	-11.792486365961036	-10.431893998672832
O	0.08113891961773767	-11.35812116670232	-10.588776464188424
O	-3.4021289713938803	-10.955495278675246	-9.375706310444684
O	-0.8954458494950321	-10.760073504132105	-15.692304703034363
