44

O	-2.73477347897908	-8.460963595136018	-13.888842326538782
O	-3.3519285978999607	-9.689657009930539	-14.230977686657225
O	0.4327584667837634	-7.939803313376213	-13.871825085664842
O	-2.6344696040517546	-8.406717609645657	-12.435499765485007
O	0.6682593498646439	-8.689823918093737	-11.08316405955397
O	-0.14745807928627386	-10.392368448028439	-10.521657255653455
O	-0.12551437056658887	-9.075691976693994	-14.298436121903217
O	-2.8461614420782606	-10.659725624730626	-13.346487438934343
O	1.70659925310086	-7.800556122099214	-14.293206661419969
O	1.69219445724181	-9.654184888590843	-11.441011181403944
O	0.8766508967182141	-11.335735447121872	-10.861516483522731
O	0.7559204168465938	-8.356739770284104	-16.012031495213467
O	-0.5615462424822653	-9.238889545254672	-11.071292139414265
O	-1.7124247055247785	-9.285374345496114	-11.8935907687091
O	-0.20536507718769226	-9.225902722324005	-15.578450946357904
O	2.27353763427187	-11.028484883676423	-16.35399759136315
O	-1.5510752961915557	-10.418721791124907	-12.719776295333846
O	2.075170376014929	-7.821573838959004	-15.635269122432668
O	1.3779318411835368	-10.885848728338441	-12.05350831009415
O	2.6925966045378904	-10.059165647773737	-15.412838947066676
O	2.631018865625329	-10.41608629134834	-17.560452331620176
O	-0.9706073210667183	-10.26798037893913	-16.10785922379821
O	2.4850966874827067	-10.165357787405275	-14.028587063766246
O	-1.0760129113805013	-11.909069936406564	-17.468963592735058
O	1.6295209086337232	-12.08102027666395	-15.682194018339734
O	-1.2626391742426781	-12.883397571331258	-8.725941928514501
O	-2.099393894913378	-11.683056309598646	-8.292311905022627
O	1.1372458916694836	-12.00868355849804	-14.292600453898654
O	-1.8276710128171771	-13.168451234119425	-10.112368349370527
O	-2.8812701464590145	-11.289924140457629	-9.556420365892972
O	-1.6288857264922472	-11.696435033037046	-11.815881953739616
O	1.9937639336435207	-9.93001150288414	-18.748876667991976
O	3.3482014129095896	-9.283285011104548	-17.14369325842972
O	-1.3188005060665473	-11.421100809623185	-15.484594251288573
O	3.049248066155987	-8.85278455166612	-15.95444916189118
O	-1.5063789109218568	-10.615626177209574	-17.243407750010057
O	-1.4376835518477105	-12.420159423205462	-16.250239445035213
O	1.6236373857522008	-11.117901059693052	-13.361117265168687
O	-2.299264781816621	-11.883766717295899	-10.667979566318973
O	3.2854316872814744	-9.599626072844657	-13.271310375566916
O	-0.22735662163457526	-12.241545123044254	-18.384466852324977
O	0.7078245369132112	-9.609888626432944	-18.941294021298233
O	2.489373049593228	-8.75527547270817	-19.418959826057645
O	2.4325800864158302	-10.654130276857146	-19.80030828098075
