41

O	-1.1637573650444555	-7.5096091462240935	-14.395803535386491
O	-2.3253209399757777	-8.351236006735526	-14.64187255763385
O	0.7450947426784218	-9.017654124634701	-17.995031590746663
O	-1.15307404151521	-7.336940927183909	-12.96381026757819
O	0.8613645549749331	-7.8962103632328065	-10.521336679697109
O	-0.5576212123798499	-9.485589985589339	-10.231511033497268
O	-0.1805623087093675	-9.318568435468439	-16.988696848364818
O	-2.4421085901389326	-9.301597004523561	-13.611554480195112
O	1.711108819535038	-8.14593599776874	-17.45993348572186
O	1.786221341444726	-9.030088475851947	-10.40529877521572
O	0.5466384721866948	-10.457049550630293	-10.194285054903201
O	0.7881717201136977	-8.417905454751308	-15.43799032963407
O	-0.3290962034768885	-8.362307762041027	-11.038695395875253
O	-0.7129996625189623	-8.457099371218785	-12.417291428324067
O	0.08998449081798388	-9.593354968275182	-15.716817187726607
O	2.4295439491069346	-10.781558918979822	-14.894703567581525
O	-1.1761158008402042	-9.587504230793083	-12.926747209467145
O	2.0314277870703417	-7.934792317951551	-16.07668106210747
O	1.4717400500739566	-10.126862435287746	-11.217164690822115
O	2.7944843858616077	-9.47318351354541	-14.64628620261512
O	2.379937498695569	-11.11368867704587	-16.270856332193713
O	-0.7371698641552822	-10.687485036715657	-15.406160717395144
O	2.0952138047254634	-9.304117068458162	-13.404337307488253
O	-1.933218351269348	-12.363143038230962	-16.2327066290406
O	2.017295129183994	-11.799177176703465	-13.907816202963145
O	-1.1865680387837232	-13.149168245815028	-9.68243257259255
O	-2.0627619188371904	-12.152648935100574	-9.005263798938444
O	1.162442500660982	-11.532611676221231	-12.659569923764728
O	-1.4236151825242693	-12.923315703012907	-11.177100853595997
O	-2.867720076638939	-11.614137704990101	-10.145086487750511
O	1.5974002357729615	-12.353734971350356	-16.73978987032644
O	-1.772723398472678	-10.528990959903723	-11.833162927500059
O	3.2170663387396834	-10.069001767950494	-16.57331819063768
O	-0.7213272662917154	-11.741961701329014	-14.628712543072709
O	3.0529013628340995	-8.93439112832498	-15.761466655421902
O	-1.944125196253447	-10.978468683605275	-16.07757561421097
O	-1.7451731425081674	-12.440500666457375	-14.87384876206545
O	1.8221736350463082	-10.327781307337595	-12.508971827520154
O	-2.111444465724169	-11.703970566768513	-11.403936118404033
O	2.0564088035885386	-8.12591863812508	-13.052939878869857
O	-1.4684583147226098	-12.566619298122804	-17.435118851926397
