28

O	7.260063108891343	-3.228133710855656	-13.4784778314716
O	6.033868582419199	-4.090143299594757	-14.348718341985052
O	1.7933834380896183	-10.236186825207458	-15.428166359051144
O	1.200786206109055	-8.061061455966586	-16.820673000414704
O	2.314048366959302	-9.007014583802817	-16.54418999535222
O	5.481563775880262	-3.819233004890367	-15.566861980869206
O	0.17490597109204753	-9.954390325784807	-12.437426203674555
O	2.530330329785677	-9.707009679882692	-17.839107370517624
O	4.604078492245616	-4.718087998507772	-16.05763169284229
O	-0.42088281657173	-10.367558105097391	-8.79699214746375
O	1.6387912533504942	-8.268529594225658	-13.062717139821055
O	4.793812970277004	-6.02672374819969	-15.603636666424226
O	-0.16992159198075552	-11.748414405088365	-10.592793303009504
O	-1.3844047502203836	-10.70660943862914	-6.252885302270072
O	3.740564871080401	-8.32421425123363	-15.813407055974452
O	5.936441937913137	-5.812046482827254	-14.395457873987771
O	4.3775966884427255	-7.164488308472812	-16.41946301439585
O	0.6797596609941445	-9.672912592257578	-14.718324684054423
O	-0.3068370801826905	-10.766740201708306	-14.518223517606362
O	-0.306334245212474	-11.155791982848642	-13.066692011811234
O	1.1246407881593172	-9.36490995020184	-13.348900044610712
O	-0.1701012801077404	-9.531488844262203	-11.102700891577593
O	-1.6809898902288678	-9.332911805285914	-11.081862135873916
O	0.10092024279062084	-10.609503378344435	-10.080526508226393
O	-1.7718654875830646	-10.874292687268827	-8.54861670614571
O	-1.6494658701986298	-11.623066505067424	-7.252738171148244
O	-0.02959905246288752	-10.412460786280189	-6.339364697751248
O	0.1635697074651432	-9.738941526226878	-7.65599971572375
