86

O	-2.5339564377808514	2.841085719404255	-1.7399860147446815
O	3.258177322219149	2.863166519404255	-1.5405253747446817
O	3.9918995822191485	2.1847000994042554	-0.6463056767446815
O	1.327700882219149	2.480233119404255	-0.4551310477446816
O	2.113903731219149	2.2916046394042553	0.6417143522553185
O	3.4665638522191493	2.4412898294042553	0.6295001332553184
O	1.960403943219149	2.466103669404255	-1.6035068947446816
O	1.223996520319149	2.780291169404255	-2.7605551947446814
O	-0.028065887780851062	2.621579409404255	-0.5343790537446815
O	-0.11692077778085119	3.050955059404255	-2.7505202447446817
O	-0.8123770577808511	2.614503079404255	-1.6276195747446816
O	5.740530212219149	2.372652099404255	-0.7398107037446815
O	6.1345023322191485	1.7710338294042551	-2.0648347047446816
O	6.728849862219149	-1.0336924805957448	0.26652232525531844
O	7.425687792219149	-1.9645160205957448	1.2112746652553184
O	7.248284602219148	-1.9649755805957452	2.6071451852553182
O	8.077936902219149	-1.1902926305957449	3.4926133752553183
O	7.472264622219148	0.21426065940425515	3.6766756952553186
O	8.653130132219149	-2.153176680595745	0.9103843942553185
O	6.8682004022191485	0.47838473340425514	0.09821769935531846
O	6.162403792219148	1.4538000294042552	0.6435979262553184
O	4.932098352219149	-0.4839361105957448	1.7240649452553185
O	4.042666122219149	-1.1177362505957449	2.4026240152553187
O	5.107020382219149	0.9119989504042552	1.3886570352553185
O	5.416376352219149	-1.3613836005957447	0.7678214732553185
O	5.927012442219149	3.786846859404255	-0.8784147647446816
O	4.788371692219149	-2.481754170595745	0.31626125725531845
O	5.513644622219148	-8.128466890595746	0.9081268732553185
O	3.8028092822191493	-5.586957130595745	2.7649717052553187
O	4.042578622219149	-6.7741951505957445	2.0535322452553184
O	5.326234032219149	-7.133209930595744	1.8100605852553184
O	5.016108842219149	-4.7929974405957445	3.1443892852553184
O	3.051792742219149	-7.484703880595744	1.5022549352553185
O	2.7820996422191486	-4.757567280595745	2.2425510352553184
O	4.562634842219149	-3.826557220595745	1.0850347912553184
O	5.5066668722191485	-4.4349019305957444	1.7503991452553185
O	4.534991012219149	-8.564472860595746	0.11378385754531846
O	3.310795472219149	-8.490432330595745	0.6392680202553185
O	3.274589752219149	-3.5829215005957447	1.7706140252553184
O	2.106661322219149	11.374314199404255	-6.993033844744682
O	-3.143851357780852	-0.17792985359574487	12.020316645255319
O	0.33568017821914886	0.15855882040425512	10.45646734525532
O	0.27962091621914886	3.922202339404255	11.24088164525532
O	0.4977181782191489	3.049178069404255	14.923680945255319
O	5.4306188522191485	4.924638119404255	12.78192674525532
O	3.720945112219149	-6.2841444005957445	9.53121664525532
O	4.621150212219149	-9.367921020595745	7.5460084352553185
O	1.2565682719191489	-9.441226790595746	5.769830505255318
O	-0.3243469177808511	-6.030843870595745	6.134521505255319
O	-4.841540507780851	-2.951579190595745	8.310249155255319
O	2.635584532219149	12.097850999404255	1.4928841752553184
O	5.558006812219149	11.808880299404255	-0.8746983207446816
O	8.80621996221915	7.446943039404255	-5.008313574744681
O	-3.9009592177808514	-10.388667100595745	-7.260023034744681
O	0.24763727321914886	-7.553481080595744	-9.60031684474468
O	2.207008522219149	-8.661773450595746	-6.4083318947446815
O	4.218725672219149	-11.492287100595746	-4.861746264744681
O	2.781007412219149	-10.300817900595746	-1.6217491947446816
O	-0.6121617577808511	-11.817138200595746	-0.7988549137446815
O	-3.466512207780851	-9.411210020595746	-1.4750681747446817
O	-7.964188417780851	-5.421685000595745	0.5743058472553185
O	-8.65938275778085	-3.8540718805957446	-2.8368769647446817
O	-6.467998667780852	-2.341737480595745	-5.579524464744681
O	-0.7169796177808512	7.015115379404255	-7.137870044744681
O	-0.7231515177808512	7.614113949404255	-3.4122504547446817
O	2.728323222219149	7.109216879404255	-1.6190947447446815
O	4.514209972219149	6.779281479404255	1.7035430852553184
O	2.8616840322191486	9.364394339404255	4.167033425255318
O	-0.5744590677808512	9.122240959404255	2.5577404352553184
O	-1.109639217780851	5.985549279404255	4.614231015255318
O	-4.7321679577808515	4.020441099404255	2.2658307352553186
O	-2.7762687677808513	0.8657402874042551	3.2281390652553186
O	-0.02210613778085113	-0.3038644125957448	0.9321911042553185
O	2.023580698219149	-0.610204860595745	-2.5214337947446817
O	5.142675852219149	-1.684432000595745	-3.917771884744681
O	6.885114652219149	1.6128410494042553	-4.300089374744681
O	4.712231712219149	4.441393739404255	-5.801941464744681
O	3.2803065922191488	4.7134264094042555	-9.264201994744681
O	5.310409362219149	1.7483731194042553	-10.569351054744681
O	1.682147545219149	-2.0376892005957448	-9.572362844744681
O	-1.3654224077808512	-0.5066440475957449	-7.910830844744681
O	-2.4224261077808515	1.0591730964042552	-4.775321914744682
O	-3.703924457780851	-1.2447392505957446	-2.0196570547446817
O	-6.497823147780851	-0.06083464659574489	0.29578713225531844
O	-8.134445997780851	-1.7302672205957448	3.3534166052553185
O	-11.68408065778085	-2.558676970595745	2.2405127652553185
