83

O	2.814138112510204	2.537280732408164	1.7004050550020415
O	4.750632052510204	1.2364771224081637	-1.5832486149979585
O	5.946240222510204	5.141633922408164	-2.7694303149979587
O	2.096282872510204	2.7668848475081638	0.5457524460020413
O	1.643503443510204	7.367278922408163	0.5799375730020413
O	3.4346021325102036	8.702360382408164	0.9357497350020414
O	2.432625312510204	2.0790695884081636	-0.6998950339979586
O	7.095930932510203	3.7574298824081636	-3.9105254749979586
O	3.8791380625102043	3.868207932408164	-0.8574603549979586
O	3.350567482510204	1.0198523824081638	-1.0304458789979587
O	3.1531672825102044	3.2061042874081638	2.8056690750020414
O	3.3679240725102035	0.5756223424081637	0.2603480260020414
O	5.381555242510204	3.9532765324081636	0.7296731450020415
O	3.4373038725102036	1.2379603824081638	1.5147070150020414
O	5.717931872510204	1.6379994724081637	-2.4064462049979585
O	4.998421922510204	5.254589272408164	0.8708459050020414
O	4.620766952510204	3.084665842408164	-0.07372167899795862
O	6.477417822510204	2.8293306274081638	-2.015284294997959
O	6.734551052510204	4.200427262408164	-2.5797000249979587
O	6.667132522510204	2.306331329408164	-0.7671875989979586
O	5.391468782510204	1.8621471034081636	-0.5691850059979586
O	3.182002042510204	6.219727962408164	1.8444566050020414
O	4.221039092510204	2.850359043408164	3.588378295002041
O	2.6075075825102036	6.173086482408164	0.5437856020020413
O	7.262875232510204	2.6630181372081636	0.46729094500204144
O	3.512541782510204	6.643188952408163	-0.43679057009795863
O	2.163822182510204	8.723905762408164	0.7232926450020414
O	0.746516383510204	7.1139324324081645	1.6761300150020415
O	1.500893664510204	7.718352702408163	2.8695802350020414
O	4.720753242510204	5.973131292408164	-0.2564400829979586
O	1.304100561510204	9.766892452408165	1.3958415550020415
O	6.333184882510204	3.2975011234081637	1.3603182450020415
O	1.1326278825102039	9.207870872408163	2.8114847450020415
O	4.467768892510204	5.775938492408164	1.9726001050020416
O	5.293388762510204	-9.441369017591835	-7.903740764997958
O	6.816423682510203	-8.004337517591836	7.8465553450020415
O	-3.541282637489796	-2.561115337591836	8.104693145002042
O	-3.1294268074897964	0.12264275240816369	10.741983815002042
O	0.23862909651020392	1.0558241924081637	9.240200825002042
O	1.496642358510204	-2.5021261675918365	10.087001815002042
O	1.305791494510204	-1.5715553675918366	13.752665515002041
O	4.165014642510204	0.8552772924081637	13.337756315002041
O	6.600654602510204	-1.6143194175918363	11.744568115002041
O	0.611493181510204	8.310459992408164	8.449209855002042
O	0.22706453651020397	11.471675552408165	6.3589218150020415
O	-2.892247127489796	10.266751962408163	4.475954915002041
O	-2.9361499274897964	6.419974892408163	4.954815195002041
O	-5.710384637489796	1.9873448364081638	7.025218715002041
O	-7.378093307489796	-0.7265159175918363	9.048145495002041
O	6.219707742510204	-9.791938117591835	0.5024742750020414
O	8.851826522510205	-8.682743117591835	-1.9558136649979585
O	10.444016432510205	-3.699717537591836	-6.3722539749979585
O	-2.5952286774897964	7.754224982408164	-11.104182784997958
O	-1.1199372274897959	9.584251262408165	-8.048442284997959
O	-0.3417967374897961	13.020759582408164	-6.625896534997959
O	-1.266194407489796	11.511295092408163	-3.2585801349979584
O	-6.677354807489796	8.381484192408164	-3.0579629049979586
O	-9.369599927489796	3.1866840954081637	-0.7742661449979586
O	-9.485753027489796	1.4244224124081637	-4.107902234997959
O	1.3310724425102038	-6.196167687591835	-8.02550813499796
O	1.581229110510204	-6.537023467591835	-4.326144894997959
O	4.719078012510204	-4.922134377591837	-2.6495874749979587
O	6.374565332510204	-4.2950518875918355	0.6062698850020414
O	5.615650722510204	-7.029168377591835	3.1451026550020416
O	2.2798038925102038	-7.904537417591836	1.5493342950020415
O	0.865863757510204	-5.002546927591837	3.5138305650020416
O	-6.540667217489796	-4.795942207591835	2.8487071650020415
O	-3.1827646574897965	-4.440541847591836	1.1066462650020414
O	-2.311412727489796	-0.7937821675918362	1.9190925650020416
O	-0.01681878748979604	1.2528988624081638	-0.4231155930979586
O	1.520750236510204	1.8688330874081638	-3.8650493949979587
O	3.7689418525102036	3.996715212408164	-5.712522454997958
O	6.597450192510204	1.2651354624081637	-6.286949814997959
O	5.597616142510204	-2.079018937591836	-6.945026774997959
O	4.239722042510204	-2.878990307591836	-10.314905274997958
O	5.115337262510204	0.4329473924081637	-11.995405784997958
O	0.5817126975102039	3.0510004524081635	-10.890144284997959
O	-1.7062692374897959	0.6255207324081637	-9.064681234997959
O	-1.9623466774897962	-1.1047940475918363	-5.731858384997959
O	-3.9191956374897963	0.8453643324081637	-3.1869876749979587
O	-6.160271567489796	-1.2128053075918364	-0.8602757519979587
O	-8.282123557489795	-0.2367525975918361	2.1077952950020413
O	-11.934127427489795	-0.6664935475918363	1.0202605150020414
