88

O	2.9760095585217385	0.6548920052391314	1.990366121217391
O	1.5938986385217389	1.1987546542391314	-3.7213146787826084
O	1.5410702385217387	0.09653696523913147	-4.590859008782608
O	1.7620968385217388	-0.03745234476086856	-1.7787737087826085
O	0.9808835485217386	-0.8953696647608687	-2.5191303647826087
O	0.7549953385217387	-0.8305339647608685	-3.878013108782609
O	2.0786392285217388	1.0903028742391314	-2.4217241767826083
O	3.085079808521739	1.8125334362391314	-1.7859220637826085
O	2.374006498521739	-0.2319628847608688	-0.5402940587826086
O	3.601550638521739	1.6639163492391313	-0.5027811387826084
O	3.042067908521739	0.6763149652391314	0.22769396121739138
O	0.9820178385217386	0.1372098752391313	-6.265520268782609
O	1.9013270385217385	1.1128051452391312	-6.977480018782609
O	-1.6057079614782614	2.6564471852391316	-5.950463318782608
O	-1.8072867513782613	3.9067485052391313	-5.783278438782609
O	-0.5980770814782614	1.9289597475991314	-6.731960698782608
O	-0.5689465314782614	0.5960966552391314	-6.321328018782609
O	-2.5881885394782613	0.8878406952391313	-4.9004449187826085
O	-3.9791804414782614	1.2542856702391314	-5.243568028782608
O	-3.7965105614782613	1.8400101049391313	-6.416216678782609
O	-5.396924791478261	1.4811939032391312	-4.991163868782609
O	-6.161806461478261	2.4971503942391315	-5.701893958782609
O	-7.558314771478261	2.650869576239131	-5.535803888782608
O	-8.334158871478262	2.1220351112391316	-4.568488678782609
O	-6.396860511478262	0.7929803552391315	-4.2714081587826085
O	-7.5675991414782615	1.4132928672391314	-3.697602498782609
O	-1.8367636329782613	0.17031065523913136	-6.108991898782609
O	-1.8260629268782613	1.9869166755391314	-4.733174558782609
O	1.2320475885217386	-1.1216756547608688	-6.981859398782609
O	-2.1575058764782615	2.687934735239131	-3.6064462487826088
O	-8.028077001478263	5.777913685239131	-3.4511529487826085
O	-5.439486051478261	3.7217504852391317	-2.1729153984826084
O	-6.167342521478261	4.3970879252391315	-3.1111685187826086
O	-7.442457951478262	4.699984225239131	-2.8552421617826083
O	-4.173624651478262	4.467062855239131	-1.9548085127826085
O	-5.616105671478262	5.242655075239131	-4.116472168782609
O	-5.191376431478261	2.3916030352391315	-1.8510243747826085
O	-3.5924993414782613	2.990878755239131	-3.7159503487826084
O	-3.5869574914782616	4.4525666452391315	-3.3663682987826085
O	-7.595717261478262	6.263697125239132	-4.614403168782609
O	-6.386403801478261	5.893638915239132	-5.036132438782609
O	-3.8959345214782615	2.068988663239131	-2.4753378857826087
O	12.792298848521739	0.1894183552391313	-3.2476834587826087
O	2.118301528521739	-11.48134392476087	-5.163615108782608
O	-3.9198146914782614	-7.30798391476087	3.903562891217392
O	-7.574355531478261	-7.68634083476087	2.907154631217391
O	-6.715849891478261	-6.159902044760869	-0.5123767087826085
O	-4.3919637414782615	-9.12193532476087	-1.2078453987826085
O	-7.478082001478262	-11.348872324760869	-1.3744980687826085
O	-8.46987448147826	-9.63176082476087	-4.628308548782608
O	-5.186033951478262	-10.35888332476087	-6.443525578782609
O	-11.540379691478261	-1.0057447647608688	-2.3464600667826083
O	-12.642512351478262	2.5784071402391313	-2.645618895782609
O	-8.587321761478261	0.7616980252391314	1.6392851712173915
O	-7.074819591478262	-3.4454652147608686	5.3328055212173915
O	-6.527123071478261	-6.62222305476087	7.345312341217392
O	7.928165068521739	-6.704432944760869	-4.218946678782609
O	8.942484848521739	-4.3333476447608685	-6.9765265487826085
O	8.021253338521738	1.9976127022391315	-9.346353038782608
O	-2.6237589234782615	12.624220375239132	0.12887719121739138
O	-6.044437801478261	13.399525075239131	-1.4769535167826087
O	-7.143861091478262	9.93515793523913	-0.40803798878260844
O	-5.874830521478261	8.314716225239131	5.556786451217391
O	-3.5943999514782616	3.614031355239131	9.096445671217392
O	-0.12068744147826127	5.099670995239132	9.670713971217392
O	9.85942504852174	2.6367837962391314	0.14750649121739157
O	7.845685918521738	-0.5190039347608688	-0.05364096878260849
O	6.073425348521739	-1.1612930647608688	-3.442131938782609
O	3.627043668521739	-3.393611964760869	-5.268858508782609
O	4.119833418521739	-7.082706244760869	-4.114436768782609
O	5.263291918521738	-6.018662554760869	-0.6458491687826085
O	1.5792424885217384	-5.6360072647608686	0.20934501121739135
O	2.0554096285217387	-3.081709404760869	4.183794531217391
O	-1.2353503744782612	-1.4965127247608687	2.779828781217392
O	-0.9694668604782614	1.2849546012391313	0.1450867612173914
O	1.0212227685217385	4.296269525239131	-1.3197702317826085
O	0.7164807785217384	6.484296285239131	-4.313664908782608
O	3.133714768521739	4.876845915239132	-6.647938178782608
O	6.438444898521739	3.9732197452391316	-4.897186138782608
O	9.00888554852174	6.216874395239131	-3.3493508087826083
O	7.415050728521738	9.381130925239132	-4.857322318782609
O	4.376506628521739	10.54576177523913	-0.6032074987826086
O	4.860882148521739	7.830837555239132	2.0796537412173914
O	4.0706450385217385	4.1962491752391315	2.6313264912173913
O	0.7881711985217388	3.5646303652391316	4.339295251217392
O	0.4309814285217386	0.6576718352391313	6.730289701217393
O	-2.6340675684782613	-0.8384851747608688	8.486140171217391
O	-2.1378557124782613	-0.023755604760868687	12.196896271217392
