80

O	-1.5336932979613638	2.397371017840909	7.878615348070455
O	-0.4938606958613639	3.324109987840909	8.067023728070454
O	-0.17676272296136386	3.1613259778409093	6.262008018070455
O	-1.307263110961364	2.348816684840909	5.881204678070454
O	-2.412258617961364	2.895620569840909	6.817056628070454
O	-1.462333700961364	0.898166167840909	7.848870308070455
O	0.5762337820386361	2.577767701840909	7.360361048070454
O	0.45578268003863615	1.136461378840909	7.739262778070454
O	-0.4787978830813639	0.4764718178409091	6.811542838070455
O	0.5463107320386362	0.617518997840909	5.903672608070455
O	-1.643073827961364	0.868930407840909	5.957386448070455
O	0.5443076120386361	1.294982296840909	4.673003628070455
O	0.7862469220386361	2.635314298840909	4.306753878070454
O	1.2202165120386361	2.824148508840909	3.0821610180704546
O	1.9010405020386363	3.887933317840909	2.4787759470704547
O	2.010467932038636	3.332158207840909	1.0667786780704547
O	-0.3646386269613639	0.8820815678409091	3.972655038070455
O	0.8051898120386363	3.200892277840909	0.4576622580704546
O	0.5198198810386361	2.585256888840909	-0.7031836819295456
O	1.5029473720386362	1.612150923840909	-0.9955736019295454
O	2.841917812038636	1.8538043688409092	-0.5270698919295456
O	2.950431262038636	2.429156011840909	0.7043210740704545
O	0.0013760270386360962	3.3131483778409088	-1.8622961419295454
O	-0.2523933409613639	2.784391265840909	-3.0232641619295455
O	-0.8550468819613639	4.4328811278409095	-1.8368147919295457
O	1.8930670920386363	1.554878259840909	2.6140457180704546
O	2.190864522038636	0.4744635178409091	3.5827346580704544
O	3.525707922038636	0.653500007840909	3.9230973280704546
O	3.701008102038636	2.144705898840909	3.9695859880704543
O	3.313618852038636	2.792758327840909	5.1904098580704545
O	1.101097082038636	0.9500474178409091	2.0098730870704546
O	3.142488322038636	4.076068167840909	5.5173807780704545
O	3.102990252038636	4.560530897840909	6.823394048070455
O	3.578944242038636	3.714007497840909	7.763938568070455
O	3.709774662038636	2.387797875840909	7.483508718070455
O	3.347624102038636	1.948484129640909	6.240264048070455
O	6.072348142038636	9.878571107840909	-5.226717361929545
O	2.639912942038636	-9.147310922159091	-2.622165511929545
O	2.049205482038636	-11.702497922159091	0.10368148807045463
O	2.7701667820386358	-9.030314522159092	2.7410432580704542
O	6.296099452038636	-8.67512672215909	1.3455238230704545
O	7.029836652038636	-12.214539122159092	2.5428625850704547
O	6.851984732038636	-11.005954922159091	6.110188988070455
O	9.543602942038635	-8.320382322159091	5.576228018070455
O	-2.692642637961364	-9.47509432215909	7.6453600380704545
O	-6.322790967961364	-8.659506022159091	8.785168708070454
O	-4.703837177961364	-7.363028912159091	3.2785671380704544
O	-2.270012317961364	-9.859480722159091	-1.1912027819295454
O	10.278531942038637	2.893692345840909	-2.7045241919295453
O	10.163712642038636	6.184864477840909	-0.9761657419295455
O	7.390674892038636	10.91074389784091	-0.5867219819295453
O	5.8301912320386355	10.191394557840908	2.7185767180704543
O	-11.346872257961364	4.548300567840909	3.4201927780704544
O	-13.102203357961365	3.002928587840909	6.400418068070454
O	-11.098139357961363	-0.1909049121590909	5.725484468070455
O	-11.544060357961364	-2.3919198421590915	0.15863709807045456
O	-8.411932627961363	-4.764142952159091	-4.5902443219295455
O	-8.516052257961364	-1.5301484621590908	-6.506274151929546
O	1.414580152038636	7.815911037840909	-5.336562731929545
O	3.413467492038636	4.707746787840909	-4.681414931929545
O	4.856356752038636	4.478430237840909	-0.8769330219295453
O	6.698571932038636	2.1314960848409092	1.2810680660704545
O	9.148059562038636	-0.08865288215909106	-0.6144721519295453
O	7.095596822038636	-0.041077402159090726	-3.815450831929545
O	5.046766002038636	-2.7972649521590913	-2.140200811929545
O	1.241168572038636	-2.6711884521590914	-5.014740271929545
O	-0.4372877706613639	-3.4418110921590914	-1.5803115819295457
O	-1.279761495961364	-0.7297794421590911	1.3780972800704545
O	-2.2847735579613637	3.0282618078409094	1.5625609919704546
O	-3.121232047961364	5.687321277840909	3.7179396680704544
O	0.22841817203863607	7.622196887840909	3.841139218070454
O	1.5129277520386362	8.167363827840909	0.7933591630704545
O	-0.0645620769613639	10.693642417840909	-1.6554864519295454
O	-2.546717767961364	12.11010747784091	0.8416945220704546
O	-6.622038237961364	8.79609696784091	-0.2614462919295455
O	-5.527315127961364	6.441339767840909	-3.045246741929545
O	-3.255041647961364	3.553338137840909	-3.4819637719295455
O	-4.636353077961364	0.13902052784090912	-2.645142081929545
O	-3.607996247961364	-2.6209958321590916	-4.891075811929546
O	-4.180558667961364	-6.2616461321590915	-5.523328551929545
