38

O	0.2190713184760016	-5.993023084762553	-13.235104872810137
O	1.1199513015549063	-7.810548999017857	-12.979979555912086
O	1.7266107188367297	-7.00879511600032	-14.087008613448162
O	1.7881952014646711	-4.548704672497596	-14.8239756652425
O	-0.477072232395507	-9.17298245282896	-15.199042640174614
O	1.3961104477764716	-5.68106251206472	-14.051315734502431
O	2.7394025890162776	-9.490130983668259	-16.12759344588633
O	2.17804874781698	-8.72526178481605	-12.795544553576738
O	2.945887681992648	-9.206235142373085	-17.38454836398471
O	3.032491811801279	-9.101779872064947	-13.891816485275859
O	0.727371683648335	-10.510094648720116	-14.013772241724686
O	3.262177925495225	-8.471546179519063	-15.110435454619925
O	-1.0101930572995474	-10.158209786424862	-8.796038010940622
O	2.3953166346289723	-7.468646909231795	-15.171253478990169
O	-2.2733768569564177	-11.410911434665172	-7.4725049564402966
O	2.064207242797486	-9.761167488156406	-18.208130501323136
O	-2.3942576667384374	-13.177171326071155	-9.552246182479639
O	1.068543146105656	-10.297944458608505	-17.36000906901942
O	1.4669399821784337	-9.933387306694069	-16.13035735759053
O	1.984815129401146	-9.028123966337642	-19.498003143120183
O	-1.1518006530375002	-12.478611891714719	-9.513006926169348
O	0.6450913721085811	-9.637921165627944	-15.01415041789851
O	0.2049734679109072	-10.36620117259755	-12.781413572035818
O	0.84110989857541	-11.02473996690727	-11.799950927127608
O	0.5189738890706215	-10.710790060487238	-10.511257177922563
O	-0.49429667653793086	-9.81646351446167	-10.156175400115881
O	-1.533239921129244	-9.842132330726038	-11.091703465144018
O	-1.0638309539686466	-9.897427669774967	-12.398520312248712
O	-2.665319844704533	-13.638876393405793	-8.178465570078828
O	-1.694024715125253	-9.408287527447797	-7.93407616561913
O	-2.014097735154854	-10.21530107868238	-6.873858233692521
O	-3.5537122549366256	-12.349231791129045	-9.86011505632454
O	-1.3131660537509457	-11.432338285737725	-8.443016103884963
O	0.043211529206740096	-7.2955696485414006	-13.471641682790356
O	2.527492155629673	-7.726955510612031	-19.533730545458262
O	2.994334515076595	-9.599574563803376	-20.21187470690141
O	0.7746369085356797	-9.03790696002152	-19.956929733156255
O	1.3463762976401434	-12.274866408612926	-12.106429259990476
