80

O	3.750469324240001	-1.7742475145819998	-1.05384376144
O	3.0832489342400002	-0.3720123345819999	-1.8172918464399999
O	-1.5576646717599996	5.033338515418	-3.47858350644
O	0.2712278342400005	4.945332745418	-5.3243970564400005
O	-0.7480016457599996	4.0638560254180005	-4.68439880644
O	3.5909562042400003	0.6041950854180003	-2.6260056464400003
O	-3.0485294857599996	4.644940695418001	-0.92432296144
O	-1.7714274287599996	3.8138152754180004	-5.72673880644
O	1.4666723542400006	-0.41209100458199965	-2.41191762644
O	2.6792797842400002	1.4404186274180004	-3.20202314644
O	-6.958451105759999	5.675508455418	2.5704249835599997
O	-1.5331219237599996	3.051203225418	-1.62066505644
O	1.3933194942400002	1.0756220094180002	-3.19632295644
O	-6.29199719576	6.225356215418	0.32116646756
O	0.19514842424000034	1.5105550674180002	-3.9166111164400004
O	-0.011464295759999521	2.763252444418	-3.9176994564400003
O	-7.519356435759999	4.360863115418001	2.6798970135599998
O	-6.89337115576	6.464717175418	3.80115747356
O	-2.7663931147599996	4.300803595418	-3.1980884564400003
O	-3.8677147057599996	5.289101295418	-3.08392460644
O	-4.03505478576	5.493680395418	-1.63510960644
O	-3.1139104557599993	4.316046955418	0.5067930735599999
O	-2.64581994876	5.128614355418001	1.5662831335599998
O	-3.95815518576	3.3320302154180004	1.06959914356
O	-3.6897913257599995	5.635248245418	2.3653315935599997
O	-4.9536780257599995	3.878312385418	1.89239118356
O	-4.835379435759999	5.280292305418	1.73897556356
O	-6.0590526557599995	6.105543175418	1.5348991435600001
O	-2.5998076297599995	3.701301485418	-1.8455134064399998
O	-4.546915075759999	2.610621180418	0.017417261559999953
O	9.16253577424	1.2206677604180003	-9.96600320644
O	-5.423663385759999	-5.050412844582	-11.80622177644
O	-5.20264360576	-8.336785994582	-0.5786674944400001
O	-8.76580943576	-7.8790282945820005	0.58206861156
O	-8.79906991576	-4.454878484582	-1.10725221344
O	-8.28993461576	-6.080859754582	-4.49187669644
O	-11.78992025576	-7.518510164582	-4.2066165264399995
O	-11.42188226576	-3.1155222345820004	-7.85754703644
O	-11.443041945760001	0.7039088054180003	3.38763886356
O	-10.99617304576	3.4761991654180004	5.96806702356
O	-7.996348985759999	1.8127260124180002	7.6329808435599995
O	-6.680421335759999	-0.8472465145819996	5.1996728035599995
O	-5.74019470576	-6.430822494582	4.20173131356
O	-5.78560983576	-10.132404194582	3.37844910356
O	1.8945644542400004	-2.881967434582	-11.759758976439999
O	2.7550892942400003	0.6707034254180002	-12.749650276439999
O	3.4467214842400002	7.018700805418	-10.116699296439998
O	5.028318024240001	4.951660085418	11.78197462356
O	6.3064424942400015	8.337975765418001	7.57180584356
O	2.4734059842400002	8.734805255418001	7.358761053559999
O	-0.5459670757599995	10.534101105418001	8.855165943560001
O	-2.4677240257599995	7.318882525418	8.17776750356
O	-2.2673941807599993	4.793239995418	11.011246423560001
O	0.19924917424000044	2.0109220125180003	10.27616472356
O	1.3722872242400006	-3.961641594582	8.603416603560001
O	5.047374984240001	-3.364657544582	7.8998489435599994
O	7.0109191742400006	-0.8605643645819996	5.80480328356
O	8.94008277424	0.8240268454180002	-4.83726304644
O	5.91757097424	-1.2621167045819999	-5.64225036644
O	2.989711034240001	0.6458467654180002	-7.19858368644
O	-0.6771822657599995	0.4578547654180003	-8.24534505644
O	-1.4350670167599997	-2.943082014582	-9.81295238644
O	1.1794947242400002	-4.649769884582	-7.66964877644
O	-1.4500763117599995	-4.609578704582	-4.9205024364400005
O	1.4965450842400003	-5.656542104582	-1.28849821744
O	-1.1414940057599996	-3.3030865545820003	0.37858784755999997
O	-0.6524870557599995	0.3781869154180002	0.09262081755999996
O	1.5145427542400005	3.5359732954180005	-0.22339846944000005
O	1.0804927142400003	7.236197255418	-0.55373169144
O	1.7232374442400002	7.398154955418	-4.23537532644
O	4.75613186424	5.359421925418	-5.44176614644
O	8.41477467424	5.860236355418	-4.63826267644
O	7.827805824240001	9.262723845418	-2.98533897644
O	7.25775710424	7.417888915418	2.0087043635599997
O	7.518879194240001	3.6080886054180006	1.9992013635599997
O	5.57206621424	0.6374048354180002	0.7820504335599999
O	3.026362304240001	-0.7571868145819998	3.23451178356
O	2.6020518942400006	-4.5587441545819996	3.2625354335599996
O	0.18234261424000064	-6.817457154582001	5.1718264735599995
O	2.2753480142400004	-8.733631994582	7.711608733559999
