31

O	6.285407882197908	-4.385962068633666	-13.995170872962928
O	2.3263839955683525	-7.163790687803223	-13.389065612658564
O	2.2350379884565728	-7.789260680698633	-14.722745390111553
O	3.998519836416367	-9.711882877289957	-16.62249093422509
O	2.5933759874887627	-9.877470544249547	-16.080461308602107
O	2.70075692694554	-5.876963749329222	-14.294117584199066
O	1.9427478408046017	-10.85486477325913	-15.044351199949174
O	1.9905495213329885	-9.08036649726225	-17.151309522428456
O	-0.1531739997079793	-7.830597159852907	-11.38507152016301
O	3.7721474855611588	-4.953665173074652	-14.322647849771679
O	-0.745823694843172	-10.60555567757411	-14.432452341794036
O	-0.02210574722500347	-8.574757090760993	-14.864677703889999
O	4.957210674792802	-5.485447506068661	-14.025488133811752
O	-1.988723483875372	-10.329825444442179	-9.414062695997714
O	-2.599457057333426	-11.473716344860886	-9.997899379270356
O	4.8250483391184655	-6.802281302171275	-13.989039906132863
O	3.662687757232872	-7.7043192838759795	-13.588648605843657
O	3.1839714252192737	-9.051881874125714	-13.338082116743625
O	2.9710171044452363	-8.990324795219118	-14.782401082163664
O	1.586842424194951	-10.754219559495358	-13.545270588290704
O	0.32621032045694065	-11.326223940163729	-13.841588167854763
O	-0.48864932601799893	-9.268169652538088	-13.927836478298905
O	0.19678060495438832	-9.017519052706309	-12.644615557014104
O	-0.4474766992888215	-9.966732336663547	-11.655039227158587
O	-1.192548796799339	-9.792998481254898	-10.48076145627239
O	-0.9198526184197053	-8.5011760747006	-9.995117607163765
O	-0.537585602164679	-8.322073855160664	-8.655120249768633
O	-0.7218293832921354	-9.428491451400385	-7.815971856382103
O	-1.8919147922772028	-10.12810283540287	-8.144391490539604
O	-0.180576195395048	-10.743123268341094	-15.876249551796192
O	0.7994098552523425	-11.706570774864657	-15.196454165220455
