34

O	6.749980858470028	-3.8843699076988427	-13.395870668071971
O	-1.5696024771201618	-8.643106015039447	-11.672712886013041
O	-0.25608806429539666	-9.434276668539106	-11.541677329799295
O	0.11316248953692298	-9.746074892497257	-12.928887713441366
O	-0.9101713293485201	-10.12708403994073	-13.861566027965441
O	-0.4118716607018209	-10.12405674389491	-15.18668805545466
O	0.9451719843686517	-9.373855084692595	-15.031552742593883
O	1.1363044377356486	-10.065497467887175	-16.208905218640567
O	2.5741388414532276	-10.406492824010025	-16.868876575588146
O	2.484485674529233	-10.176995400442191	-18.32255209554471
O	2.8859146299870337	-11.8155068416424	-16.69347979882069
O	3.575851059714978	-9.426517272882538	-15.881182026619125
O	4.463539567696017	-9.768137253943872	-14.91212190490635
O	5.24263760124132	-8.752813652574304	-14.367194968752536
O	5.134553703635475	-7.398290367165717	-14.634238323639993
O	5.998361676552212	-6.383502538465322	-14.229226199512597
O	5.799731940262957	-5.025068717472	-14.305762400582884
O	4.944959979260917	-4.705363668398347	-15.2990656209169
O	4.0621294901829454	-5.6772113166891245	-15.66902167071485
O	4.004109987926311	-7.0241663955660885	-15.251513643538324
O	3.357872960095855	-8.06336602612275	-15.929867764069062
O	1.3059280899237944	-9.377007531652392	-13.663514285264679
O	2.1291913146880255	-8.637700653512436	-13.033876216996108
O	-0.7753510222629627	-10.559390056332628	-10.732573182951956
O	-1.9052153837894048	-10.962698093074954	-10.471238462342583
O	-0.012691499143374863	-11.583737183738602	-11.445120508182699
O	1.1346735062127902	-11.479015635579037	-10.600407814556153
O	1.469537225533346	-12.972431407285871	-10.601083810925928
O	1.8441512937755795	-12.983176801635253	-12.048609592590413
O	2.962751854207081	-12.025843078829327	-12.26909458572271
O	1.0451687109307608	-12.69727967459141	-13.175318140929585
O	1.341317465168697	-12.336489044569912	-14.201425084852762
O	-0.3761402227138193	-13.298341542778875	-13.108115509262705
O	-0.7882442716869091	-11.970131743092754	-12.573898460592584
