81

O	-2.045061423282353	2.3286203996411765	1.5220533502313724
O	4.266131036717647	2.8490746596411767	0.1546139502313727
O	3.3199513367176468	2.4267584396411763	0.9709259802313727
O	3.524968136717647	4.316681109641177	0.2805316002313728
O	5.9595974267176475	2.9497519096411766	-0.16673090276862734
O	1.960220946717647	2.7278427696411764	0.7844460902313727
O	1.8354211367176472	3.8822509896411765	0.13829141723137273
O	6.076354806717648	2.3267942596411766	-1.8024915137686273
O	6.807341826717647	2.1075682196411765	0.6928670802313727
O	6.609367586717648	4.282470329641177	-0.23573458376862733
O	0.711443351517647	2.3301371196411766	1.1854677902313724
O	0.629581510717647	4.602448409641177	-0.018626211768627332
O	5.910507236717647	0.8921633202411765	-1.5423217927686275
O	-0.500070693282353	2.9261171696411763	1.0360699602313725
O	-0.5805847432823529	4.087231739641176	0.3467582202313727
O	4.830187006717647	0.4160293886411765	-2.3880097797686273
O	7.148870296717647	0.3017115736411765	-2.119796819768627
O	5.396858666717647	-0.5979205703588235	-3.2325670797686272
O	3.6236727667176467	0.4616399596411765	-2.131729889768627
O	6.777671936717647	-0.18861557035882348	-3.4904380897686273
O	4.784806386717648	-1.6920598303588235	-3.9230649297686275
O	5.341004946717647	-3.0132379603588233	-3.4412516297686273
O	5.215858286717648	-1.5966921703588235	-5.382760769768627
O	4.900091106717647	-4.091858560358823	-4.224857369768627
O	6.605043916717648	-2.9144862103588234	-3.2741420997686275
O	5.7027443567176475	-4.386610890358824	-5.415302809768627
O	3.996403296717647	-5.157647480358824	-3.9223866797686275
O	5.626814006717647	-5.912502680358823	-5.451726459768627
O	3.3722350167176467	-5.745779160358824	-5.151979819768627
O	4.3870771467176475	-6.367486300358824	-5.846179549768627
O	-1.185664683282353	13.101937429641175	3.4720961302313724
O	6.792416476717647	2.1462263996411766	11.980329190231373
O	-0.21060355528235297	-6.098190830358824	7.571389140231373
O	2.087121386717647	-9.074258180358823	7.000888320231373
O	4.646870926717647	-6.702360680358824	5.411176260231373
O	4.991484966717647	-4.854270450358824	8.705149780231373
O	6.595500066717648	-7.949837010358824	10.218262090231374
O	10.322122186717648	-3.815327090358824	9.090930110231373
O	7.1446825567176475	-9.433570670358824	-0.8844442915686272
O	6.9825568967176475	-9.928826370358824	-4.643615509768627
O	3.149635636717647	-9.673508570358823	-4.832450959768627
O	2.024582776717647	-8.073317650358824	-1.5215224467686272
O	-1.0706443632823528	-8.801185830358824	3.2436347802313725
O	-2.541928903282353	-9.679396070358823	6.612891950231373
O	2.735380026717647	7.8731234396411764	8.950913200231373
O	4.448833666717647	10.348250509641176	6.656075750231373
O	5.991335806717648	11.506326429641176	0.044976364231372745
O	-6.476333043282352	-2.2774896203588235	-11.933356209768627
O	-3.5730218532823534	2.447396499641177	-12.231523809768627
O	-0.571108833282353	0.09326884864117646	-11.787262009768627
O	1.754548666717647	-2.3067258903588237	-13.626265609768627
O	1.7315644347176469	-4.329379570358823	-10.422021609768628
O	-1.072885723282353	-6.8779387403588235	-10.161337559768628
O	-3.8578605232823535	-5.632875640358824	-7.915582749768627
O	-7.004803603282353	-5.899043520358823	-2.4760110697686275
O	-8.957467603282353	-2.7018627403588233	-3.1035849397686275
O	-8.097830323282352	0.8576125419411765	-4.118025109768627
O	-3.5245116332823527	9.507490599641176	0.6729693702313727
O	-2.011570503282353	7.181098939641176	3.2032444402313724
O	1.7683416167176471	6.915159629641176	3.2245469402313724
O	4.735696726717648	5.062456699641176	4.745761290231373
O	4.155891586717647	4.3226587296411765	8.403454150231372
O	0.37745355571764705	4.154419339641176	7.985614460231373
O	1.0136968157176471	0.5850064786411765	6.757950170231373
O	-5.610411383282353	-2.8336874903588236	6.104902390231373
O	-3.3054506632823535	-0.12853723235882353	4.837760650231373
O	-1.0484042232823532	-2.1656820803588235	2.4400979502313724
O	0.772647291717647	-0.5150059503588236	-0.4669575367686273
O	1.023021540717647	2.3399759196411765	-3.0923356997686273
O	3.433862346717647	3.6389832296411764	-5.556865869768627
O	4.8370502767176475	6.576790989641177	-3.6421607797686275
O	2.119490996717647	8.735323059641177	-1.8569209797686272
O	-0.671004303282353	10.834964529641177	-3.2746481197686275
O	0.808116491117647	10.542842149641176	-6.814514159768627
O	-2.098716683282353	6.317393289641176	-8.321540779768627
O	-4.236469523282353	5.156188939641176	-5.384196339768627
O	-3.8841077732823535	3.5758330396411764	-2.0043104197686272
O	-4.0294578032823525	-0.19269680035882342	-1.9578684497686272
O	-5.698320523282352	-1.9027751303588234	1.0316222402313726
O	-6.014596783282353	-5.578122140358824	2.0280051702313724
O	-9.690730913282353	-6.394855710358824	1.6346807302313726
