85

O	2.7627030903399996	0.03869397615399972	-0.9569895534000006
O	-3.2896245196600002	6.009629366154	0.12832014659999946
O	-4.73120326966	6.2002618361540005	-0.07277405540000054
O	-6.0044429396600005	5.360997146154	0.11952594659999949
O	-5.70064635966	4.632090376154	1.3752913365999995
O	-4.25949274966	4.9453206061540005	1.9448787865999992
O	-2.9121120196600003	5.384031836154	1.4142135765999995
O	-1.80515644876	4.5408300161540005	1.2352939765999995
O	-0.69543944966	5.278495876154	0.8351189165999995
O	-0.6350922196600002	6.428771086154	0.4343497965999994
O	-0.04380468966000017	4.107210326154	0.18135685259999945
O	0.33323058033999975	4.473455396154	-1.0694342334000004
O	1.28787644034	3.5718361161539995	-1.6164688234000006
O	1.91224423034	2.7707314151539997	-0.6610957674000005
O	2.2657307703399994	1.6418898571539997	-1.4983685174000005
O	3.01604970034	2.3365118434539998	-2.4117646934000003
O	2.4261389403399996	3.581107476154	-2.4415591034000004
O	1.70568182034	2.702041469154	0.6690773665999994
O	0.65896523034	3.491779116154	1.1544176165999995
O	-2.4021952246600002	5.063341746154	-0.42041202940000055
O	-2.67367741466	3.805093446154	-0.7215993014000006
O	-2.54827230166	4.381891406154	-1.8767999434000004
O	-3.58410343966	2.680636868154	-0.7569584024000006
O	-4.41962544966	2.6453646711539998	-1.8532407234000006
O	-5.08105646966	1.412521286154	-1.8129037734000006
O	-6.070743349660001	1.6437659711539998	-0.8366102564000005
O	-5.31189087966	1.567387702154	0.34274534659999945
O	-4.0752847696600005	2.1088237051539998	0.4028713065999995
O	-7.3905623596600005	0.9476086861539998	-0.9364068664000005
O	-7.55846083966	-0.3815227538460002	-1.2436423474000007
O	-8.67268359966	-0.9339371738460001	-0.6962472544000006
O	-9.76396184966	-0.36889734384600015	-1.3537367544000005
O	-9.73284028966	1.0350053961539998	-1.1980116234000007
O	-8.52529624966	1.6880715481539998	-0.9615477194000006
O	-8.49120325966	2.895809351154	-1.2731011594000006
O	10.534730640340001	8.169589786153999	-2.2886986334000006
O	3.8246611803399997	5.858400186154	11.8888377366
O	0.43652911033999975	-4.756422973846	8.3949964666
O	-2.99970408966	-5.198078243846	9.917012636599999
O	-3.9198455996600003	-1.686639363846	8.748905066599999
O	-1.1848531046600002	-0.24798026384600025	10.9677666366
O	-3.17823312966	-1.3558600238460001	14.0210102366
O	-3.31443914966	4.215900396154	13.1319053366
O	-10.40813149966	-1.6793548938460003	5.3396103865999995
O	-12.54671725966	-1.9179525838460005	2.2188850365999997
O	-10.229945319659999	-4.474096463846	0.5060938965999995
O	-6.87538726966	-4.173943823846	2.2948590766
O	-3.06241843966	-7.082579123846	5.3800105365999995
O	-0.9477794326600001	-8.872794043846	7.9475166466000005
O	7.97865568034	7.1045403861539995	5.6507900466
O	7.25299849034	10.121626926154	3.5020899965999996
O	3.7440120103399996	12.224856226154	-1.9451918934000005
O	-3.94017719966	-5.965173433846	-11.9583650634
O	-2.7156518376600003	-0.6226071138460001	-12.8416207634
O	-5.6699027196600005	-0.07266855384600035	-10.433702653400001
O	-9.45518691966	0.16238704615400001	-10.1590825134
O	-9.01949867966	-1.295083073846	-6.6914581634
O	-8.96253230966	-5.093624653846	-6.6465838834
O	-5.43907712966	-6.455350863845999	-6.3110073034
O	-0.9571037146600001	-9.086116243846	-2.8193699734000006
O	1.85136254034	-8.376920043845999	-5.2720185934
O	8.27505184034	4.059566776154	-4.2806301734000005
O	7.457485860339999	3.4395744261539996	-0.7093356604000005
O	4.69181184034	5.9504597161540005	0.7772867965999994
O	2.82914522034	6.689665396154	3.8583878966
O	4.69468102034	5.650608316154	7.0103357966
O	6.50240358034	2.864182965154	5.249209426599999
O	3.3964796703399998	0.7657867061539998	5.8158110266
O	4.75293418034	-6.3295894238459995	3.8711599465999997
O	4.492456810339999	-2.764188303846	2.7283254165999997
O	0.5821440503399999	-2.426741393846	2.3004537266
O	-0.8192044096600001	0.15877212615400005	0.006270755599999456
O	-0.72359410966	2.160236345454	-3.3948199734000006
O	-2.46331692566	5.015623646153999	-4.9684990434000005
O	-0.5035909096600002	8.078026956154	-3.9217650734000005
O	3.2278367703399997	7.5980377761539994	-3.984966343400001
O	5.38957559034	7.144563816154	-7.0335463834
O	2.58966137034	8.000833366154	-9.4660852434
O	0.92961374034	2.995876050154	-10.3530900834
O	2.9957717603399994	0.5376228061539998	-8.298407153400001
O	3.47483130034	-0.4195898038460002	-4.7073389034
O	1.24896763034	-3.1264949838460003	-3.3124183134000003
O	2.68899007034	-5.569030363846	-0.7776430734000006
O	1.05418870034	-8.330754243846002	1.2473390765999994
O	2.4393105003399995	-11.587103843846002	-0.19922474540000057
