92

O	-0.3063386733725493	-3.4148276492941187	0.4484977810392163
O	-2.469857729372549	3.8738733707058817	2.7589788820392163
O	-1.5518465286725491	3.1341488647058813	2.4610159120392163
O	-2.792068423372549	5.2058692807058815	2.2722991120392164
O	-3.4671770733725493	6.408423930705881	2.798143942039216
O	-4.78687044337255	6.5871297507058815	3.388008712039216
O	-6.03491397337255	5.4547409207058815	3.174703712039216
O	-6.648931343372549	5.111967500705882	4.4783929920392165
O	-7.257274703372548	5.495988510705882	2.372855382039216
O	-4.015917293372549	5.163359890705881	1.5636147210392162
O	-5.209218033372549	4.547883200705881	1.9706715420392162
O	-3.4962574133725495	0.5920824107058815	3.2149561120392165
O	-4.334604823372549	1.5544611307058815	2.6180230520392165
O	-2.900806243372549	-0.48668097929411847	1.2489434710392162
O	-3.180239073372549	0.7447278907058814	0.6604642030392163
O	-4.122517673372549	1.5760913567058814	1.2824143180392162
O	-2.8655456033725493	-0.4837284192941187	2.600667062039216
O	-2.7769067633725495	-1.8330845392941182	3.0689882820392165
O	-2.106419234372549	-1.4879128192941184	0.7020870190392163
O	-2.2587423213725493	-2.9077175892941183	2.427710802039216
O	-1.5670639055725493	-2.594323989294119	1.3013389310392163
O	-5.59195645337255	2.0011296027058814	3.7263455520392164
O	-6.88872404337255	2.3882623237058813	3.212445722039216
O	-4.784688163372549	2.7942657057058815	5.004684712039216
O	-3.604078893372549	3.3784826927058815	3.5359528220392162
O	-3.320007853372549	2.7389680697058814	4.866391552039216
O	-3.640585133372549	4.756020450705881	4.300902092039216
O	-6.19698723337255	1.0840686507058814	4.682718042039216
O	-3.7806571633725494	4.621653990705882	5.644795182039216
O	3.414646176627451	5.883403040705881	6.168058562039216
O	0.427180216627451	6.003653280705882	3.9730071320392164
O	1.7367212966274508	6.513044900705881	4.425156872039216
O	2.7871323266274506	5.741431530705881	4.915301502039216
O	-0.8122291943725493	6.656878400705882	4.254718152039216
O	1.5677268066274506	7.556537450705881	5.336730732039216
O	0.1252081866274508	4.786302090705881	4.615001942039216
O	-2.4518142533725493	4.500293150705882	4.918829462039216
O	-1.9583905923725493	6.092219280705882	5.108701282039216
O	2.5444822566274508	6.392593540705882	7.096920082039216
O	2.134312406627451	7.613709570705882	6.623324132039216
O	-1.1409886833725493	4.502707840705881	5.330589102039216
O	-7.747476133372549	-10.547458169294117	3.857664352039216
O	-11.29086476337255	1.1006869807058814	-6.4600098879607835
O	0.18081938662745078	2.4700282857058813	-8.489579567960783
O	0.6812772466274506	6.202137110705881	-8.956924107960784
O	-1.4952154223725493	6.791344220705882	-5.939147667960784
O	-4.476420913372549	5.1265659307058815	-7.719950707960784
O	-4.51179193337255	8.084275210705881	-10.117896267960784
O	-5.75397795337255	10.289747250705881	-7.256199807960783
O	-8.778324523372548	8.131276710705881	-6.367635027960784
O	1.7289276766274506	11.442555540705882	-1.1791411079607839
O	3.9272553166274506	12.181275300705881	1.8532515050392164
O	6.532365026627451	9.420564010705881	1.0379432630392162
O	4.4821323066274505	6.955576650705882	-1.2158424079607837
O	4.456882506627451	4.493582710705882	-6.365286247960784
O	4.189874856627451	3.3695000857058814	-9.984054067960784
O	-10.26860767337255	-5.061984899294119	-2.1022924279607835
O	-11.56062073337255	-5.1683655192941185	1.4483949720392162
O	-9.70047660337255	-4.119694749294118	7.960909902039217
O	7.467275496627451	0.8662710607058814	10.570434342039217
O	8.41062306662745	4.418053580705881	11.617379032039215
O	7.70591002662745	5.486994590705882	8.005838472039216
O	10.665463666627451	5.314327650705882	5.677386262039216
O	10.47885056662745	2.1413581447058814	3.6643120920392165
O	9.60110226662745	-0.7262423692941185	-1.7322692379607836
O	9.38043566662745	-4.147595929294119	-0.1453021979607838
O	-2.788971383372549	-9.33628256929412	3.8617284220392163
O	-3.8181765733725492	-6.999923429294118	1.1063403750392162
O	-6.103770733372549	-4.071117129294119	2.0327172920392163
O	-7.87144131337255	-1.0631557692941187	0.6614929150392163
O	-8.987861793372549	-1.5129260492941183	-2.9386019679607838
O	-6.178508283372549	-3.8262662392941182	-3.545634267960784
O	-4.008649413372549	-0.7353517592941188	-4.0757466279607835
O	-2.3522635103725493	-0.8507389192941184	-7.489109607960783
O	5.2631547766274505	-5.885952309294118	-6.842590587960784
O	2.5247699366274508	-3.2844564992941185	-6.961856477960784
O	0.1914798266274509	-3.158607759294118	-3.955357067960784
O	1.1401845766274508	0.2724408507058813	-2.3944784179607836
O	0.3916636266274507	0.8888751407058815	1.3570687410392162
O	0.1700433266274508	-0.7709939292941184	4.871583842039216
O	-0.5791080133725492	0.16008906070588136	8.430419012039216
O	-4.214960743372549	-1.1136427392941184	8.549388872039216
O	-4.633228333372549	-4.581774989294119	7.1264443720392165
O	-3.2256315533725495	-7.663796769294119	8.560945032039216
O	-2.1145810753725494	-5.988898649294119	11.821113332039216
O	2.8545537166274504	-4.786628279294119	10.269069422039216
O	3.234649036627451	-5.836294109294118	6.648781162039216
O	2.0509104266274507	-4.992672869294118	3.2053447020392163
O	4.158751416627451	-2.3751329492941187	1.4285407790392162
O	4.699456296627451	-2.9908079292941183	-2.3076454979607837
O	6.41589846662745	-0.9894210292941183	-5.000171837960783
O	9.47621886662745	-3.0213417692941187	-6.081769367960784
