81

O	3.2437666033686265	-0.8950668680980389	1.3073052671176466
O	-1.685083819631373	1.602327304901961	4.564818048117647
O	-0.6965857666313731	1.169581289901961	5.247353428117647
O	-0.9472169466313731	1.591817763901961	3.3824739481176467
O	-3.080358392631373	2.193263611901961	5.378972008117646
O	0.18093292336862676	0.9295871629019611	3.3001595881176464
O	0.3929101633686267	0.5621828649019611	4.650152698117647
O	-4.445001136631373	1.4155912099019612	4.632817158117646
O	-3.3172757066313734	3.656549981901961	5.304911498117646
O	-3.170502468631373	1.824872473901961	6.823709278117646
O	1.296470433368627	0.714460582901961	2.423694288117647
O	0.9549928333686268	-0.769249008098039	4.597860428117647
O	-4.592527936631373	2.1258517019019614	3.3625977881176468
O	1.9800851233686267	-0.37781848809803886	2.3712279181176465
O	1.9618396733686265	-0.9863580980980391	3.7121190381176468
O	-4.581943786631373	1.088557860201961	2.325546778117647
O	-6.021260766631373	2.5767490719019612	3.3568508981176466
O	-5.9353821466313725	0.7874298369019611	1.9647534081176468
O	-3.661279616631373	0.28530355790196105	2.1435977681176466
O	-6.863378886631374	1.4378820559019612	2.852828208117647
O	-6.279100206631373	0.14510859090196104	0.7342492511176467
O	-6.813650296631373	1.121610023701961	-0.2926630628823532
O	-7.450352906631373	-0.7867291680980388	1.0274444481176468
O	-7.420312526631372	0.46402613290196115	-1.3832910318823535
O	-7.500905316631373	2.0235933829019612	0.2979120111176467
O	-7.051917496631374	0.48690475990196114	-2.7710668418823534
O	-8.856721176631373	0.19590888090196112	-1.2271659218823534
O	-7.750438696631374	-0.6163967780980388	-3.5095955318823533
O	-9.400033176631373	0.6590706339019611	-2.5780684418823534
O	-9.085302186631374	-0.2671526780980389	-3.5507804018823537
O	7.645845003368628	-1.255069718098039	11.183643228117647
O	3.674361393368627	12.71255496190196	4.446164218117647
O	2.800672623368627	7.254325001901961	-5.8617555818823535
O	-0.2045235266313732	8.87676872190196	-7.509392151882354
O	-2.139781598431373	8.563439881901962	-4.236519671882354
O	0.36590025336862686	10.84755853190196	-2.5294595418823533
O	-0.8877891266313731	13.72310806190196	-4.670189351882353
O	-2.7293719316313734	13.947968161901962	0.7278548501176467
O	-8.813514156631372	5.829520751901962	-5.447762221882353
O	-11.259388766631373	2.9434380719019613	-5.787289211882354
O	-8.645926956631373	0.49537493590196113	-7.176053691882354
O	-5.211931626631373	2.0041990579019613	-6.330760401882354
O	-0.3247841466313732	4.070180451901962	-8.493991071882354
O	2.5131718433686268	6.030050701901962	-10.039233471882353
O	6.555887463368627	6.576994591901961	7.9768110381176465
O	4.803328153368627	5.180496021901961	11.023938128117647
O	-0.04335119663137332	0.6691962479019611	12.977293828117647
O	-3.902142496631373	-12.449609138098038	-4.431941311882353
O	-4.410430736631373	-12.15819793809804	1.0964539591176468
O	-7.0339050366313725	-9.490386438098039	0.2519234151176467
O	-10.642484336631373	-8.95256923809804	-0.8330766418823533
O	-9.320346306631373	-5.985169358098039	-2.7823583218823535
O	-8.131132696631374	-6.773995388098038	-6.294121861882354
O	-4.358321746631374	-6.99103526809804	-6.491059801882353
O	1.160123983368627	-4.52528517809804	-8.259014471882354
O	3.2420772233686272	-6.96652081809804	-6.228742011882353
O	3.279918593368627	-8.12527133809804	-2.5912288818823535
O	6.169916083368628	-3.863738988098039	7.031376758117647
O	5.9462365033686275	-0.4573178980980388	5.5007059581176465
O	3.2475186633686266	1.817950327901961	6.863166788117646
O	1.491670343368627	5.135024311901962	6.4323177181176465
O	3.9731647433686272	7.862124991901961	5.4102421281176465
O	6.284821693368627	5.39823772190196	3.6352047181176466
O	3.7896624633686264	5.661879521901961	0.7350569811176467
O	6.730597813368627	2.1546668319019613	-5.184734991882354
O	5.249085133368627	1.8159580439019611	-1.6684638918823533
O	1.487173953368627	1.817096043901961	-2.4689055118823533
O	-1.0042909766313732	0.18625845890196113	-0.12595303888235332
O	-1.755061662631373	-2.299649128098039	2.7055061681176467
O	-4.5653767166313735	-3.1892956480980392	4.932102998117647
O	-3.224037246631373	-1.5839940880980388	8.073600768117647
O	0.45580158336862686	-2.344316498098039	8.825431828117647
O	2.193687623368627	-5.608100118098038	9.623395458117647
O	-1.152859556631373	-7.420862738098039	10.085099608117646
O	-1.5785878156313733	-9.23250953809804	5.076715038117647
O	1.3559995333686268	-7.95305783809804	3.0012026781176466
O	2.660514373368627	-4.717870478098039	1.6267258681176466
O	1.4775688933686268	-3.8384341580980386	-1.8595917118823535
O	3.9035111933686273	-2.054430638098039	-4.217158041882353
O	3.4535368933686272	-0.550810478098039	-7.684830891882353
O	5.4275863433686276	-2.786872358098039	-10.038346371882353
