80

O	0.5283382543125004	-1.39125309925	1.7796358171583335
O	-5.041863185687499	2.4926184877499997	-4.695058962841666
O	-3.7457692256875	2.29761934075	-5.371754102841667
O	-4.1138871256875	2.35219604675	-6.780288842841666
O	-4.2584823456875	3.82291065075	-7.188957792841666
O	-5.5100640556875	4.28754627075	-6.446682502841666
O	-5.5515214456874995	3.83497749075	-5.022661242841666
O	-4.5474864056875	2.08706895605	-3.4628278828416663
O	-2.5339001856874996	2.87181386675	-4.905820932841666
O	-3.4251915256874996	2.68149474775	-2.8962940828416666
O	-2.6583600356874997	1.84344320075	-2.0419866488416667
O	-3.3363943556874998	1.42754651175	-0.9711711858416665
O	-3.0797344956874997	0.10407207075000002	-0.5398050078416666
O	-1.9429782396874997	-0.22980320924999997	-1.3767138101416665
O	-2.2094326566874996	0.4965468207499999	-2.4871105228416663
O	-0.8759507656874996	-0.8303926692500001	-0.5920999068416666
O	-0.7792782136874996	-1.0774376292499999	0.6762171371583332
O	-1.9769211046874997	-0.87391129925	1.4430229371583334
O	-2.9299269956874996	-0.0954530792499999	0.9050522471583335
O	-3.5773787656874996	3.85573331075	-2.6480711128416665
O	-1.9623694676874996	4.14546468075	-4.913443482841666
O	-0.9183121096874997	4.75690889075	-4.100718742841667
O	0.3195347943125004	4.36327809075	-3.8949355028416663
O	1.2167371443125001	5.33634845075	-4.252313702841667
O	1.0533856643125004	6.42823352075	-3.3841441728416664
O	-0.6867273536874997	6.317501490750001	-3.3861272028416667
O	2.2703013543125	7.3035680007499995	-3.3255006728416667
O	2.7181041343125	7.82841924075	-4.5706326928416665
O	2.2838875343125	6.96732590075	-5.629722512841666
O	2.4625258643125	5.53707974075	-5.107649282841667
O	2.5989961243125004	9.23308398075	-4.811455882841667
O	-2.7406950856874994	5.0584460807500005	-5.341702412841666
O	-9.9923260556875	-5.08144607925	3.696041387158334
O	-11.7348445256875	-6.54696015925	6.700724577158334
O	-1.2654918536874997	-9.34628070925	-8.937131562841667
O	8.363190154312502	-5.766438229249999	-3.2929500428416665
O	10.485333674312502	-4.156714759250001	-6.023776802841667
O	7.3844192243124995	-2.3441111192500004	-7.349483042841666
O	5.7557622343125	-5.716403629249999	-8.106355712841667
O	8.360687284312501	-6.21630405925	-10.833222912841666
O	3.2492852243125006	-4.907415619250001	-12.879938722841667
O	8.759030174312501	4.78941862075	-8.523960522841667
O	8.933304774312502	8.43274359075	-7.427060272841667
O	8.7261265743125	3.93425310075	-3.3306849828416665
O	10.774153074312501	-1.3297684092500002	-2.0129538618416665
O	-5.7555493756875	-8.40299870925	-2.9253723428416665
O	-8.7944203156875	-6.202570129249999	-3.1344190828416663
O	-11.9725936256875	-2.7680286092500004	-0.23997554284166656
O	-10.970335105687498	0.28407704074999995	-2.2202662598416665
O	-12.611104125687499	-0.7057537592500003	-5.565640362841666
O	5.0545049543125	10.63156593075	9.126089177158333
O	-0.33118591568749967	10.943648500750001	7.903316647158333
O	1.0439177143125005	11.71058720075	4.380823037158334
O	2.4932617043125003	14.46866379075	2.1914069471583337
O	4.6082427843125	11.71663493075	0.6094761371583333
O	6.847490184312501	1.72134171175	8.653065977158333
O	3.1060200843125	2.28759030775	9.097348877158332
O	-6.1285721356875	-2.38939003925	5.659109487158334
O	-4.191446745687499	-4.187591909250001	3.0282255571583336
O	-5.0223806856875	-3.0179864792499997	-0.6007035538416666
O	-3.9807975556874995	-3.26406276925	-4.177131392841667
O	-2.8581371956874997	-6.87215203925	-4.964728552841667
O	-1.6200261156874998	-7.588752069249999	-1.3882489134416667
O	1.5389401643125005	-5.741417639250001	-2.4568603028416667
O	6.665307294312501	-6.230769509249999	2.9342575771583332
O	3.2574839343125	-4.80525261925	1.8794577771583334
O	4.3594556643125	-1.68158002925	-0.03262835284166665
O	1.8830752643125004	1.38350971175	-0.6162520168416666
O	-0.9944006546874997	3.3856458307499997	0.8214739271583336
O	-3.1074087856874995	6.36882369075	0.003820507158333486
O	-6.2313509956874995	4.42874841075	-1.0568477548416666
O	-7.1880754956874995	1.52014127375	0.9615129771583335
O	-8.5055461856875	1.85755691975	4.541837427158334
O	-8.9588722456875	5.64462712075	4.352366197158334
O	-4.1853615656875	6.9754931007500005	6.430042977158334
O	-2.2111143196875	3.81088160075	7.075430967158334
O	-0.5768653716874996	0.97290566075	5.256145647158333
O	3.0607736543125004	1.50089990375	4.403298557158334
O	5.4172935843125005	-1.5171735492500003	4.670255337158333
O	9.061147574312502	-1.98243531925	3.7210651871583336
