75

O	0.489975739086957	-1.8300957560869562	3.896872188502174
O	3.610317129086957	-1.9590625760869562	-5.219096561497826
O	3.053559829086957	-1.7219615560869563	-3.8917593814978266
O	2.191157469086957	-0.6137988160869562	-3.811763551497827
O	1.8220226290869568	0.21088914491304372	-4.812687561497826
O	2.539997649086957	-0.029014643086956227	-6.006497301497826
O	3.588475759086957	-0.9646718160869562	-6.185984561497826
O	2.379814229086957	-0.5353830760869563	-2.3527634864978264
O	2.758120519086957	-1.5580044560869561	-1.5122581514978266
O	2.019583889086957	-2.7085240360869562	-1.4682896934978267
O	1.6556132290869567	-2.623930286086956	-0.034954641497826566
O	1.221903899086957	-2.9539591760869564	-2.3821228334978266
O	0.474002049086957	-0.27329074208695625	-4.596325981497826
O	-0.221039497913043	-0.05547853708695627	-5.868823211497826
O	-1.2477774599130431	0.8278673919130437	-6.302383871497827
O	0.332925139086957	-0.8505393560869562	-6.7147708614978265
O	1.1075744890869568	-1.3428418660869563	0.9820240385021732
O	0.670634039086957	-2.241242236086956	2.2759813485021736
O	1.0134530690869568	-3.4935901660869564	1.8520469685021734
O	1.1770287590869568	-3.7283035060869563	0.5309282985021733
O	-1.1006935649130432	2.0287665339130436	-5.765337641497826
O	-2.026392110913043	2.924350303913044	-6.3326804514978265
O	-3.322828020913043	2.4339087039130436	-6.140339971497826
O	-2.933835580913043	0.8119639939130437	-6.270810161497827
O	-4.333075720913043	3.595539063913044	-6.466748851497826
O	-4.194246620913043	4.0389024239130435	-7.813934351497826
O	-2.763295480913043	4.273589083913044	-8.017923631497826
O	-2.3330885509130432	4.3886760039130435	-6.537611711497826
O	-4.682676820913043	3.3136115639130437	-8.918351651497828
O	6.421892119086957	-10.609303106086957	2.1537345585021734
O	6.491798679086957	-13.479794506086957	4.5868498185021735
O	4.1469536390869575	8.847259213913043	4.109614838502174
O	3.634267879086957	11.939282893913044	1.9115785785021735
O	4.110260579086956	9.760639973913044	-1.1922546204978266
O	7.668916559086956	8.935137663913043	-0.013190041497826543
O	8.580373719086957	12.578351293913043	-0.6959088914978266
O	10.641918669086957	9.017116173913044	-4.547208021497827
O	-1.225216238913043	10.703351993913044	-6.395958211497827
O	-4.500047170913043	10.123429313913043	-7.963429231497827
O	-3.309068310913043	8.634947063913044	-2.0420395644978266
O	-0.7749611619130431	10.074646773913043	2.9181985785021736
O	11.033168369086956	-3.5271878260869562	1.4866403385021736
O	10.605793069086957	-6.212231696086957	-1.1450007164978264
O	5.858466499086957	-9.059882696086957	-5.426831641497826
O	-13.847911130913044	-0.9759441360869562	0.5565307185021735
O	-11.458228930913043	-5.056654676086956	-2.288171654497827
O	-10.421080080913043	-2.139877876086956	-4.7050447714978265
O	-11.430019630913044	0.07393706691304369	-7.665299701497826
O	-9.476965910913043	2.8016202439130438	-6.032018271497827
O	-10.324420390913044	3.669193363913044	0.15925697850217335
O	-7.110473580913043	4.728024063913043	5.495995668502173
O	-7.442400500913044	1.2116652509130437	6.944475918502174
O	-6.824055330913042	-2.2516907960869563	5.534214678502174
O	1.958923079086957	-8.343363156086957	3.2510423485021738
O	4.092963589086956	-5.236271126086956	2.9267317585021733
O	5.305832679086956	-4.209977896086957	-0.40914397149782666
O	7.336343429086957	-1.6620998260869562	-1.9333410354978267
O	10.018257869086957	-0.04172671108695625	0.17307874850217342
O	8.064242879086956	-0.7054525560869563	3.3613170185021737
O	6.159665549086958	2.469873583913044	2.537274608502174
O	2.469011649086957	1.8091907839130439	5.356046378502174
O	0.792782759086957	3.504622663913044	2.3799236685021734
O	-0.2880739049130431	1.3624625319130437	-0.6069803014978266
O	-1.639859455913043	-1.9529332060869562	-2.0222793644978267
O	-2.550871690913043	-3.444582256086956	-5.361417271497826
O	0.47301134908695697	-5.558537556086956	-5.755702561497826
O	1.758062489086957	-7.368003726086956	-2.6896323914978266
O	0.05794314908695686	-10.261375306086956	-0.9607835544978266
O	-2.502775550913043	-10.759481606086956	-3.7520465014978264
O	-6.364192080913043	-7.636573276086956	-1.6762624225978267
O	-5.021400300913044	-6.055435236086956	1.5251758785021734
O	-2.5229421809130432	-3.5569151660869562	2.573460908502174
O	-3.592367650913043	0.005473760913043746	2.863836648502174
O	-2.2978092409130433	2.0892370339130437	5.808970038502173
O	-2.755709820913043	5.7658332139130435	6.665996038502173
