38

O	6.8760945272594896	-3.740902194262734	-13.108317273948142
O	3.3120762398339383	-7.671969763594394	-15.48582280285948
O	3.889929504621027	-8.761546829487603	-16.147606899952354
O	5.383145144292539	-7.041336947744109	-14.738519395421124
O	5.522404610898742	-8.407062097902811	-14.50988659733098
O	4.796443690109051	-9.307790448282873	-15.217296550606518
O	4.2036563975974675	-6.669876585032416	-15.189734077147385
O	4.177685038257685	-5.321476866625263	-15.600039800008062
O	6.259411004281748	-6.0431559489429905	-14.32158836280864
O	5.078573689086191	-4.3397736899665835	-15.188559784519208
O	5.997550315789448	-4.7016193628096765	-14.26093091680646
O	2.8015160870793507	-9.933886819365757	-16.863535379315543
O	1.4818982197343198	-9.323377241987739	-17.067808485844505
O	3.3252701284217294	-10.301939673945858	-18.176842169456435
O	2.4622642749099573	-10.506454441703225	-13.60687581087621
O	2.685545315020689	-9.666946720415446	-12.662505578031785
O	3.2376268132221693	-10.924870715626813	-14.738146763742785
O	2.5065526524611155	-11.279800860516811	-15.897519963397208
O	0.5091239117958866	-11.695394318302814	-14.310482027546994
O	0.9799491248250813	-12.854859083188106	-13.912340245988446
O	1.518515463437366	-13.39313880090959	-12.813248457392941
O	0.7153446635501055	-14.269577825796546	-12.045128854337918
O	1.162646470604865	-11.729086349591576	-15.747565443143134
O	1.3177301955944953	-10.329131207981543	-14.310331326110969
O	0.2011321900521672	-9.479583645967761	-14.157878256853621
O	-2.667908366035176	-10.136727252133287	-7.301522135989629
O	-0.8624933653443589	-10.945496701112162	-10.491432438366138
O	-1.6514447147572877	-10.42519153233185	-9.422266860199315
O	-1.6740140726107802	-10.726089254374084	-8.107288623515515
O	-1.459647208638704	-11.793600857528123	-11.51656810574209
O	-2.955605788813063	-10.102381561239273	-9.890785511767264
O	0.4851372348510008	-10.925290625331474	-10.800582492164253
O	-0.5436687091992942	-10.377048778749	-13.108242005829155
O	-0.07372452840459687	-10.471350754224682	-14.492779655061609
O	-1.0797436242757383	-11.657338833602076	-13.087957498285277
O	-3.8323537120780458	-9.718569413512311	-7.796193974144046
O	-3.892645795624558	-9.49490068481861	-9.112195397180805
O	0.6717804655866368	-10.981905726526248	-12.37828462997226
