39

O	6.722635223357416	-3.851911823883763	-13.8086860757617
O	2.1771571693378173	-12.00595904813797	-15.881374963592446
O	-0.6666920640699594	-10.35273257417105	-9.25455036751495
O	4.29570203885745	-6.680854804941043	-15.951464746089803
O	5.7936790481372125	-6.556307617612598	-15.15720236296357
O	1.170164846509452	-11.206010318215194	-16.319272963430205
O	3.401776483023095	-7.631653631283603	-16.550918474301398
O	-1.9951520587447726	-10.43377290877454	-9.569330376464869
O	0.28223752613680286	-9.970242758133743	-10.27638795990348
O	5.929493450686344	-4.815754412502278	-15.069713938339264
O	0.5103956001865484	-10.564390659219887	-15.25520475775744
O	-0.2777638037514416	-9.354630616959582	-11.353899101836191
O	2.6921181521036	-10.328878994188445	-14.753143901028228
O	3.6294544141981606	-8.895654580296299	-17.04622316379817
O	4.2088262966712815	-5.394593499930915	-16.49581995313413
O	2.3685860018203426	-9.202426324978521	-14.119861288279122
O	2.196744168534566	-11.83581093640904	-14.497285426263666
O	2.99858600745543	-10.095845093994132	-17.09868029394665
O	1.7480298290070597	-9.335450734355575	-12.810961396648407
O	0.5097012167241886	-8.82261487838581	-12.441093935352116
O	1.6314498517194482	-10.330560542338263	-17.37279442813795
O	3.296745261142946	-11.399809532664367	-16.51779645026278
O	5.0458677456085805	-4.485105956169047	-16.005611238934325
O	-0.008875011701913849	-11.285242788158051	-14.203615518843922
O	-0.4183410607491824	-10.721538796551485	-7.966050951804641
O	-1.8509047330753257	-12.139851879882206	-12.474656470587975
O	-2.9774464232008224	-13.083800487034488	-13.010227327207323
O	-1.6612086414023794	-13.587432583738483	-12.609294873466988
O	-2.811872894965335	-11.319334505193847	-8.936770470406909
O	2.155503101884193	-7.390636528654106	-16.539161764062424
O	-2.353607077723608	-9.84666863704177	-10.597991155090554
O	1.274535728552049	-10.787620271214871	-10.808989227146803
O	0.1946591280578911	-9.522517504742021	-15.707166417273548
O	3.8852368337669816	-10.4696421551041	-14.645702783226499
O	2.117180924193499	-10.091944112674772	-11.712287264602589
O	-0.9407085961890589	-12.035658527341141	-7.789524285955366
O	-2.3175836083093655	-11.77626826166739	-7.703504021570026
O	-1.3965941728378368	-11.29542765853496	-13.620123405785321
O	-0.47711613740569003	-8.456375070457689	-13.262188694543465
