79

O	0.17327367252083323	4.243486596666667	-0.6571411761041668
O	3.7840586505208336	-1.0213885733333334	5.672336773895833
O	1.837059970520833	2.0681371766666663	0.9955773508958333
O	2.8269236805208333	-2.0118519933333334	6.020746563895833
O	4.630003880520833	-1.7178182233333334	4.753897323895833
O	3.0614768805208334	-0.14248557633333353	4.807126993895833
O	2.9927435505208333	-3.3274089833333336	5.376039843895834
O	1.444081740520833	-1.7877915333333336	6.362765763895833
O	4.373288470520833	-3.0112110133333334	5.192341643895833
O	4.088849180520833	-1.7946774033333335	3.3983668538958334
O	1.677268200520833	-0.22616410133333353	4.648563293895833
O	1.6373012005208332	1.1188722666666664	4.3815232938958335
O	1.7044989905208332	-3.3214649533333334	4.762345383895833
O	0.8277286955208333	-2.9907683733333337	5.8516803638958335
O	0.7511572105208333	-1.0901376533333336	7.112675133895833
O	4.863869710520833	-3.8355038233333336	4.073854533895833
O	3.7553370305208333	-3.3084191933333336	3.1378480638958335
O	3.4274942905208334	0.5089573446666664	3.7172440238958337
O	2.770629290520833	1.6835187266666665	3.884071503895833
O	1.020125590520833	-3.7746354233333337	3.832245753895833
O	0.10193802852083322	-3.8504538333333334	6.783777813895833
O	2.440830370520833	2.4188881766666666	2.5748248888958334
O	-1.077948339479167	-2.8489991233333334	6.875430493895833
O	2.050699770520833	3.7139038266666664	2.6590381238958334
O	-2.1221412394791668	-3.9131447833333337	6.982779983895833
O	1.6958285605208332	4.386724276666666	1.5686312309958332
O	1.3856966205208332	3.6518856266666666	0.4753936038958333
O	-2.0271845394791668	-4.614644983333333	5.730251853895833
O	-0.9966139834791667	-5.5702486533333335	5.6164568538958335
O	-2.2928615694791668	-3.7114189033333336	4.675203093895833
O	-3.277034009479167	-5.447895503333333	5.755000033895833
O	8.699464130520834	10.721857816666667	0.9940083218958333
O	11.386626370520833	-4.6017656633333335	-2.5825302661041665
O	0.3954724845208332	-5.399629603333333	-6.465416306104167
O	-0.7696114104791667	-8.873451053333334	-5.435548426104167
O	0.7394591865208332	-8.279737313333333	-1.9852657861041665
O	4.203714550520833	-7.9905319933333345	-3.672792646104167
O	3.9976142405208335	-11.689006583333335	-4.453593196104167
O	4.256406790520833	-12.511738083333334	-0.7250949261041668
O	7.526790520520833	-10.599114383333333	-0.2387247661041667
O	-4.183543829479167	-10.117682883333334	3.2360484038958335
O	-7.109784959479167	-9.329260833333334	5.550870833895833
O	-8.780535999479167	-6.764323473333334	3.1611440638958332
O	-5.891983059479167	-5.725648203333334	0.7993662428958334
O	-4.478840089479167	-5.773629293333334	-4.742635526104167
O	-3.4173468594791667	-6.403537563333334	-8.318774556104167
O	10.955448470520833	2.8529826166666665	-1.3383139761041665
O	11.651414070520834	4.443908586666666	2.0101675568958335
O	8.547628190520834	6.552511306666666	7.815546643895833
O	-9.124461119479166	4.782727316666666	8.409837223895833
O	-10.729415029479167	2.0992561266666665	10.578390273895833
O	-9.755586869479167	-0.3267072963333335	7.798341943895833
O	-12.362832929479167	-0.6234137173333335	5.033677433895833
O	-11.369336329479166	1.3385102566666665	1.9545978108958333
O	-9.167316279479166	1.4872487166666666	-3.9116988561041666
O	3.6566647905208334	10.232307916666667	0.2865982138958334
O	4.642545360520833	6.817109336666666	-0.9163201261041667
O	6.081925800520833	4.336520526666666	1.6798261340958334
O	7.390855980520833	0.8765328546666665	2.0689363198958333
O	9.087966100520834	-0.5051050653333335	-0.9831001961041668
O	7.028447490520833	1.7095307466666665	-3.2498989161041667
O	4.299484600520833	-1.0330013333333334	-2.8031824561041665
O	3.3824071105208335	-2.2769528733333337	-6.413723466104168
O	-3.1435964694791667	3.3297627666666663	-9.579959926104166
O	-0.9824967334791668	0.6460919836666664	-8.033848836104166
O	0.7799542445208333	1.5943651666666665	-4.8167649561041666
O	-0.9937848934791668	-0.6426906343333335	-2.1471548561041667
O	-1.043650889479167	0.31472670766666644	1.5592130836958333
O	-1.2431335694791668	3.3917342966666664	4.030408843895834
O	-1.2442383294791668	3.8535710066666664	7.784430683895833
O	2.5022938905208334	4.699783006666667	8.205440203895833
O	3.9066977405208334	7.095764366666666	5.654328753895833
O	2.9763455205208333	10.759308916666667	5.226516743895833
O	0.9719961105208333	10.880844216666667	8.492598133895834
O	-1.8553651094791668	6.674969186666667	0.34234540389583334
O	-4.098966509479167	3.7493861566666666	-0.6208660961041665
O	-3.883964979479167	2.6990525466666666	-4.305943926104167
O	-5.512039619479167	-0.07011877933333352	-6.244459256104167
O	-7.925791879479167	1.5966821766666666	-8.687027026104166
