87

O	-3.5280898479339995	0.3126496660732001	-0.6590532719719997
O	3.4461139320660004	0.43658253107320005	6.079017098028
O	6.365845462066	-0.9535805389268	2.837571868028
O	3.430855432066	-1.5877017419268	4.9113204280280005
O	7.898301182066	0.45727603007320006	4.196446908028
O	6.765894762066001	-3.4202664319268	4.601182008028
O	5.1250020920659995	1.1361780480732	3.9207444580280004
O	3.568329452066	-0.17507271092679993	4.7464862880280005
O	3.1655743920660004	-3.9964873819268	3.6041169680280003
O	1.0293375340660003	-5.522730311926799	4.486840358028
O	3.7598810820660002	-2.2889361119268	6.095383688028001
O	6.0820102620659995	-3.8310924419268	6.276699538028
O	1.9511483520660002	-6.229764911926799	2.5437149180280003
O	3.181172762066	-3.6745145019268	5.830806658028001
O	5.5791965620660005	-1.0105616519268	4.007758048028
O	1.9621166520660003	-1.6411285119268	3.051471578028
O	2.443653742066	-3.3786071419268	4.644766798028
O	4.486736262066	-4.065455891926799	3.981340268028
O	5.5675722120660005	-3.9342397019268	4.909429568028001
O	0.6994770582660003	-4.000274171926799	2.409055428028
O	1.0054467510660003	-3.8988354419268	1.0565952589280003
O	0.28502545306600024	-3.0126033419268	0.3225762260280003
O	-0.9458233079339997	-2.4824580819268	0.6978965800280003
O	-1.7725795579339998	-1.7285518319268	-0.12617653197199985
O	-2.8744649879339996	-1.0051938019268	0.2703801460280002
O	-3.425961667934	-1.5597525319268	1.3747750920280002
O	-2.6042186579339996	-2.2763326319268	2.2012413280280003
O	-1.2582927779339996	-2.6270905419268	1.9779937510280003
O	-0.5514174879339997	-3.5722492019268	2.6804760880280005
O	2.2953206920660003	-2.0389495519268	4.208463238028
O	4.636014202066001	0.03036453867320008	3.8188508780280004
O	6.137700382066001	-0.8384340489267998	5.381825708028
O	6.1209589020660005	0.49528604307320007	5.7355776080280005
O	7.427771682066	1.1899134280732	5.336267158028001
O	8.598959512066001	-0.7513626969267999	4.515784198028
O	7.079498442066001	0.42108471507320006	3.0330014780280004
O	1.8616581220660002	-4.9955945919268	3.3141735080280004
O	-11.469312237934	-7.260670281926799	1.2270531766280002
O	1.6881051020660003	-11.3025798619268	-6.767374541972
O	3.9673516020660005	0.04438150641320008	-8.389357601972
O	7.742255552066	0.29517954607320007	-8.064048391972
O	7.555262002066	-1.9163164519268	-4.9576399219719995
O	6.168807382065999	-4.747338461926799	-7.058686451971999
O	9.536859242065999	-5.009251821926799	-8.796964741972
O	11.042869262066	-6.344456301926799	-5.559515431972001
O	8.578433072066	-9.2044385419268	-5.1097447419719995
O	11.622389962066	1.0805863980732	0.34132264902800025
O	11.944157362065999	3.0785944080732	3.587515038028
O	9.386508722065999	5.675990388073201	2.4464101480280003
O	7.2894702820660005	4.0350857780732	-0.36386502197199966
O	5.755720442066	4.238355918073201	-5.923555401971999
O	5.359938392066001	3.9923023780732	-9.670945691972
O	-5.1716751879339995	-9.961080561926801	-3.764048691972
O	-5.929682317934001	-11.2637964619268	-0.2970831819719997
O	-5.652117877934	-9.6061876519268	6.337269198028
O	-4.213119187934	7.954211748073201	10.207348758028001
O	-0.5122312879339996	6.9162449780732	10.241183358028001
O	2.8806976720660002	7.3584536480732	11.982047708028
O	4.487895032066	6.6692492980732005	8.601489198028
O	4.856489162066	9.7467508080732	6.441654578028
O	2.0989004420660002	10.0077187880732	3.8346551380280003
O	0.05319312506600027	9.639569308073199	-2.152827061972
O	-3.6516281379339994	9.6819602980732	-1.3028691419719998
O	-10.052185137934	-2.3480308819268	1.5275053440280002
O	-7.398645687934	-3.4596380819268	-0.8763835919719996
O	-4.724624557934	-5.8873873819268	0.5275462900280002
O	-1.5052473479339996	-7.651546531926799	-0.2435045919719998
O	-1.4917726779339997	-8.8161602319268	-3.9166907819719996
O	-3.644936347934	-5.919238721926799	-5.016302331972
O	-0.44333198793399964	-3.8735253519268	-4.957286151971999
O	-1.8613571279339998	2.7908081580732	-8.014932551971999
O	-2.5038527079339996	0.4275181840732001	-5.122785621972
O	0.5782976156660002	1.1764131480732	-2.954129431972
O	0.6405888701660003	0.4611309840732001	0.9182145590280002
O	-1.5413513679339998	0.14520786907320007	4.120712198028
O	-1.0741640279339997	-0.9191701349268	7.556185278028
O	-2.5802722979339996	-4.380910291926799	7.404137588028
O	-5.8524109479340005	-4.552928351926799	5.506752738028
O	-9.141520387934	-3.0245415019268	6.436925618028001
O	-7.950162327934001	-2.0871740819268	9.950318438028
O	-6.346851137933999	2.8635888080732	8.750732388028
O	-6.835004337934	3.4434537280732	5.0199496680280005
O	-5.426138517934	2.2640265180732	1.7640436250280003
O	-2.660744747934	4.3626799380732	0.3854038010280002
O	-2.416043867934	4.8968772080732	-3.3522551619719994
O	0.20267675406600028	6.5457754980732	-5.577779911972
O	-1.3864832679339996	9.7442527080732	-6.905800331971999
