38

O	6.421678049828335	-3.3798947944084725	-13.277588266315787
O	0.3093873297979215	-12.036888463370191	-11.987430579175541
O	-4.046025375198025	-9.56213481781251	-7.8649527629644975
O	-0.6719709911879788	-9.64140211770039	-9.059966090305291
O	-1.7653460242282524	-10.237990818019577	-8.364288652553277
O	-2.740529444690389	-9.269221774759277	-8.102028857583626
O	-0.9429879489642632	-9.04659884003546	-10.368213822371027
O	-2.3647407863693966	-11.3131989869383	-9.044503507446564
O	0.6644410702165509	-10.108524902974985	-8.952845449922561
O	-0.18368031587591194	-11.274053009834166	-10.83801108662274
O	-0.9975379234657913	-10.102842898464711	-11.418871386347769
O	-4.542754789371766	-10.709376619798832	-8.305644295782322
O	-3.7513416099541628	-11.456547808572253	-9.067252053381416
O	1.086765542791893	-10.54254376655869	-10.317350920308058
O	1.9966635298753732	-9.608914313305387	-16.806062167440917
O	0.7583141579066881	-8.782624726036918	-17.099438042910187
O	0.20113661363266377	-10.297473657965153	-13.46846502723874
O	1.1367345873329269	-9.632716377787002	-14.577305058687465
O	1.4474164843176078	-10.667406895972846	-15.588126561417607
O	2.1925647189848294	-11.597369640369056	-13.48055056131052
O	2.592132493652655	-11.189000160932688	-14.844638558495724
O	1.1728839051851132	-11.077071288277413	-12.68553706677756
O	2.525388336260463	-9.95816866464116	-18.08829304307484
O	3.277722853298595	-7.338724486750526	-16.338026492483888
O	3.257331050201226	-8.652364935487979	-16.072584573360192
O	4.7188442228074665	-6.743895935090737	-14.693851999016978
O	4.685314503905759	-8.086755000194403	-14.40453619423168
O	3.897380660499078	-9.051713426586343	-14.935338661091187
O	3.8202113817409282	-6.358949398834938	-15.575109194111842
O	3.8135819802587028	-4.986311537601721	-15.85862220553083
O	5.653032586071005	-5.794764826206153	-14.281633441807031
O	4.668244804992423	-4.025964387888909	-15.325998324181743
O	5.496903616966806	-4.445017122080906	-14.304234380893938
O	-0.45783483877590925	-11.444850028343096	-14.198903866455359
O	-1.1580399437490385	-12.486747093532674	-13.5580856514295
O	-1.0819529811041608	-13.7361297285206	-14.252103168533115
O	0.31109169311621443	-14.027277421052084	-14.742893269935617
O	-0.7693887118700813	-11.26407145436237	-15.409639971364742
