32

O	7.2252913362810665	-3.4303865046003517	-13.686546071574107
O	-2.682411174550486	-11.455304115324347	-10.918801312144291
O	-3.186216834852604	-10.658969894164963	-9.823312489536704
O	2.557598449640013	-9.051243633382017	-18.33033151262441
O	2.6459430909305097	-9.617485177508318	-16.9965015535169
O	0.22250647059783013	-9.3405360434197	-13.372683241707687
O	3.0323505431007387	-11.033715040985161	-17.054422675445146
O	-2.2613281757305295	-10.015947726887056	-8.941348132645775
O	1.073788615705122	-9.519219673878531	-16.286603093472053
O	2.098607455498427	-8.2119385030546	-13.651542091662295
O	-1.313896681016418	-11.989784532681407	-10.4017825636117
O	-0.3463469802486854	-10.81967041324637	-10.207984850415123
O	0.5434715824740444	-10.543488369775776	-11.241595523094956
O	0.25914456864560886	-9.323792703100036	-11.911081637177562
O	0.27264050767803827	-8.217967881173534	-11.121247538505827
O	-0.5078399107449032	-8.430687320708573	-10.0166114180172
O	-0.9246970748317285	-9.709665574226454	-9.568561114575742
O	-0.5641509385069545	-10.486059310718183	-13.953237330497853
O	0.3778487234001888	-11.204349749263807	-14.844272779217334
O	1.4391813785728873	-10.20380582679433	-15.081649174781978
O	3.635251129680788	-8.81357422427271	-15.824657408444814
O	4.631587133607144	-9.240283740674966	-14.991772163067171
O	5.380236213814655	-8.272525995879333	-14.326297007467215
O	5.460726510642222	-6.947570185745268	-14.747060726856752
O	6.321870188105331	-5.982872107232223	-14.273916801507946
O	6.36133374774633	-4.654810379011105	-14.547969867197656
O	5.540475710714039	-4.291630799064348	-15.56875832510601
O	4.515084060054019	-5.160516406494212	-15.832415955913007
O	4.411307614229205	-6.502330738007617	-15.442144461681382
O	3.7709043397701434	-7.473662205179645	-16.17037351701491
O	1.4837516491118627	-9.241051601596638	-13.985700181921782
O	1.0352949563357754	-11.342384607958971	-12.279984732171796
