80

O	-3.6424511868039215	1.6869867847941173	-0.9851577449490201
O	4.400325643196078	-2.1203372852058826	5.819706125050979
O	4.021513813196078	-2.3686044252058824	4.38554331505098
O	5.249198613196078	-2.873887895205882	3.65732805505098
O	5.499488253196078	-4.070185525205883	4.03153434505098
O	6.302559483196078	-1.9042581852058826	3.71632057505098
O	7.191662113196078	-2.0834063952058823	4.87266320505098
O	8.56096781319608	-2.166214345205882	4.1994463750509805
O	8.907841923196079	-0.8777632202058825	3.84763558505098
O	7.915193173196077	-0.2575053573058825	3.11677782505098
O	7.024303503196077	-1.3512018852058825	2.60580857505098
O	3.0009835631960784	-3.406937725205882	4.36912069505098
O	3.139743313196078	-4.646875555205883	5.075835725050981
O	1.7218770831960781	-5.098776365205882	5.2474281350509795
O	0.9197227831960781	-4.4874569152058825	4.10365044505098
O	-0.32071316660392185	-4.062549235205883	4.69072657505098
O	-1.6013313868039218	-4.898988585205882	3.94604082505098
O	-1.1358815438039218	-6.281908115205883	3.65067942505098
O	-2.8081967768039218	-5.058133805205882	4.846189925050981
O	-2.0980046868039217	-4.080582045205882	2.5373293550509803
O	-1.723568036803922	-3.0325143852058822	1.89076854505098
O	-2.7786166968039216	-2.0677096252058824	1.50717340905098
O	-3.0136310968039215	-1.9537164752058827	0.18526265105098005
O	-3.611810846803922	-0.8533674442058825	-0.41014439494902
O	-3.5143537468039217	0.3773551847941175	0.12853490905097997
O	-3.7977312468039215	0.17930181579411753	1.43135519805098
O	-3.1679567168039218	-0.9059668822058824	2.06056310505098
O	1.6924700131960781	-3.2785517952058822	3.78604334505098
O	1.216419983196078	-2.1494703552058825	3.56791317505098
O	-13.345565526803922	-1.3766222452058825	2.2758861850509797
O	-4.479837306803923	-11.728016545205882	-6.127237384949019
O	2.7980260231960785	-2.9975728752058823	-8.80373491494902
O	6.241162193196078	-4.580290415205883	-8.66357979494902
O	5.320928273196078	-6.242351935205883	-5.36164131494902
O	2.5696649631960784	-8.189577225205884	-7.1179597749490195
O	5.230711073196078	-10.129889035205883	-9.00473965494902
O	2.7879907131960784	-13.123168345205883	-4.820645274949021
O	10.65163207319608	-5.304537975205882	-0.4537842549490201
O	12.348986273196079	-3.386043165205882	2.35003336505098
O	11.219424573196079	0.05549023079411752	1.09844579105098
O	8.34399921319608	-0.5909095242058825	-1.3740778649490202
O	6.557919413196078	-0.0648282792058825	-6.78313042494902
O	5.784605663196078	-0.2913972442058825	-10.46839949494902
O	-9.59431811680392	-7.062039295205882	-2.84194614494902
O	-10.57614832680392	-7.639000745205882	0.77122998645098
O	-8.875233256803922	-5.989024395205882	7.206966815050979
O	4.648095853196078	11.413045154794117	6.12468859505098
O	1.185354743196078	8.710129884794117	9.52252178505098
O	3.8940873931960787	5.9970966747941175	9.37596436505098
O	7.275178783196078	4.952559324794118	10.794832705050979
O	7.994093953196077	3.6025703047941176	7.330141045050979
O	9.527180823196078	6.098649304794118	4.918364915050979
O	6.966111503196078	7.461662054794117	2.4895726950509802
O	4.504052793196077	7.658674504794118	-3.3004823649490196
O	1.3786815031960782	9.524113264794117	-2.23427261494902
O	-1.2962471068039219	9.018583174794117	0.43930625305098003
O	-9.735857626803922	2.2561542347941175	2.07392809505098
O	-8.161633716803921	-0.10393740590588249	-0.4048682149490199
O	-6.930196786803922	-3.4226971952058824	0.98698193605098
O	-5.092172056803922	-6.651560955205882	0.20021772005098004
O	-5.853504316803922	-7.882186365205882	-3.34160163494902
O	-6.486982616803922	-4.319774595205883	-4.60709843494902
O	-2.6524560868039218	-4.082949265205882	-4.793598014949019
O	-0.9484839888039218	2.2555504147941177	-8.39839919494902
O	-2.3830520568039217	0.6577066727941174	-5.2241000449490205
O	0.830873443196078	-0.1349176850058825	-3.24479678494902
O	0.6986175151960781	-0.5096017592058825	0.51987483705098
O	-0.7821697108039218	0.44705053379411747	3.94678353505098
O	-0.5091774078039218	-0.6358643962058825	7.42763083505098
O	-3.5167323668039216	-2.924521035205882	7.601818815050979
O	-6.678228916803922	-1.5359569752058826	5.95350809505098
O	-8.829982306803922	1.4434558747941175	6.98985602505098
O	-6.960326836803922	1.8574074947941173	10.28808639505098
O	-3.334726196803922	5.389352954794117	8.57439391505098
O	-3.8481880468039216	6.007270734794118	4.8383716150509795
O	-3.4880433168039215	4.185396234794117	1.60839952505098
O	-0.11173215680392184	4.474758404794118	-0.09332282594901997
O	-0.015400794803921869	4.627049664794118	-3.90385884494902
O	2.8491362031960783	4.660770944794118	-6.401661254949021
O	2.8798819931960784	8.144738834794117	-7.93886931494902
