78

O	-3.168992854306122	0.8579697625306121	1.6550204127346941
O	6.440446565693877	-3.305723567469388	-2.074690957265306
O	6.884292335693877	-2.183602717469388	-1.2915563572653057
O	7.4309830456938775	-4.354260607469389	-2.4025878072653057
O	8.227200805693878	-1.8356177374693878	-1.5530699672653057
O	8.629034055693879	-3.8188699274693882	-2.500406017265306
O	9.041499365693877	-3.0276984174693875	-1.4459350672653057
O	5.382105715693878	1.451893738530612	-0.08232748426530584
O	6.290807755693877	0.7054690765306121	0.6789272037346941
O	5.884590505693877	1.241477994230612	-1.3847069072653058
O	6.2398778356938776	-0.664376057469388	0.4356138427346942
O	6.009582405693878	-0.04929649746938791	-1.8089881172653057
O	6.0621566856938776	-1.036526367469388	-0.8668030692653059
O	8.718278305693879	-0.7417548274693879	-1.8422987672653057
O	4.781393295693878	2.749071912530612	0.3598460527346942
O	3.7296636556938774	3.521941772530612	-0.2765279512653058
O	5.924918855693877	3.517531532530612	0.8992884827346943
O	4.375992105693878	4.783611262530612	-0.36660137616530586
O	5.415035015693878	4.814400922530612	0.5526740587346941
O	3.5356282956938774	3.014510762530612	-1.4654244272653059
O	4.210008075693878	4.9693405225306115	1.5623193927346943
O	3.0089061656938774	4.319091422530612	1.6101937027346942
O	1.6767703856938776	4.100208992530613	1.4288984527346942
O	-0.7624722443061225	2.672591982530612	0.7102678097346942
O	-1.8721871843061226	2.041026928530612	1.8700750027346942
O	0.4077439936938776	3.439147712530612	1.6844112427346942
O	-1.4661932443061225	2.791655242530612	2.921426222734694
O	-0.3876258943061224	3.593292622530612	2.8190757627346943
O	1.3861249676938776	5.213893562530613	0.8948658027346943
O	-6.151721074306122	9.493429012530612	7.737998922734693
O	-3.6699533643061226	0.07148676253061215	-9.313477277265306
O	-0.9264156643061225	-0.752822467469388	-11.803664767265307
O	1.5393469666938775	1.3901508745306121	-9.838362817265306
O	-0.7135681343061224	4.455451822530613	-10.569811067265306
O	0.29453382069387757	4.194461342530612	-14.221096567265306
O	2.8468366356938777	8.466170122530611	-11.531787567265306
O	7.834839425693877	-2.2606608374693877	-8.786732857265307
O	10.148557055693878	-4.486930607469388	-6.8903800872653065
O	7.281402345693878	-6.535926507469387	-5.411229327265306
O	4.052184365693877	-4.543616087469388	-5.925107787265306
O	-1.0705855743061226	-4.3276244974693885	-8.465722627265306
O	-4.086994924306122	-4.029897497469388	-10.737496467265306
O	-5.401750494306122	11.312687472530612	-0.5391786012653058
O	-3.251657634306122	12.711616572530613	2.250853852734694
O	1.6865330676938775	10.942168702530612	6.770638782734694
O	2.8147767156938777	-11.061159627469387	7.004565732734694
O	4.213905385693877	-6.543658087469389	9.883418632734694
O	6.700148395693877	-5.977186497469388	6.931866942734694
O	10.121770455693877	-6.915113297469388	5.532086222734693
O	8.495503465693877	-6.797161897469389	2.231445522734694
O	6.744772405693878	-9.935322127469387	1.0301394427346942
O	3.0195986756938775	-9.602334627469387	1.3279939327346941
O	-2.7547492843061225	-8.870141227469388	-1.2178429352653057
O	-4.519041494306123	-8.334957897469387	2.080298012734694
O	-3.9659034843061223	-6.096129477469388	5.095288292734693
O	-5.447317934306122	4.431833502530612	7.3898109627346935
O	-5.308562704306122	5.1799205625306115	3.7192968727346947
O	-2.2627981943061224	7.195175832530612	2.4631457927346943
O	-0.6382119243061224	8.588632102530612	-0.6120183662653058
O	-3.188474284306122	9.662575002530613	-3.251547537265306
O	-5.712773244306122	7.102855342530612	-2.086156107265306
O	-3.800624834306123	4.596542092530612	-4.186448317265306
O	-5.539789954306123	0.676833050530612	-2.2892280072653057
O	-1.8128331743061223	-0.450503427469388	-2.990312767265306
O	0.8926820696938775	0.3114907125306121	-0.4965382522653058
O	1.9762499026938776	0.640551846530612	3.2098881727346944
O	4.990611655693877	1.656585014530612	5.087042252734694
O	4.100794335693878	5.182197492530612	5.907686722734693
O	0.4609602856938776	5.952606002530612	6.844942862734694
O	-1.1952900443061223	4.931900612530612	10.057848932734693
O	2.019543895693878	3.741522932530612	11.728860332734694
O	1.8465219776938775	-1.369759647469388	10.142969532734694
O	-1.3219304443061226	-1.829054157469388	8.068233982734693
O	-2.7146212243061223	-0.814726427469388	4.721521042734694
O	-1.9408898043061225	-3.2567047074693876	1.903454102734694
O	-4.666014804306123	-3.6996509874693877	-0.6921330052653059
O	-4.783194114306123	-5.757283897469389	-3.9365986872653056
O	-7.236405494306122	-8.640518267469387	-3.328424057265306
