39

O	1.9511125190133298	-7.382120755835236	-17.195265618424227
O	1.127365257194997	-7.454764803561234	-16.06651910485878
O	-0.7440890521703407	-9.080056524852319	-16.90877253792197
O	1.6337943364258236	-9.199723058329043	-13.445384540826096
O	-0.20946235606132646	-8.113326480384968	-15.953536566030078
O	3.162425074605972	-9.827584017688189	-15.857981250528592
O	-1.2494318315311252	-7.588513646782211	-15.550683506376927
O	3.334880715037725	-6.960488267613746	-17.17596002986147
O	3.219946792123518	-10.35792411109256	-17.105624407360892
O	4.001685113217697	-7.858521616837931	-16.373121471126552
O	1.0467088544318197	-11.396417970414912	-13.53390448969748
O	3.368177315673403	-8.40758916926372	-15.404450667509487
O	2.163934491604697	-7.638680546163042	-15.13407729431321
O	1.9873724482293245	-10.694849301576127	-17.64333633089408
O	-3.0140774843319074	-10.971964966553752	-9.418882539672587
O	1.4685451926247803	-11.183752714190177	-16.461379248536726
O	2.0060759945512174	-10.332731111578196	-15.483119681669665
O	1.7101770566100272	-10.012816767007335	-18.856486345227513
O	-2.023588245042488	-11.479630524384831	-10.26044424431231
O	0.5831630060643613	-12.255931975129467	-14.509748635204613
O	1.5692204354945583	-10.186913476072473	-14.182031111938768
O	1.2083654431300923	-11.434892812227371	-12.167530972756275
O	1.9776336099226386	-10.434134910206911	-11.490656136998794
O	1.2634648454100628	-9.274475321237489	-10.95542013518308
O	-0.04600804094135835	-9.45875924169789	-10.846585904390043
O	0.11966223464585024	-10.72993301270435	-10.251944156218372
O	0.6769107244706927	-11.878781479402047	-10.963975642625524
O	-2.875798961676206	-11.68108607645502	-8.139695917766394
O	-1.8064760931835773	-9.016068976278593	-12.753865659721315
O	-1.4832227780659943	-9.73213900181187	-13.935942599015041
O	-4.303100514790926	-11.519285273392422	-9.89770901218743
O	0.3105095587589952	-11.828657739886367	-15.913242005041866
O	-1.592081700488734	-10.822646025753977	-11.68295841599117
O	-1.1956170935620785	-9.520025729466017	-11.683339799859613
O	-2.1733526508005303	-10.902916961698192	-14.046748183295115
O	-2.069820787358621	-11.548879247233891	-12.79940865711475
O	2.5247227199152613	-10.626910392046021	-19.841752421718933
O	0.5487716797193487	-9.770282892196589	-19.486733892227274
O	2.394454430244453	-8.89603690701628	-19.370213020244037
