81

O	-2.7727434833235294	2.007693608960785	0.14507405520980365
O	-2.3560482133235294	1.483615488960785	1.7357731172098037
O	3.128624736676471	-1.157896401039215	5.679724245209804
O	1.3785200466764707	-1.0489112210392149	7.584699465209804
O	1.5434403466764708	-1.595802741039215	6.234457895209803
O	-1.8547592833235291	0.2646802593607851	1.9526104652098035
O	5.17230607667647	-1.640878161039215	3.1697474052098036
O	1.4345512766764708	-3.067829151039215	6.282476715209803
O	-0.2978890943235293	-1.693963711039215	3.6408190552098034
O	-0.9305287733235292	-0.22487791403921487	2.8870207052098036
O	7.14649609667647	-2.507614201039215	0.18775404620980363
O	3.0789037866764706	-0.6225355310392149	2.8406909652098036
O	-0.8951973333235292	0.584311027960785	3.9657864552098037
O	6.6691769866764705	-3.5571781710392147	2.1775535552098035
O	-0.5841246743235293	-0.1046417280392149	5.139814375209803
O	9.18603117667647	-2.668856631039215	-1.7271685747901966
O	0.45061713667647074	-0.991279581039215	5.022488005209803
O	-1.1692374133235293	1.935545428960785	3.6722778352098033
O	-2.0884727833235295	2.359233268960785	2.7500032552098035
O	3.4293913866764707	-2.157468841039215	4.655051425209804
O	4.7282522866764705	-2.756593791039215	5.098030765209804
O	5.8450222566764705	-2.027970901039215	4.409484845209803
O	3.8006866166764706	-1.419036211039215	3.4480997152098034
O	5.8840050766764715	-1.423074131039215	1.9472544852098035
O	7.19599733667647	-0.7368401530392148	2.3006627752098034
O	6.28826485667647	-2.723456861039215	1.2857575742098035
O	6.949801026676472	-2.828460451039215	-1.1965053847901963
O	7.963091106676471	-2.1121480210392147	-2.0397956047901964
O	9.14980076667647	-3.403946731039215	-0.5605229147901963
O	8.57732015667647	-2.487813791039215	0.5201766582098036
O	-8.468928293323529	5.746913328960786	8.953684455209805
O	-7.507901033323529	-9.970150881039215	6.199717755209804
O	-3.799739023323529	-7.672832651039214	-4.637011774790197
O	-1.1507446333235294	-10.312509681039215	-5.305347694790196
O	0.3349867191764707	-9.626852501039215	-1.8496162647901966
O	-2.898493903323529	-10.767699981039215	-0.2187119647901964
O	-2.1871739733235294	-14.300564481039215	-1.4255738647901963
O	-1.2575461633235292	-13.579290281039215	4.149842365209803
O	7.58937215667647	-8.868467101039215	-2.2408512647901966
O	10.73622246667647	-6.798352711039215	-2.6955022647901963
O	9.09996167667647	-4.267846091039215	-5.087255814790196
O	5.307531216676471	-4.6941494210392145	-4.672086964790196
O	0.3746185666764707	-6.055324101039215	-7.230994104790196
O	-2.644675393323529	-7.645947411039215	-8.854681704790195
O	-9.10695063332353	-2.656146461039215	7.728555385209804
O	-7.44928419332353	-0.981033181039215	10.697035595209805
O	-1.8913081833235292	2.618721258960785	12.523919675209804
O	7.668862836676471	9.684356968960785	-6.097945594790197
O	7.328679216676472	10.695870218960785	-0.6434074747901964
O	9.22442087667647	7.369490088960785	-0.3783584547901965
O	12.66805086667647	5.754849578960785	-0.5927824547901964
O	10.87509026667647	2.783058638960785	-2.1056760347901964
O	10.43914346667647	2.915850538960785	-5.876006094790196
O	6.91799596667647	3.929262228960785	-6.838260074790196
O	1.2271012996764707	2.428272958960785	-9.062300014790196
O	-0.3827640283235293	5.702040288960785	-8.020885744790196
O	-0.5903560043235293	7.719830148960786	-4.806230134790196
O	-5.858079803323529	6.864376488960786	4.6911650852098035
O	-6.33497614332353	3.206367238960785	3.9948735452098036
O	-4.51289495332353	0.7831956459607852	6.319505235209803
O	-3.7211936733235293	-2.866579631039215	6.985591995209804
O	-6.648457933323529	-5.109530251039215	6.045286225209804
O	-7.91763823332353	-2.709630971039215	3.3813186952098033
O	-5.242930173323529	-4.299900191039215	1.1473586602098036
O	-6.280986183323529	-1.8075167910392151	-5.810624014790196
O	-5.291562393323529	-0.9625801610392148	-2.2544433047901964
O	-1.5742433933235294	-1.9938179110392151	-2.3089604547901965
O	0.8954317546764707	-0.3950329870392149	0.13098829020980363
O	1.9880822666764708	2.482612368960785	2.434907265209804
O	4.571524346676471	3.236301618960785	4.964746615209804
O	2.4168813466764707	2.855251578960785	8.060020445209805
O	-1.0192400533235293	4.554864668960786	7.877484655209804
O	-1.9302395833235293	8.198018088960785	7.5666523252098035
O	1.6751974266764706	9.300469038960786	8.320280325209804
O	3.289994616676471	9.610541748960786	3.2312307652098036
O	0.43524048267647075	8.524610818960786	0.9522328775098037
O	-1.5015219133235294	5.467624218960785	0.04810918720980362
O	-0.1200947873235293	3.459807388960785	-2.8454773247901963
O	-2.5927559533235294	1.7496576489607851	-5.195444164790197
O	-2.0984652933235295	-0.6386313090392148	-8.133352974790196
O	-3.083243913323529	1.338172328960785	-11.216719424790195
