77

O	3.6328443140108706	1.999270056643478	-1.2795483088913042
O	-2.87519783598913	-5.008094563356521	5.401847331108695
O	-4.58770540598913	-8.469138523356522	0.6986003511086956
O	-3.9642550259891296	-5.021648693356521	1.4779631621086955
O	-4.76266993598913	-6.1832413733565215	1.5543090581086956
O	-4.843373755989131	-7.105342093356522	0.5877860301086956
O	-2.5604945459891297	-5.319291033356522	1.8466007451086957
O	-4.83129292598913	-6.790931713356522	2.8124455111086957
O	-4.37809200598913	-3.8743952533565222	2.2329558351086956
O	-2.8895661459891295	-4.572276393356522	4.0232075911086955
O	-2.6734737859891298	-5.896993043356521	3.2582719111086957
O	-4.30733754598913	-8.944290133356521	1.9219467571086954
O	-4.79099323598913	-8.196116503356523	2.944977321108696
O	-4.27960427598913	-4.193599723356522	3.6776288011086957
O	2.2432589340108704	-0.475858234456522	3.8859748911086958
O	3.05141153401087	-1.1844558553565219	4.5924086811086955
O	4.0530273740108695	-0.33933387545652194	2.1001901501086957
O	2.40492070401087	-2.180710153356522	5.9372060811086955
O	2.6572074540108703	-0.23548689635652195	2.4857376111086955
O	2.1434391940108704	-1.012921302356522	6.726170471108696
O	-0.5248533759891298	-4.961204743356522	6.053596861108695
O	0.69186056401087	-4.178371623356522	6.418460321108696
O	0.96212486401087	-3.008018813356522	5.612115381108696
O	2.72119814401087	1.201700226643478	2.3966944611086953
O	-1.48955911398913	-3.060010283356522	5.341527191108695
O	-0.27647508598912984	-2.283570473356522	5.737944891108696
O	4.5196476340108696	0.2512631446434781	0.8789600821086956
O	-1.8098991359891299	-4.2658931433565215	6.105038451108696
O	3.2514235840108703	1.812184136643478	1.2480372230086956
O	3.86425828401087	1.233517686643478	0.23771705110869568
O	3.53269455401087	-3.067990623356522	6.239507341108696
O	13.58330285401087	3.471959326643478	2.7555265811086955
O	-8.86177195598913	7.401794666643478	3.0185470911086956
O	-7.10276492598913	4.966388386643478	5.323447641108696
O	-5.22500079598913	7.810668756643478	7.003426271108696
O	-8.53950123598913	8.941230996643478	8.451444211108695
O	-5.15043259598913	6.512641946643479	12.270992431108695
O	-12.99882644598913	-0.45235880195652195	2.892560441108696
O	-10.15167169598913	-1.854429133356522	5.126217551108695
O	-10.84603054598913	-5.242279913356522	3.6651364611086956
O	-9.770917255989131	-4.273886453356522	0.14984322110869552
O	-7.8916533359891305	-0.991363704356522	0.5622741851086955
O	-8.09664893598913	4.6801923066434785	-1.0047115688913042
O	7.757349454010869	7.926429486643478	7.190389601108696
O	-0.7570516974891298	-8.245777823356523	-9.918787668891305
O	3.35137855401087	-9.776256313356521	-6.4643232188913045
O	0.39362409401087006	-10.224901703356522	-3.992627338891304
O	-2.37653702598913	-12.577349443356521	-2.9166729388913044
O	-4.35617773598913	-9.438014263356521	-2.2009982988913044
O	-6.3527328859891306	-8.081505333356523	-5.106651978891304
O	-4.58520315598913	-5.150303093356522	-6.639667478891305
O	-4.16257618598913	1.0055996666434779	-7.826044148891304
O	-0.6365526739891298	0.920516846643478	-9.357367968891305
O	2.67660332401087	-0.5890098873565219	-8.233828188891305
O	10.46750715401087	1.871066226643478	-1.0111629188913045
O	7.995403494010869	4.072271816643479	0.7540069541086956
O	7.00978633401087	2.8848427966434778	4.272114491108695
O	4.59584389401087	3.459637856643478	7.208133161108695
O	3.99757187401087	7.224066646643478	7.740214341108696
O	4.52214385401087	7.979424376643479	4.035286961108696
O	0.8722900640108701	6.887936376643478	3.6342754611086954
O	0.9510918640108702	6.3134122466434786	-1.0757705088913045
O	-1.4803596289891299	3.554344026643478	-0.05917193889130434
O	-0.3572252139891299	0.053717579643478064	0.9426156421086955
O	2.45993939401087	-2.8022226433565223	0.7818291811086956
O	3.08725719401087	-5.926105853356521	2.3617631411086957
O	5.8937881740108695	-4.808314573356522	4.714715111108696
O	8.50999431401087	-2.206844523356522	3.3207983211086955
O	11.10496545401087	-2.867946903356522	0.6477318101086956
O	10.46187215401087	-6.657813173356522	0.8136052831086955
O	6.8835803940108695	-6.823243103356521	-3.125404448891304
O	6.1879371740108695	-3.270704613356522	-4.312634078891304
O	4.62930290401087	-0.13882028135652197	-3.2079097688913043
O	0.8844209940108702	0.13274605964347808	-3.908895408891304
O	-0.45469036998912987	3.5963667866434776	-4.753210458891305
O	-3.98729973598913	4.895447356643478	-5.399011448891304
O	-4.13532892598913	5.836748996643478	-9.122043768891304
