36

O	6.241955047563842	-4.399604167888883	-14.50059407152889
O	5.14655637495814	-7.928922837680566	-16.119076976934874
O	5.910537563435493	-6.86601744999569	-15.552428382787316
O	5.303955933663927	-5.696247394088421	-15.192323637819037
O	4.254152726558378	-5.610393417648892	-16.04135686718341
O	3.4615839084247892	-6.715966819756541	-16.47321803296243
O	3.739621161906566	-8.032440239988984	-15.975423327091628
O	2.741230911794462	-8.98571913264718	-15.813493683370783
O	2.205095501990005	-10.208756769384657	-15.562271019883811
O	1.9701870444777585	-11.136249324109283	-16.657480526433506
O	1.7653231739982154	-10.273903737358314	-17.867909182727058
O	0.2752636925025298	-10.187370756984215	-17.759442079049826
O	-0.3824947535059344	-9.945646855203055	-16.510554046346428
O	-1.7437418459897156	-9.74058306605873	-16.792639454687336
O	-2.309898480896755	-9.64979085173659	-18.068698270302917
O	-1.5877586219244426	-10.199079504256996	-19.127444772572225
O	-0.21199144015559312	-9.86666000317	-18.979377607317545
O	2.5445427311783506	-10.590941945454553	-14.508601075949828
O	0.32859413371174107	-8.912051620072825	-15.964300849198908
O	-0.0913298885998941	-8.281522038473684	-14.774685532890826
O	0.23014451063205854	-8.746476432691413	-13.41075530982118
O	0.37530493459347714	-7.283250381975348	-15.324653049604759
O	-3.7415371813216947	-10.065855172369009	-18.06075521154198
O	-3.8571557500077365	-11.328672817873574	-18.04155987164116
O	-4.463584024398386	-9.265187515744048	-17.169276557337923
O	0.22241659288354665	-9.983692592402946	-13.045818299605408
O	-0.6870671311483045	-10.467667271848908	-12.198864237699826
O	-1.4553212921483851	-9.497532358001667	-11.530521414364959
O	-0.7761751535561885	-8.10557627391316	-12.170713775768412
O	-2.9326870066318227	-9.801299057553345	-11.707630775809882
O	-3.17116376178471	-10.29927569979409	-13.107524829512872
O	-2.442322929890829	-11.512892610573111	-13.34320025362048
O	-1.5524899457192207	-11.735264302875194	-12.107545132562292
O	-4.573731172257823	-10.748667108736125	-12.917143619044124
O	-5.341370393001055	-9.707722179652905	-12.09546807026196
O	-4.455074936856294	-11.9454416878555	-11.964008818232248
