80

O	-3.0339374209999996	1.045075181127659	3.998636076808511
O	-2.025225511	1.838129277127659	3.653895106808511
O	-2.7790531309999995	3.028344382127659	3.691035386808511
O	-0.7393764329999997	1.156286901127659	3.632952976808511
O	-0.9102098869999996	-0.10354293887234123	2.999713876808511
O	0.09029966991000044	-0.9845817688723408	2.8906230668085104
O	1.3411114690000006	-0.5324131488723411	3.039273666808511
O	1.5824124890000004	0.7762153411276589	3.2910775768085108
O	0.5524608960000004	1.409194510127659	3.8729029168085107
O	2.3546023490000003	-1.125298008872341	2.3749922268085104
O	3.6665342890000003	-0.620950188872341	2.433434646808511
O	2.6865720490000005	1.480028041127659	2.7857761568085104
O	3.807612949	0.6563299811276591	2.871217396808511
O	5.0538372890000005	1.0068301611276589	3.5378520968085105
O	5.157926319	2.446558623127659	3.7008625168085105
O	5.0937398190000005	3.247223862127659	2.427026666808511
O	4.640294549	4.559831901127659	2.492366416808511
O	4.429679009	5.243863311127659	1.3122213618085108
O	4.145280539000001	4.601998601127659	0.11028222480851077
O	4.387140179	3.234297742127659	0.16095930080851076
O	4.8580921990000006	2.579752409127659	1.2612983838085108
O	6.447867099000001	2.781272520127659	4.33403542680851
O	7.0106690590000005	4.042278671127659	4.084718886808511
O	7.312948929	1.8750776041276591	4.551764536808511
O	4.1808582990000005	5.283479941127659	-1.1119489331914891
O	3.6942157190000002	6.501540701127659	-1.5133577431914893
O	2.864243059	6.70735876112766	-2.7006955631914895
O	3.4757818990000002	7.418308571127659	-3.788792403191489
O	4.555690209000001	8.06374587112766	-3.092974113191489
O	4.624783379	7.647086621127659	-1.670714553191489
O	2.778226769	8.40336112112766	-4.4881589731914895
O	3.245699059	9.683347871127658	-4.583141293191489
O	2.0903392490000003	8.46209878112766	-5.801958203191489
O	-2.122545281	-5.842574478872342	12.061164656808511
O	2.701629619	-6.336767808872342	-7.0425075631914895
O	5.037965319	-4.525925298872341	-9.461492683191489
O	6.5964063390000005	-2.674894568872341	-6.503993303191489
O	7.742618649000001	-6.041374288872342	-5.057918223191489
O	10.157269319000001	-6.343993478872342	-7.97811374319149
O	12.188455319000001	-3.4455486788723406	-6.572469083191489
O	12.706878619000001	-4.991168208872342	-3.1335439631914896
O	7.0877787990000005	4.6767664411276595	-7.83764694319149
O	5.775947179	8.123736751127659	-7.94698182319149
O	2.1295586290000004	6.997747841127659	-8.330778693191489
O	2.1200253790000003	3.524731141127659	-7.21581106319149
O	0.8736707450000004	-1.9477332788723412	-9.296669203191488
O	4.089491219	-8.832841588872341	7.09334444680851
O	4.592578369	-6.449790278872342	9.994989226808512
O	3.5241052790000005	-0.05310317887234106	12.027239056808511
O	-8.201349170999999	9.76841748112766	2.7876652968085107
O	-4.839675911	10.624588251127658	0.9805110648085108
O	-2.9781970909999997	13.439203211127658	-0.6504072291914892
O	-1.7308162909999996	10.713582521127659	-2.932218553191489
O	-3.958333821	10.10732374112766	-5.962210793191489
O	-5.811166481	6.91014822112766	-5.592852793191489
O	-7.040073541	0.795984241127659	-6.98682332319149
O	-9.523058270999998	0.21699019112765905	-4.15032744319149
O	-4.842309981	-3.461681288872341	8.422284276808512
O	-2.2904716709999997	-5.033685928872341	6.2012572568085105
O	1.3377729590000005	-3.6734561288723406	6.547702356808511
O	4.825325369000001	-3.827064998872341	5.109248036808511
O	5.644211819000001	-7.350603738872341	3.897740406808511
O	2.0152723690000003	-8.226214988872341	3.143140426808511
O	2.5890169390000004	-6.520799938872342	-0.20671541219148926
O	-1.9464344509999993	-5.806693208872341	-1.3898964731914893
O	-0.35112885599999955	-2.556574588872341	-2.7234778831914896
O	0.32292265900000044	0.35997698112765897	-0.6239438661914892
O	-0.6492409559999996	2.987716254127659	2.090096436808511
O	0.32266541400000043	5.634649891127658	4.57193728680851
O	1.7205204190000005	3.740645661127659	7.5374940568085105
O	-0.3472628749999996	0.809347531127659	8.949910316808511
O	-3.743224421	0.9191364911276589	10.66624785680851
O	-3.6910195409999997	4.7446266911276584	11.06729075680851
O	-6.352307261	5.906465351127659	6.506887656808511
O	-7.297342981	2.628697355127659	4.640081386808511
O	-5.512333980999999	-0.19795189887234121	2.747409786808511
O	-4.926402040999999	0.3431671811276591	-0.9441756831914891
O	-5.2061172309999995	-2.7749298088723413	-3.1759912931914895
O	-4.636417321	-3.1536074588723406	-6.949681243191489
O	-8.104857301	-3.904670308872341	-8.376993773191488
