81

O	-1.7585070486818184	1.85664634975	-3.5396383761590915
O	-1.3303050786818185	2.02735523075	-0.787607406159091
O	-0.9464353286818186	2.3295918157499997	-2.044072446159091
O	-0.7422919226818185	3.67891004575	-2.0541314861590907
O	0.03738080031818153	4.05455401575	-0.9990064561590908
O	-0.43618280168181844	3.81294973575	0.355588283840909
O	-1.0025848186818185	2.5907425657500003	0.398064973840909
O	0.4202424743181815	3.86761481575	1.344987118840909
O	0.38589402631818154	2.80523836575	2.005512871840909
O	-0.8191086086818185	2.2483952357500003	1.778364907840909
O	1.4406470313181814	1.96034317175	2.6720823138409093
O	0.7205226623181815	1.02275773675	3.385908013840909
O	0.46129729031818156	1.20521808185	4.739620483840909
O	2.3352680113181816	2.75223409575	2.9645522938409092
O	1.3598131513181815	2.51496267575	4.810337023840909
O	0.8684484623181815	3.30153891575	5.8473052938409085
O	0.7021708373181815	2.09339745775	6.894698043840909
O	-0.5051610426818185	2.32954029575	6.104596253840909
O	-0.8949946786818186	1.82281733475	4.817684003840909
O	2.4843643313181816	1.6554618857499999	4.956920653840909
O	1.9274852413181816	1.37940807475	7.145953563840909
O	2.8371409213181815	0.36944569574999997	4.595850333840909
O	4.069107651318181	-0.29514922425	4.184551183840909
O	4.626794911318182	-1.0170284942499999	5.155192493840909
O	5.669495011318182	-1.78942009425	4.762024953840909
O	5.678839271318182	-2.19542961425	3.4283089738409087
O	4.023384901318182	-1.76440534425	3.215906083840909
O	6.277027381318182	-3.6068468442499997	3.3158641038409087
O	6.547193701318182	-4.12881785425	4.654522063840909
O	7.530856971318182	-3.2033743242500003	5.215576443840909
O	6.775644201318182	-2.00469329425	5.708275823840909
O	1.8412955613181814	-0.4004315842499999	4.800015133840909
O	5.379379721318182	-3.9916993442499997	5.526329503840909
O	2.8563761813181814	2.29960751575	7.233454643840909
O	2.4693401013181817	0.20306136775000005	7.774571983840909
O	3.9515396813181813	0.029080075750000045	8.13602148384091
O	2.4535713113181816	-1.2880261542499998	7.785610223840909
O	-5.248080018681818	12.14010025575	0.2585131238409091
O	-5.5123673986818185	-7.59205647425	-1.501854726159091
O	-4.193917948681818	-10.634205944249999	0.372194413840909
O	-2.9653285886818184	-8.306122364250001	3.129400783840909
O	-6.554693048681818	-7.23163499425	3.830466963840909
O	-7.269032178681818	-10.764884244249998	5.091214093840909
O	-5.013733358681818	-10.11584224425	8.10111461384091
O	-6.851978818681818	-6.96594644425	9.23581838384091
O	3.9593226013181817	-9.793381444249999	5.080420073840909
O	7.628381271318182	-9.10854774425	5.178962123840909
O	3.9796543913181814	-7.829186594249999	0.15603690384090907
O	-0.7597524886818185	-9.222907444250001	-2.8493557961590916
O	-3.9878122286818187	-10.616419944250001	-4.278838726159091
O	-9.324764778681818	5.38864462575	3.4977339438409087
O	-7.417476338681818	8.02978431575	5.386311563840909
O	-1.0345214786818184	10.32687366575	6.729374723840909
O	12.165141181318182	2.4215383157500003	-2.2569903561590907
O	14.562322781318182	0.24285972374999998	-0.22554905615909093
O	11.774106181318182	-2.3470145642499998	-0.219334616159091
O	9.212724631318181	-3.6110769642499996	-5.786136096159091
O	3.7040189513181816	-4.54742471425	-8.705008936159091
O	3.5309449713181813	-1.0979434642500001	-10.315242536159092
O	-2.0733905086818183	9.650163565749999	-2.760600646159091
O	-4.100225528681818	6.68267783575	-1.459806246159091
O	-3.5191650786818185	5.72774507575	2.329366441840909
O	-4.441533538681818	3.21660634575	4.689023393840909
O	-7.945465238681818	1.86745668775	4.301310533840909
O	-7.944669188681818	2.29898228575	0.520456173840909
O	-6.188386218681818	-1.1077970442499998	0.40015155384090906
O	-4.446659728681818	-0.9589681842500002	-4.072222826159091
O	-1.4129257486818185	-2.67580887425	-2.1805062761590914
O	1.3576010513181815	-0.71354537425	-0.337854826159091
O	3.4491302513181816	2.61224300575	0.05686509384090899
O	5.769584511318182	4.2179821857499995	2.327389886840909
O	3.5165441313181813	6.47441165575	4.442184503840909
O	1.0766832613181816	8.499744415750001	2.522502977840909
O	1.8712841813181815	11.229471755750001	0.0076487638409090675
O	5.547332461318182	11.43792015575	1.037084649840909
O	7.493399301318182	8.076988985749999	-2.7181266261590915
O	4.678372211318182	6.63998106575	-4.8292654161590916
O	1.7891646013181814	4.31057782575	-4.583065896159091
O	2.3252268213181817	0.56299336275	-5.236330086159091
O	-0.4824960516818185	-1.51917040425	-6.8314465961590916
O	-0.7025642436818185	-5.29586164425	-7.534009396159091
