84

O	-2.629112169382979	2.244750212908511	-2.0845763588297874
O	3.0258575006170214	3.343079702908511	-1.4551397888297877
O	3.7761182506170217	3.329658482908511	-0.3716542338297876
O	1.1127440266170214	2.6338007129085113	-0.46994607482978756
O	1.8577161256170214	2.634602002908511	0.6730383251702123
O	3.1625214506170214	3.003938782908511	0.7950291301702124
O	1.8192021766170214	2.761800112908511	-1.5563853288297875
O	1.1531795066170214	2.772992592908511	-2.7916601988297876
O	-0.23438151938297858	2.528915702908511	-0.6655688118297876
O	-0.21365218938297859	2.831263442908511	-2.9130221188297876
O	-0.9147658293829786	2.342990872908511	-1.8134531588297875
O	5.534918590617021	3.188647022908511	-0.5999762368297876
O	5.915083770617021	4.5185866329085105	-0.8463739188297876
O	4.637055500617022	0.09487964090851092	1.3089875351702123
O	4.3204597406170215	-1.1494925170914891	1.2762468441702124
O	4.918621910617022	1.012639973908511	0.14679431517021238
O	5.960415680617021	2.026933592908511	0.5680185871702124
O	5.474261930617021	1.5711301359085108	3.0157442511702124
O	5.400799950617022	2.510006632908511	1.8042936311702125
O	5.455791650617021	0.14404351290851092	2.5100573411702123
O	5.849286380617021	2.491095712908511	-1.9115059688297875
O	6.701817440617021	0.21434809190851095	1.6753099511702123
O	6.4298381006170215	-7.18414694709149	2.9439751511702124
O	5.045589250617021	-4.0141522770914895	2.5345734111702125
O	4.7863799906170215	-5.3885988270914895	2.7874943911702124
O	5.862795000617021	-6.01811854709149	3.4181176111702123
O	5.9020693706170215	-3.649997267091489	1.5086921811702123
O	4.215244440617021	-6.301069847091489	1.9903862811702124
O	5.576538590617021	-3.005861777091489	3.3952438411702124
O	7.012785830617021	-1.2070615070914892	1.9303738811702125
O	8.351579520617022	-0.7621560870914891	1.4184446811702125
O	8.919462690617022	-0.30502995309148906	2.6391497111702122
O	9.406953110617021	0.975194231908511	2.5673055911702125
O	6.661378860617021	-2.4112428270914887	1.1545703041702124
O	5.902026310617021	-7.855546277091489	1.9202505511702124
O	4.654561020617021	-7.5266164970914895	1.5788843911702124
O	6.572371860617022	-1.919521547091489	3.1498662511702125
O	0.8099250276170215	11.035382102908512	-7.838163308829788
O	-3.9094542693829792	0.18268144790851093	11.746620641170212
O	-0.40678409938297855	0.9200888979085109	10.395277441170212
O	-1.0637219793829786	4.677538922908511	10.880018741170211
O	-0.9516138693829788	4.079744192908511	14.620090541170212
O	3.788687220617021	6.54727201290851	12.621695941170213
O	3.8006864706170216	-5.10062376709149	10.192688721170212
O	4.968122880617021	-8.359182717091489	8.716405301170212
O	1.8982637326170213	-8.87297213709149	6.605579161170212
O	-0.029721899382978645	-5.598135857091489	6.604531131170212
O	-4.963886399382979	-3.035834297091489	8.160125891170212
O	0.3868684206170214	12.51825030290851	0.6131906521702124
O	3.4496255306170216	12.645651602908512	-1.5709535188297876
O	7.893805810617021	8.55153790290851	-4.953691678829788
O	-1.7061236893829788	-11.321597697091489	-6.655889858829788
O	2.1999685346170215	-8.058962537091489	-8.916043628829788
O	3.9894306406170212	-8.687339617091489	-5.4941249188297885
O	6.191696740617021	-11.129662297091489	-3.5692658488297875
O	4.281136950617022	-9.98816829709149	-0.5546922308297876
O	1.1054695036170215	-11.884396897091488	0.1351207721702124
O	-1.8808812393829786	-9.881871497091488	-0.9077873288297875
O	-7.074172139382978	-6.513953567091489	0.4256836311702124
O	-7.699170639382978	-5.311430677091489	-3.1478189988297878
O	-5.4594108093829785	-3.6933273670914892	-5.810670728829788
O	-1.1056405993829788	6.22684974290851	-7.743296928829787
O	-1.6714651893829784	7.10707304290851	-4.123999208829787
O	1.5670219326170214	7.470405922908511	-2.0843941488297877
O	3.0895510006170213	7.7274661429085105	1.4079727211702124
O	0.8620984556170215	10.099931512908512	3.5481915411702123
O	-2.254265879382978	9.046303162908512	1.7402687711702125
O	-2.378941169382979	6.046656192908511	4.034568401170212
O	-5.392855469382979	3.339346272908511	1.6089120211702124
O	-3.014660579382979	0.6292301552085109	2.9599339011702126
O	0.05887254061702141	-0.2640627060914891	1.0173050881702124
O	2.3638627886170216	-0.4461484370914891	-2.3386418488297878
O	5.7468119806170215	-1.0475913870914892	-3.3780708788297877
O	6.9610661806170215	2.4482649529085108	-3.9339267688297874
O	4.505082110617021	4.7832242829085105	-5.735976948829787
O	3.3949903106170214	4.511106672908511	-9.314235818829788
O	5.975153020617022	1.849481832908511	-10.206060458829787
O	2.9267470206170216	-2.398659917091489	-9.156507968829787
O	-0.4357959693829785	-1.265223367091489	-7.850910738829787
O	-1.9983714593829787	0.30795092290851095	-4.954899428829787
O	-3.207576649382979	-1.9552605170914887	-2.1410932988297877
O	-6.336739989382979	-1.067083497091489	-0.15067236082978763
O	-7.981878019382978	-2.726959627091489	2.8994878911702124
O	-11.291812799382978	-4.14298951709149	1.5981199511702124
