41

O	-0.2028422602837887	-13.04472168066582	-12.140453226118428
O	-1.496756935134555	-13.237572986818773	-12.482581411829432
O	3.3158775620222163	-11.568187443821575	-15.804719027105232
O	0.17503995061514122	-11.769626176726232	-11.665884493461672
O	-0.3647936274471659	-8.347761999944652	-10.752837672174476
O	2.250229235306894	-11.89672352198333	-14.881816210569614
O	3.8085966743681334	-10.253194299098038	-15.78538113169827
O	0.3065560056064207	-7.49092615476223	-11.692595353773196
O	-2.3651220192177496	-12.279832508409758	-12.044420544662826
O	1.2650698361722004	-9.44041477222937	-11.461471469960903
O	2.2611089160297495	-9.938762777839841	-14.531776178246876
O	0.26989862745136595	-8.860933682538816	-17.098544614894443
O	-0.1410305600102273	-9.595005744979646	-11.2447784517182
O	-0.6689985436914023	-10.943188085948346	-10.866236527636062
O	1.4226795261000578	-10.998453386875	-14.446187475567584
O	3.1229298734213757	-9.108935666077077	-15.353358370199842
O	1.4758612646675102	-7.692425588818619	-12.537695568397027
O	2.098809987395743	-8.798906360979672	-12.381062480362852
O	-1.980951767441816	-11.310845872131871	-11.069700299964445
O	0.8888482962706759	-8.345719043283133	-15.993029376215105
O	1.209558782303457	-8.701071681123363	-18.07131767844693
O	-0.002961154067576466	-11.103958684712346	-14.756568113290506
O	-1.6956610975222697	-11.248036686568302	-16.265022399661575
O	0.53612526037863	-8.133014453462822	-14.6185150149491
O	-2.513588066135868	-12.10220374571297	-8.236676538882772
O	1.2879475317917293	-9.129959808703116	-19.4696971912519
O	2.3597450043882486	-8.391709170490975	-17.516303694327583
O	-1.1171543887013584	-10.551014781287577	-14.309308500902016
O	2.2472665068706155	-8.380141615666131	-16.248788646628256
O	-0.517702417695431	-11.747737875434051	-15.800609361451173
O	-2.003020807123532	-10.36979783689009	-15.253455221056193
O	1.542862076685985	-7.554930089535393	-13.859317621506236
O	-1.7308931265007486	-10.951450926584457	-17.533596511969854
O	-0.5431926217971528	-8.001791435645547	-14.020711644669497
O	-4.185121628850461	-11.663717152172447	-9.93836798998755
O	-3.431498621687772	-9.801075263090784	-9.086760925500649
O	-2.8064461662339726	-10.974642104740596	-9.639700120452844
O	3.1848596097889006	-9.518440332489027	-12.22796227798678
O	2.073360487686987	-8.128766288938982	-20.09716509951395
O	2.1643395445327176	-10.120432297314178	-19.59231457304911
O	0.04152117607225758	-9.164609708559945	-19.822279180456423
