87

O	-3.6037087725625	7.067070443791666	-1.7631543934000005
O	-2.2079108655625	7.358423873791666	-1.4096333514000006
O	-5.5117453325625	6.858952693791666	-0.5296907704000005
O	-3.3292435485625	5.919533273791666	-2.3593918044000004
O	-1.2839268125624999	6.366630393791666	-1.3960940494000005
O	-3.9328653825624995	5.258360723791666	1.3697631855999997
O	-4.1817221025624995	4.867214603791666	-1.8345601524000004
O	-6.5841190825625	1.724535373791666	-1.9901661024000004
O	-3.3382309885624997	3.980813663791666	-1.2278714684000005
O	-8.4826960825625	2.449096710791666	-2.6869787744000004
O	-2.4872696985625	3.479737577791666	-2.1930847444
O	-7.6043947725625	3.923507505791666	-4.795058214400001
O	-1.5795790525624998	4.172694753791665	-1.7376004544000003
O	-4.2760135725624995	8.218349853791665	0.5105337555999996
O	-1.9833706365625	5.534792993791665	-2.2488465444000005
O	-4.0021299125625	3.9867047937916658	1.7216820355999998
O	-5.1959730125625	1.910092123791666	-1.5320384544000003
O	-3.0475914245625	2.197570239791666	2.2799090755999996
O	-4.2063319425625	1.617400523791666	-0.5472073954000004
O	-2.7721675045625	1.7461570737916658	-0.7196420144000004
O	-2.6358722840624997	2.131593658791666	-2.0055326744000004
O	-3.5472002045625	1.857032293791666	-3.0552036644000005
O	-4.6610820025625	1.169068083791666	-2.6563342744000007
O	-7.1491766225625	2.539407637791666	-2.9296698844000004
O	-8.6386477225625	1.1431561637916658	-2.3217179244000006
O	-7.4165972925625	0.6601959137916658	-2.0236451944000002
O	-6.5441230025625	3.463016356791666	-3.9008025344000004
O	-8.4457543525625	4.877695063791666	-4.0488826344
O	-8.559200482562499	2.826495030791666	-5.0627742044
O	-4.5174771225625	7.632172753791666	-0.7472650964000005
O	-2.0438146185624997	4.361584833791666	1.2362910555999997
O	-0.8218867925624997	4.405112823791666	0.5576417355999996
O	-0.5454642825625	5.389539693791666	-0.32663469940000045
O	-0.5683782725624997	6.174991773791666	0.7695339155999996
O	-2.0153817295625	6.539801303791666	0.8681478355999996
O	-2.9518664825625	5.467778573791666	0.8073842755999996
O	-2.5756225644625	3.538675912791666	2.0807221655999997
O	-0.24148010256249997	3.9058116177916657	-2.0374503144000005
O	-1.4206884725624997	1.979519823791666	-0.23429150740000038
O	8.9761241574375	6.699908713791666	7.590865975599999
O	4.0325903474375	-5.271137366208334	-6.918079184400001
O	1.8086956174375	-5.496226936208334	-9.9944545944
O	0.8404954574375001	-1.8356105862083343	-9.4666457744
O	4.587942177437499	-0.9105181062083338	-10.011104634399999
O	4.1597191974375	-1.9245241162083344	-13.6426023344
O	1.8469829374375002	1.0494797037916659	-14.227029734400002
O	4.352081777437499	3.661319685791666	-12.9055962344
O	-6.5448514225625	-1.0527232962083337	-9.796116444399999
O	-9.9984703425625	-0.7491316862083339	-8.173776914400001
O	-9.2131216525625	-3.3024946262083343	-5.458956904400001
O	-5.4075984425625	-3.833170046208334	-5.411017864400001
O	-0.7853645225624999	-7.042889286208334	-6.1328856144
O	2.1328654474374997	-9.187031386208334	-7.2327519844
O	10.4378154574375	5.874318103791666	-0.6421658164000004
O	9.2637017574375	8.966083993791667	1.0625076155999995
O	4.004350637437501	11.546106853791667	4.5227285056
O	-8.8276121625625	-0.05779223620833385	10.0308635656
O	-10.1635835125625	0.866880173791666	6.4832972155999995
O	-13.263928142562499	1.549660903791666	4.3328517856
O	-11.486715462562499	-0.20901036620833402	1.5034051155999997
O	-11.7860579725625	-4.028999016208334	1.4362433355999995
O	-8.6531950325625	-5.645788426208334	2.8407393555999993
O	-3.2573148645625	-8.791348786208333	1.9855828055999996
O	-2.0227462575625	-8.101645786208334	5.4459612156
O	5.650786177437501	2.799414723791666	8.129143635599998
O	6.303130357437501	2.380889356791666	4.508767465599999
O	5.1905957274375005	5.176013213791666	2.0730385655999997
O	5.1024600474375	6.089765493791666	-1.5117875924000004
O	8.0862019574375	4.804731993791666	-3.4667165744000004
O	8.4714050574375	1.900424543791666	-1.0996885512000005
O	5.985840347437501	0.07187707379166586	-3.1404065644000005
O	4.8736994874375	-3.282479716208334	-0.01599570940000039
O	1.4159696374375002	-2.5112450662083337	-1.6132262184000004
O	-0.12698755256249994	0.12401343379166585	-0.12221117340000043
O	-1.0851959325624998	2.105976147791666	3.2986419855999998
O	-3.9531395525625	5.166999333791666	4.3146024355999995
O	-1.1726513125624998	8.009714693791665	4.3943806656
O	1.9963569274375002	6.973478853791666	5.8209319656
O	2.3181520474375	6.192826503791666	9.5067945656
O	-1.1534534025624998	7.459071783791666	10.4826107656
O	-3.8874537225625	2.840959092791666	9.963980065600001
O	-1.3946638325624998	0.24101266379166608	8.876647375600001
O	0.6493998974375002	-0.495949996208334	5.8145291956
O	-0.9101166025624998	-2.959747506208334	3.5120840955999997
O	1.2951023474375	-5.697804426208334	2.0613638355999995
O	0.6079356674375003	-8.421133486208333	-0.4642097884000004
O	0.7038210474375002	-11.742524786208334	1.4548630955999995
