87

O	-6.064454063391305	1.3670323684782604	0.5072368077826075
O	-7.451819873391305	1.4682584724782604	0.07935240778260733
O	-5.309823013391306	5.43000938647826	-0.8325797282173926
O	-5.773149653391306	-0.04303357352173953	0.4212778277826075
O	-3.665120661391305	-1.9426379635217397	-1.0900591032173925
O	-5.438001663391305	-2.32748394352174	-2.2443699892173927
O	-6.110269083391305	4.29861271647826	-1.0308917982173926
O	-7.688706353391305	0.5537679464782603	-0.9627476812173926
O	-4.050634082391305	5.0045377464782606	-0.3712525222173926
O	-3.126672405391305	-1.7351268535217397	-2.4396950022173924
O	-4.693950573391305	-2.0258278935217398	-3.4772124422173927
O	-4.677727003391305	2.8830058964782603	-0.7175060122173926
O	-5.007642673391305	-1.6273642535217396	-1.1085193002173925
O	-5.616744033391305	-0.35417554352173974	-0.8538030312173925
O	-5.737932643391305	3.1492332464782606	-1.5846728830173926
O	-3.776126632391305	2.9643153264782605	-3.5025781022173925
O	-6.479326313391305	0.1787947164782604	-1.7045270812173925
O	-3.464756966391305	3.7003211564782603	-0.49908152221739255
O	-3.887682714391305	-0.8818751135217395	-3.248250902217393
O	-2.992682451391305	2.6443879384782605	-2.4114316442173926
O	-4.143973124391305	4.330785036478261	-3.565957102217393
O	-6.800220403391306	2.8066934304782603	-2.4402566402173926
O	-3.3989510570913053	1.2751441004782604	-2.2695972382173926
O	-8.568368943391306	3.5625071664782606	-3.5465731422173925
O	-4.317810806391305	2.0398184654782603	-4.518120562217392
O	-7.064591603391305	-2.5617597735217394	-5.623450772217392
O	-7.473056603391305	-3.5144593235217396	-4.553476982217393
O	-4.839149843391305	0.6214459164782604	-4.241762322217393
O	-7.456026893391305	-1.1832793935217398	-5.0869768722173925
O	-8.244881593391305	-2.6328789635217396	-3.6238265122173923
O	-5.333453873391305	4.77220797647826	-4.437885642217393
O	-7.153631453391306	-0.8957912635217395	-2.6149346922173926
O	-3.086188541391305	4.673154446478261	-2.7612748222173926
O	-6.984914313391306	2.17713946947826	-3.574341142217393
O	-2.762698997391305	3.7181846864782604	-1.7831226712173927
O	-8.129056953391306	3.2479491364782604	-2.2622188762173927
O	-8.199008323391306	2.2887672684782605	-3.9057378822173927
O	-3.826458448391305	0.46862827647826033	-3.3140532722173925
O	-7.763509573391305	-1.2448581835217398	-3.703854182217393
O	-3.0178715503913054	0.7882026064782603	-1.2062045952173925
O	-8.386401263391305	4.84964948647826	-3.6621241922173926
O	2.564597806608695	11.85881842647826	5.708395547782608
O	5.340089426608696	-3.7395225435217396	-10.534640282217394
O	2.1830525866086945	-1.6260875835217394	-10.134810282217392
O	4.2348402366086955	1.5173414274782604	-10.939026022217393
O	4.542688186608695	0.1716294964782603	-14.489134982217394
O	0.9246498966086949	4.43832505647826	-14.095496982217393
O	-3.827918278391305	-6.003428373521739	-9.992513772217393
O	-6.467724793391305	-8.08095431352174	-8.156982682217393
O	-4.1548821733913055	-9.00958591352174	-5.330578022217392
O	-1.1795625233913052	-6.64402963352174	-5.519088212217393
O	4.477874226608694	-6.19406896352174	-6.411499092217392
O	4.134349596608695	11.43967081647826	-2.5530227662173925
O	1.110213186608695	13.02206418647826	-0.9718004082173926
O	-4.526333213391306	11.607723666478261	2.683451487782608
O	-3.1756432103913053	-9.67778401352174	8.735843417782606
O	-5.856127293391305	-4.916466863521739	9.776655817782606
O	-7.368013263391305	-5.675737713521739	6.334958727782608
O	-10.073126153391305	-7.66501395352174	4.500650457782608
O	-7.6273414333913045	-7.9542892835217405	1.6173954977826075
O	-5.230236203391305	-10.805634413521739	1.7143012777826072
O	-1.9109228733913053	-9.619541813521739	2.981638697782608
O	4.100007666608695	-8.39570581352174	1.9181760977826074
O	4.606098426608694	-6.76724757352174	5.284823397782608
O	2.6342482166086945	6.8404913364782605	6.6612015977826085
O	3.420807626608695	6.694571246478261	3.021280187782607
O	0.5319909066086947	7.57777042647826	0.5187798277826075
O	6.533660869489921e-05	7.82329929647826	-3.0263277622173925
O	3.1322371666086952	8.75335720647826	-5.1044831622173925
O	5.409830806608696	7.11393767647826	-2.6030319322173927
O	4.599055036608695	3.8163319764782604	-4.273295352217392
O	6.128274276608694	0.8984900464782604	-0.9771642572173926
O	2.9957827366086947	-1.0310572735217396	-2.3440386512173927
O	-0.10790534339130531	-0.03309975352173966	-0.7684403142173926
O	-2.276643893391305	1.1086925814782602	2.069570447782607
O	-5.655327223391305	1.7270985324782604	3.0754735077826076
O	-5.928196753391305	5.38759334647826	3.117670847782608
O	-2.864578275391305	6.98331711647826	4.338002317782608
O	-2.124266123391305	7.059129366478261	7.995048647782608
O	-5.550920983391306	5.70680677647826	9.062346117782607
O	-4.423637503391305	0.5325569764782603	9.018315817782607
O	-0.8163931833913054	0.22039745647826026	7.984889927782608
O	1.5456494066086948	0.6787964864782603	5.1353086177826075
O	1.8277035266086945	-2.4723234635217395	3.058954667782608
O	5.176914756608696	-3.09273524352174	1.4996642177826074
O	6.600567666608695	-5.72194269352174	-0.8391374542173926
O	8.924111986608695	-7.851953733521739	1.2517152177826072
