37

O	6.178486782415994	-2.9869918356100227	-13.353334226796074
O	2.3928100754868153	-10.48176219370939	-13.823199503896038
O	1.0992963246033698	-10.020739052693136	-13.59543169364925
O	3.137738598531147	-9.471039508110811	-13.587502137628823
O	-3.207287326848621	-10.859922791767517	-8.547862767951395
O	3.9478726346845265	-6.389743024439737	-15.33752988473389
O	2.1697214113794656	-9.654079870829744	-15.929909599918783
O	1.5704432383365345	-7.934837046768474	-14.594918163115963
O	5.28766989632574	-6.3027640756081595	-15.211815721618688
O	3.458322137393289	-7.620686134314498	-15.680170606680267
O	-0.057375703358093055	-12.019482904960295	-14.828899874435521
O	5.924561967602396	-5.233252870765425	-14.686874033662338
O	-4.065814455880692	-11.627408003364197	-9.465962194513976
O	5.416288690183377	-4.028608327899432	-14.513990591734828
O	-3.231787174079538	-9.470803435252172	-9.00413787478948
O	4.245971197815834	-3.963722820677549	-15.185374430387563
O	3.600784614478148	-5.125485230373531	-15.66831564676097
O	0.6626362339502734	-11.610885997736416	-15.89523552889169
O	2.0845157967689927	-11.929349532336172	-15.67354783873504
O	2.840367200050066	-10.778809558687684	-15.263814271516647
O	0.7391894959902738	-10.132055371256449	-15.860733233288007
O	2.3722062905769175	-8.367328215428554	-15.414179344435343
O	-0.7412856901074303	-10.739133890432583	-9.049333532136163
O	0.3454543888461581	-11.554455593639698	-9.440340257702914
O	0.21479123050512783	-12.732836313642983	-10.305466858560289
O	-0.630367398910038	-13.585046767828938	-9.578655104621904
O	-1.653266322530384	-13.014298984414422	-8.792421183294518
O	-1.691873439726244	-11.623546768701743	-8.753898300414187
O	0.48886933273418354	-13.127628566510719	-14.149257540007996
O	-3.428720015598156	-10.855173113842163	-6.841962106864376
O	-0.9470985047333347	-9.723006082950171	-12.372015023641687
O	0.44375322491565994	-9.840722828195942	-12.403061870892504
O	1.2315504435383136	-9.110989393509492	-11.4708932598514
O	0.4285751481757005	-8.960033436495346	-10.27830467299257
O	-0.8082100971027986	-9.542389423999424	-10.037297985835801
O	-1.6016128845576274	-9.518340803218894	-11.160601807212492
O	2.4025144228822826	-9.90505891843814	-11.278553582076924
