32

O	0.9418452622692701	-9.457331596512152	-14.060212022454373
O	-0.6799486511203039	-9.218279681429564	-11.990004462295603
O	-1.1841443284085527	-9.257192664666373	-10.788901217846183
O	-1.6469472033993107	-11.576576521117083	-11.213635916027343
O	-1.5772802964122326	-11.425814239567767	-12.552955929505314
O	-0.9012512871440865	-10.248502821751142	-13.017237675439738
O	-1.9376059350992936	-10.643260878164774	-8.895779071239984
O	-0.36968750237184	-10.021673983491361	-14.211008785026827
O	-1.722338212995088	-10.498589828264993	-10.313842950875365
O	0.5090484067077385	-8.225736703868948	-12.9438581091869
O	7.188719789152181	-4.179270850583882	-13.750649296819999
O	1.730881058820179	-6.82099944685644	-15.898565057764216
O	2.5659670915045005	-6.225626053911296	-16.80587748927452
O	0.16554532428068924	-8.515334881324913	-16.948162251779422
O	1.094897594578947	-7.983889655102945	-16.385003852738308
O	2.746541520149617	-6.638254408149012	-14.952691161838175
O	4.004575031455699	-6.224736711264134	-15.26970922332104
O	3.800462600704611	-5.718991728075233	-16.59164489047621
O	5.353823530282217	-6.1254342030165	-14.690910499585506
O	4.506796424527853	-4.499269856709751	-16.529721495491568
O	5.470857643988637	-4.1732399322833835	-15.653889492691762
O	5.815171917827826	-4.926200758412694	-14.498776279053237
O	4.877488807521274	-10.282423008329243	-16.497161523541703
O	4.9635988020376915	-8.970018160250117	-15.719331851518406
O	4.552015443410481	-9.838037161814192	-17.822958694669673
O	4.4508083361398905	-8.309665623037429	-17.63850947303466
O	1.7459591068397309	-10.055765112154639	-14.96830744499591
O	3.172689795542762	-8.480395237228123	-17.295583470962157
O	3.6293339133560734	-8.747638816685596	-15.97168413413849
O	1.834461101968421	-8.785038536123908	-17.265755210956193
O	2.6806362500949588	-9.04239040622361	-14.937601144568992
O	1.688414848279428	-10.919050291560758	-15.85495693335438
