29

O	7.1140400715952925	-3.07982620667559	-13.659849234839623
O	-1.7572298760385063	-9.41100124289027	-11.070459311046973
O	-0.2668004860174156	-9.607014665277061	-11.024016738504104
O	0.03182663020417298	-10.691699033963943	-10.010557077793987
O	-0.3266055132215424	-11.823120999645813	-10.4851242543268
O	-0.4446625573586864	-10.312044714415062	-8.713617732195527
O	-1.8201676515967957	-10.75617753121903	-8.448179184623367
O	-1.6487422922318071	-11.527025628190726	-7.139942694384448
O	-1.5203409585441836	-10.585420774495926	-6.139396754075801
O	-0.5374764779002739	-9.659868555021776	-6.424974982295505
O	0.31587134636049363	-10.27084283395725	-7.497100905406908
O	0.1630527622565454	-10.057890159545153	-12.340005039788899
O	-0.46657730482707116	-11.14189098415339	-13.036176293853599
O	-0.11613199902882698	-10.873400684808981	-14.467645465797094
O	1.1899398458636479	-10.08628057305709	-14.464702550000894
O	1.0332849317183825	-9.081504121699325	-15.479478281463772
O	2.2216889111412117	-9.311388036835442	-16.674894546052542
O	2.4304059860490215	-10.77629514273438	-16.838701423633538
O	1.7978541576941707	-8.804729757437098	-18.03716513684833
O	3.6589981015713002	-8.509156886580211	-16.23727700752993
O	4.0701775435394	-7.823274250149758	-15.228720622703097
O	4.726073368658337	-6.528589039132537	-15.519773881084014
O	6.03875967263234	-6.458914719517575	-15.223675223343594
O	6.729233103132152	-5.276041165592145	-15.006527460387609
O	6.110745581864171	-4.177796131861494	-14.531466937556301
O	4.997681579536758	-4.086241614384585	-15.286168830333175
O	4.263774899014789	-5.266730425588621	-15.481498926923432
O	1.1466271111240847	-9.406366084309466	-13.162663980831095
O	1.4397565056621335	-8.214512326261136	-12.95629276732609
