33

O	4.463018277893804	-3.609033611853171	-14.906603525140895
O	-0.8509537064902224	-12.570437730394993	-14.693161323602757
O	-0.33947249883880026	-11.675561226646458	-15.728817173848222
O	0.8180689263209571	-10.801556305410198	-15.66201472536219
O	1.5152307920821073	-11.15092572500281	-14.488908214027141
O	1.2053331293338028	-12.332180267006924	-13.822469263152463
O	-0.1614632888264218	-12.624712126455897	-13.459253400336635
O	1.5813173505355111	-9.795131480189438	-16.754604416127286
O	2.954342729510671	-9.268336830622252	-15.822085787516492
O	2.099572766407068	-9.919331585894959	-13.929846644146135
O	1.3755249239845955	-8.712426517901918	-13.655723481456619
O	0.7383038892465312	-8.611952747696671	-12.314347382299841
O	0.5680299164230505	-8.388936852933579	-14.566772833121343
O	1.429388466000955	-9.20679301837131	-11.293771876792874
O	1.015514356562976	-8.73222187958634	-10.053295809143616
O	-0.3621596655495951	-8.911019553598095	-9.839478664820238
O	-1.0187431773245494	-8.433283584964606	-10.930998032212427
O	-0.6384602117884279	-8.864215622848763	-12.167562856426809
O	-0.9072498019834727	-9.30723758994953	-8.507718327337424
O	-1.8215351722245403	-10.305308845106754	-8.41785443037162
O	-2.3170505402511337	-10.542374740226474	-7.147916078672455
O	-0.4974307180156101	-8.891815782781277	-7.268218723990546
O	-2.465954535072524	-10.650077076701677	-9.431950651430816
O	-1.659060690303817	-10.03636827714411	-5.97850659947094
O	-0.31385510336133304	-9.855379509652376	-6.313828953477416
O	3.485803798566965	-7.967621975756135	-15.872203892566052
O	4.715043150764927	-7.3497684529593235	-15.907767801824017
O	4.997275088025399	-5.934995981803271	-15.897911699716644
O	4.007968807503045	-5.110250695509476	-15.571133961138742
O	2.9470166820790213	-5.587533331293631	-16.252552820376913
O	2.6024009257268848	-6.9000101050244025	-15.986137128145185
O	2.3594661677379216	-10.296159654375806	-17.909646345553817
O	0.8873410012788865	-8.681799128535086	-17.43058177222878
