82

O	-2.1764242191568632	2.6756382684705886	2.933703020196078
O	-0.5495178381568633	-2.7675363815294114	3.365500950196078
O	-0.7903761446568632	-3.8803811015294114	2.797605870196078
O	-1.3224074411568632	-1.5237230685294116	3.090869050196078
O	1.2404437808431368	-3.8456090115294117	3.252846830196078
O	0.7631489808431366	-2.7803493015294114	2.694753490196078
O	-2.6314095891568634	-1.2274904597294116	3.3392861401960783
O	-0.7468091891568632	0.03030731847058843	2.5306441601960783
O	0.11600698484313676	-4.730651331529412	3.050776270196078
O	-2.634956699156863	0.05295770847058834	3.887894910196078
O	-2.124007799156863	0.9556385084705883	2.941748600196078
O	0.3223216708431367	-6.4000755715294115	2.696521110196078
O	-0.25972406315686325	-6.714847251529411	1.1130655301960783
O	1.7611005008431366	-6.776547211529412	2.641163810196078
O	-0.2437424171568633	-7.204626891529411	3.7670212701960777
O	0.7269984208431368	-6.017827231529411	0.28404083319607826
O	-0.04951802115686321	-5.184037211529411	-0.6454413778039217
O	1.359983710843137	-7.120837491529411	-0.5621342278039217
O	-0.17258315215686326	-5.971862481529412	-1.8066451698039216
O	-0.19449538115686327	-3.9358943515294116	-0.5421284278039218
O	0.22844596084313684	-7.355911841529412	-1.5584041198039218
O	-0.30090913415686327	-5.436116841529412	-3.133942529803922
O	0.8582784008431368	-5.959308071529412	-3.922318899803922
O	-1.5297362411568631	-6.101787411529411	-3.7508691098039217
O	0.7831540708431368	-5.7920561815294125	-5.321402329803922
O	1.302635240843137	-7.0878230015294115	-3.538941189803922
O	-0.3108643531568632	-5.278590121529412	-6.080291389803922
O	1.9535704508431366	-6.190416301529412	-6.055275419803922
O	0.035128862843136766	-4.518488571529412	-7.3199433098039215
O	2.1425265308431367	-5.171859361529412	-7.144447749803922
O	1.0085710208431367	-5.297929441529412	-7.968726279803922
O	-5.085702959156864	-0.058975091529411605	12.68263838019608
O	10.208190060843137	-1.8729585525294117	8.38580387019608
O	8.042940100843138	4.216640178470588	-1.3077775538039218
O	10.067334760843137	2.4569099184705885	-3.994242069803922
O	8.760524660843137	-0.9037119055294116	-2.7204603098039217
O	10.474347260843137	-0.27608871752941166	0.6185129971960783
O	13.833631960843137	-0.6401716815294116	-1.1345873488039218
O	13.107601360843137	-4.354535481529412	-1.6305018998039218
O	12.412351360843138	-5.187435281529412	2.008044470196078
O	6.454080090843137	-4.9715176215294115	-8.344722489803921
O	3.752090390843137	-6.191232321529412	-10.73911791980392
O	1.8685979908431367	-2.8284352215294115	-10.80676211980392
O	3.0765798408431366	-0.9182203365294116	-7.701591079803922
O	5.775670310843136	3.8174394384705885	-5.955386639803922
O	8.135211500843138	6.600644108470588	-4.966550779803922
O	3.3334367108431366	-0.45891024752941156	11.40387018019608
O	1.0858922808431368	-3.3696455015294116	12.327801080196078
O	-3.7468256491568632	-7.526502861529412	9.789422680196079
O	-12.665826339156864	-1.8238087465294117	-4.780066289803922
O	-9.882614429156863	-3.9475081515294117	-6.400855189803922
O	-9.070101999156863	-6.340971381529412	-9.26801808980392
O	-5.647873449156863	-4.712598701529412	-9.29416367980392
O	-5.353631129156863	-1.6130632445294117	-11.462952719803921
O	-5.443568519156864	1.5518637084705884	-9.392138859803921
O	-2.4841516991568633	6.491548048470589	-6.863773119803922
O	-5.389778469156862	7.44729652847059	-4.623916299803922
O	-6.405727569156863	1.6966964584705884	8.05679037019608
O	-2.680417319156863	1.7989180684705883	7.526190060196078
O	-0.9337295681568633	-1.5533869265294116	7.431122250196078
O	2.3363885008431367	-3.3327078815294118	6.845400180196078
O	5.290691290843137	-1.3096266105294116	8.18393616019608
O	3.4828614308431365	1.9913893384705883	7.617702390196078
O	4.5513641708431365	1.5348717884705882	3.9627213401960777
O	0.5126322908431367	10.72155218847059	-0.16520467880392176
O	3.040512640843137	7.95510595847059	0.3561778281960783
O	1.6790259708431368	4.875668798470588	2.110051680196078
O	1.8202219708431366	2.2443874884705886	-0.6838880058039217
O	-0.3941706121568632	-0.8794544095294117	-0.6117372368039218
O	-3.6652984191568634	-2.4764674515294116	0.3761774311960782
O	-5.294311699156863	-5.863103441529411	0.13086589519607822
O	-4.5243488991568634	-6.885642341529412	3.692825400196078
O	-5.358841129156863	-4.2036930115294115	6.250790200196078
O	-8.703168879156863	-2.716744811529412	7.157958610196078
O	-10.682677729156863	-5.310767911529412	5.152542420196078
O	-10.971504239156863	-2.4413933815294113	0.6364054441960783
O	-9.070180249156863	0.8295856684705885	1.1080209801960783
O	-5.564304059156862	2.0863387084705884	1.5838247201960782
O	-3.7130303991568634	2.939824168470589	-1.5849415098039217
O	-1.2881165471568632	5.880935268470589	-1.5548302498039217
O	1.1627154608431367	7.244440508470589	-4.132148809803922
O	-0.2449924121568633	10.587222888470588	-5.275262069803922
