86

O	-3.8509642781249993	-0.12215506397916631	0.2524524140208333
O	4.076938081875	-2.7697103889791665	3.1699929850208335
O	4.389063911875001	-1.5961234589791666	3.7862588550208334
O	3.2280115618750003	-2.7773291889791665	2.2940657250208334
O	8.366247571875	3.0399944310208333	3.437734255020833
O	-0.8688367381249998	-2.0789806489791665	3.0673648150208335
O	2.463483911875	-3.0234615489791663	4.927909185020834
O	1.8768024018750005	-1.7029805689791666	3.4778526650208335
O	-2.0036733281249997	-1.4852849189791666	3.619400605020833
O	0.10299430087500028	-2.8299992089791663	3.7652771150208335
O	7.975803411875	2.3620554010208337	4.675302385020833
O	-3.0113967881249994	-0.9149945389791664	2.823728235020833
O	7.662487181875	4.1809793510208335	2.9310744850208335
O	-3.127644968125	-1.0950764889791662	1.4914666860208334
O	-2.4690896881249995	-2.2147181189791665	1.2341498810208333
O	-1.4620191081249998	-2.7609847989791665	2.0286695450208336
O	3.207652211875	-0.9883116989791664	6.3024905650208325
O	4.1180927218750005	-4.804002728979166	4.793850255020834
O	3.4583945118750004	-3.7830279089791667	4.1404306450208335
O	3.5291812418750004	-2.2042888189791663	5.644922725020834
O	1.4318580228750002	-2.6907487489791664	4.044805065020833
O	0.6101123078750003	-0.6234464789791664	5.579912265020834
O	5.066210231875	0.6753285610208337	4.273296905020834
O	4.612399601875	-0.31298601897916634	3.3755200750208334
O	3.7766493718750005	0.12342806002083362	2.3186376950208336
O	4.565747061875	1.2797614860208337	1.8292546940208334
O	5.6939950618749995	1.9020984310208338	2.3515302450208333
O	5.516830181875	1.8987012910208336	3.7427705850208333
O	7.0684495018749995	0.2692901140208337	1.2909604960208334
O	7.083988311875	1.6345454680208338	1.7070621920208333
O	8.316414981875	1.8570115440208337	2.1744838850208335
O	8.954379521875	-0.5171385589791663	2.2035574850208333
O	7.601301191875	-0.8365525389791663	2.1334058050208333
O	9.301314001875	0.8429787346208336	2.3234611750208334
O	2.1427014918750005	-0.23876399897916623	5.600942945020833
O	3.2998081918750004	-5.142741818979166	3.6993079750208335
O	10.061319311875	3.4261782710208335	3.5543062950208335
O	3.8121729618750004	-0.8048918789791663	1.2907353160208332
O	-10.670484988125	-6.162809408979166	6.448650525020833
O	1.6450135428750001	-3.8054956589791664	-8.695510524979166
O	5.3173024318749995	-3.5722911389791663	-9.556642064979167
O	6.1581636318749995	-4.278220178979166	-5.787186504979166
O	4.456844751875	-7.741230868979167	-6.307105604979167
O	7.310217321875	-8.740177958979167	-8.613853644979168
O	9.721522241875	-8.627205618979167	-5.617151994979167
O	7.678724791875	-11.093296828979167	-3.5198288449791666
O	11.364123011875	2.2395431210208336	-6.638880774979167
O	11.066977311875	0.47825407402083364	-3.277329574979167
O	12.030640611875	3.7083614410208336	-1.5052109249791665
O	8.978461231875	5.596277051020834	-2.6373460149791668
O	6.490760681875	3.0652634410208335	-4.012422624979166
O	3.6702931118750004	0.9464675030208337	-8.537487714979168
O	-5.575249838125	-10.878316128979167	1.5045360430208334
O	-5.388825678125	-10.656214428979167	5.298560495020833
O	-3.742590548125	-6.391821248979166	10.481285155020833
O	-2.1649210781249995	11.075292871020833	6.722616085020833
O	1.5061224408750002	9.865646551020832	6.265379415020833
O	5.1512157018749996	10.938991271020834	6.698203695020833
O	5.7938630318749995	9.058562291020833	3.4749129850208336
O	5.235705001875	11.097358871020834	0.3106842310208333
O	1.9201292918750004	10.333739031020833	-1.3829375249791664
O	-1.3607043081249994	7.557526141020834	-6.036388744979167
O	-4.6819377781250004	8.044703281020833	-4.357511854979167
O	-9.496927088125	-1.5689973289791666	4.453844605020834
O	-7.459239208125	-3.652052258979167	2.1058255150208334
O	-4.431706958125	-5.430713498979166	3.6208101750208335
O	-1.4256472581249997	-7.513226738979166	2.8328518550208335
O	-2.138104548125	-10.043133528979167	-0.03595189497916662
O	-4.673827788125	-7.741751248979166	-1.6021772249791666
O	-1.6727517081249998	-5.901818538979166	-3.076206554979167
O	-3.7886000481249993	-1.9466359089791663	-4.169804934979167
O	-0.2858827481249998	-0.5952874389791664	-3.2755433249791666
O	0.45477982087500024	0.22665928802083368	0.25579166302083334
O	-0.8819138981249998	1.8041069800208338	3.601508345020833
O	0.3822539828750003	2.1690226710208336	7.100318495020833
O	-1.0141001081249996	-1.1232683989791665	8.830591895020833
O	-4.444906818125	-2.1007706589791666	7.729053155020834
O	-7.522701408125	-0.19840714897916623	8.859512215020834
O	-5.585562188125	2.0822864210208336	11.288446835020833
O	-4.570158958125	6.049451631020834	7.830666345020834
O	-5.930703608125	5.077519991020834	4.415437105020834
O	-5.3239088981250005	2.5969269410208335	1.6868712120208333
O	-2.9008719881249996	3.8862623110208334	-0.9916490149791666
O	-3.588917608125	2.7893872410208336	-4.508728144979166
O	-1.7547944481249997	3.3272820310208338	-7.788156444979167
O	-3.857172448125	5.748249721020834	-9.885345564979167
