81

O	0.9953268556086954	2.7654736460999993	3.730702800304348
O	-0.6840788543913043	2.3175034060999993	3.7992979503043474
O	-4.920089174391304	-2.0171600939000007	0.7375939003043479
O	-7.150392724391304	-1.4562577239000003	1.3457933303043481
O	-5.843949074391304	-0.7842163739000004	1.150862940304348
O	-1.9022069733913045	2.8473733660999994	4.098968250304348
O	-5.4275971843913045	-0.7870847039000005	-1.8898094416956521
O	-6.069344504391305	0.37466834009999955	0.30570161030434795
O	-1.1676758743913045	0.7680456350999996	3.249343200304348
O	-2.9728853583913044	2.0613232960999994	3.7991381503043478
O	-3.2671068483913044	-0.14591764490000048	-1.182530545695652
O	-2.8783549723913042	0.9614282800999996	3.108330030304348
O	-3.6151316443913046	-0.24310621990000048	2.6810275003043476
O	-4.873589984391304	-0.34431042390000044	2.489645470304348
O	-4.511729754391304	-2.0770538039000006	-0.4971136926956521
O	-5.6416584743913045	-2.8240450939000006	-1.265575155695652
O	-6.560660964391305	-1.6085947639000007	-1.3470067876956522
O	-5.452636264391304	-0.21283939990000045	-3.2304046996956517
O	-4.441449144391305	0.47500703109999953	-3.8937252796956523
O	-6.096494784391304	-1.1055266239000003	-4.001082139695652
O	-3.9285568643913047	0.08028652809999953	-5.162957899695653
O	-5.7051168743913045	-1.2326002239000005	-5.293973149695653
O	-4.344734834391304	-1.1230366139000005	-5.603307399695653
O	-3.4858686723913044	-2.2978044139000007	-5.946281859695652
O	-3.534226375391304	-2.9504079839000004	-7.1283532196956525
O	-3.0708087973913045	-3.1855975639000005	-4.936270109695652
O	-3.5834465443913044	-4.3226222639000005	-7.251374319695652
O	-4.729983474391304	-2.3706207239000006	-8.290393129695651
O	-3.717204114391304	-4.4381773839	-4.797408199695652
O	-3.5391784113913043	-5.0821196239	-6.050743189695653
O	-3.660706054391304	-2.4890621139000007	-9.65712841969565
O	-5.9710718643913046	-3.1798122539000007	-8.293470959695652
O	-5.046294564391305	-1.0460639339000006	-7.909207879695653
O	-4.355006614391304	-0.7321222109000004	-1.039920465895652
O	-7.156122624391305	-1.9044918039000005	-3.6434053596956524
O	5.656566675608696	-6.9065470639	2.690388860304348
O	5.182705345608696	-9.5758617039	0.07284120030434793
O	1.3062466256086958	-8.7571639839	-0.0382413016956521
O	1.2650245056086957	-10.016668063900001	3.6569163103043474
O	1.873896815608696	-13.5504700639	2.3917393303043477
O	-1.6116074223913044	-13.4975406639	0.6209553503043479
O	-3.5004138253913046	-12.7228215639	3.858148810304348
O	2.249079495608696	-8.9378547739	-8.224204149695652
O	-1.3096936543913045	-8.0021065039	-6.799846569695652
O	-1.9948688043913045	-6.1432005939000005	-9.899804819695651
O	0.8290918356086956	-3.5820604039000004	-9.339805449695652
O	1.6392148756086953	-3.8771825439000005	-5.717075779695652
O	5.304344965608696	-3.2231366139000004	-7.059518889695652
O	6.3397426856086945	-5.3279777039	-2.220854649695652
O	-3.3228972923913043	-1.7848562639000005	12.640031850304348
O	-2.691076221391304	11.2718457361	-6.056939219695653
O	-3.6616052943913044	7.872724446099999	-7.677109279695652
O	-4.899383854391305	6.0126642461	-10.824764709695652
O	-2.7106959943913043	3.1164021560999995	-9.74312787969565
O	0.9436379756086954	3.5648863660999996	-10.892835539695652
O	3.2646592456086956	4.6303617160999995	-8.083812829695653
O	7.664388085608696	3.2084051560999995	-3.770721499695652
O	7.370587375608695	6.4903950061	-1.832302147695652
O	-2.1910588553913044	7.7593898061	8.263857540304349
O	-1.1515427043913045	4.155599146099999	8.622862480304349
O	-3.9956851243913043	1.6357510060999996	7.916607930304347
O	-4.836714964391304	-2.0684029139000004	7.416961490304348
O	-2.7358215383913045	-4.2576650439	9.745663150304349
O	0.1868301656086957	-1.8147660239000007	9.797300450304348
O	1.0959809556086957	-3.4641785339000006	6.411156890304348
O	4.204775005608695	-0.14262481990000048	4.995492860304347
O	2.5473288756086956	-1.2216236639000004	1.5577255403043477
O	-0.5855988443913045	0.34454368749999953	0.28797022030434793
O	-3.0582660733913043	3.3614354360999994	0.29888752030434795
O	-6.473380794391304	3.6445443160999993	-1.132971557695652
O	-8.443657524391304	3.3075226860999996	1.898191510304348
O	-7.024011864391305	5.1420894161	5.033127750304348
O	-6.465948974391305	8.8007857061	5.6604164103043475
O	-8.653380014391304	9.7068772061	2.615011060304348
O	-4.5805174643913045	10.1924656361	-0.7834455826956521
O	-1.2941354443913045	9.2771067561	0.9470956903043479
O	0.4952154456086957	6.3661576761	2.489872990304348
O	2.5306257956086955	4.2570019561	0.021686240304347848
O	5.699901625608694	2.530810256099999	1.3013311403043477
O	8.133957885608694	0.12694251009999954	-0.39340223969565213
O	11.408160285608695	2.0980014760999994	-0.7214564826956521
