82

O	1.3013878903800002	-3.51598858386	1.2502607014799996
O	-4.3817487996199995	5.79970708614	-0.5706445565200005
O	1.11866793038	0.07772714613999998	3.99403685348
O	1.8478722503800002	-0.5953154538600001	2.5810914934799998
O	-0.14783998361999984	6.15486442614	4.540389773479999
O	1.04395072038	1.37046163114	4.70560353348
O	0.2511715403800001	2.42420103114	5.09290992348
O	-4.72430680962	7.0565715861400005	-0.2180739145200004
O	-3.37664513962	5.12212649614	0.2534821664799996
O	1.21038206038	-2.23348596386	2.4575780834799996
O	-2.05888992962	5.55388963614	0.3512599734799996
O	0.64545268038	-1.1595219338599998	4.442520893479999
O	0.42908760038000016	4.40259664614	3.20672528348
O	-0.20001517061999985	3.26932441614	2.7016441534799998
O	-1.24688059062	3.59603247614	1.7666625634799995
O	-1.13044943862	4.50710414614	0.7062689364799997
O	1.03396061038	-2.27696931386	3.79197094348
O	0.5985797903800001	5.10769255614	5.262915533479999
O	-4.75822962962	5.42498618614	-1.8374867765200003
O	0.32167667038000003	5.99390405614	3.1908652034799996
O	-5.71144001962	7.569967076139999	-1.0523037565200004
O	0.007173591380000066	3.8322605861400003	5.26310120348
O	2.20142285038	1.86547097314	4.92013937348
O	-4.8140389596199995	7.35700919614	0.9897020104799996
O	-3.6078000996199995	4.64743029614	1.5215420034799996
O	1.57060344038	4.07326702614	3.04074578348
O	-2.68179912962	3.61440722614	1.9527021734799996
O	-4.68092389962	6.40782836614	-2.77877581652
O	-5.82736755962	7.100758626139999	-2.4036638865200004
O	-1.4599603106199999	5.77688555614	3.88960697348
O	-1.3338578766199998	4.557766426140001	4.947897333479999
O	0.08673721438000015	5.16149258614	0.5607898420799996
O	5.1937547103799995	-8.12853564386	10.046289203479999
O	6.96663708038	1.75062813414	-6.767778706520001
O	6.58999476038	5.239879306140001	-8.236503586520001
O	5.80839052038	6.534864086140001	-4.735190546520001
O	9.32011000038	5.45057574614	-3.57136343652
O	10.73213340038	8.19724713614	-5.79692193652
O	10.98541790038	9.45960141614	-0.2940079135200004
O	-0.6385377906199998	10.56820821614	-8.33339532652
O	-0.4082896726199999	10.66152821614	-4.463827286520001
O	-4.0275666996199995	11.24786376614	-4.05773623652
O	-4.83757877962	7.9231784561400005	-5.63507994652
O	-1.67273803362	5.76728806614	-5.680454226520001
O	2.25875441038	2.9315462501400003	-8.68590770652
O	5.1661671903799995	1.6158300221400002	-10.77273480652
O	10.538871500379999	-2.7351646338599997	6.42809932348
O	8.92528367038	-2.2593062638599997	9.79942972348
O	2.9025086703800005	-0.9833449438599997	12.80064869348
O	-12.76252089962	-3.1817857538600003	-2.56799328652
O	-11.99152169962	-3.0891403938599997	2.90032228348
O	-11.15885549962	0.67854763614	2.1687644134799995
O	-12.55370519962	4.21110641614	1.6626372434799996
O	-9.73884573962	4.778572646140001	-0.6697938565200003
O	-10.48456412962	3.57519841614	-4.1963273365200005
O	-8.71891527962	0.34181166614000014	-4.954383706520001
O	-4.12765164962	-2.92190171386	-7.787404796520001
O	-4.69902743962	-6.137957263859999	-5.848354186520001
O	-5.09425462962	-7.10885313386	-2.21222099652
O	1.6205180103800003	-8.13991344386	6.38913166348
O	4.02322720038	-5.793090343859999	4.73262080348
O	4.48759707038	-2.1944055838599996	6.17632647348
O	6.4561484903799995	0.8503921161400001	5.788802393479999
O	9.894526300379999	0.28793074614	4.1582879534799995
O	8.66931656038	-2.75211844386	2.3332003534799997
O	7.17386024038	-0.34421015385999976	-0.1965361565200004
O	4.38278908038	-3.4533327038599997	-2.38133742652
O	2.21696894038	-0.1516182638600001	-2.62761114652
O	0.06003815838000015	0.73316801614	0.24153638647999962
O	-2.4169431796199996	-0.45023223386	3.19437272348
O	-4.22680768962	1.1351638411400002	6.046030503479999
O	-1.6511690356199997	0.58972114614	8.90039117348
O	0.07844390338000007	-2.7625373438599996	8.892424073479999
O	-1.5845975616199999	-6.08863912386	9.66082470348
O	-4.86022616962	-4.476712963860001	10.82341659348
O	-7.43411530962	-4.519740133859999	6.101082153479999
O	-5.05750099962	-5.99946288386	3.51182315348
O	-1.8241710896199999	-5.13773988386	1.7526443534799996
O	-2.34191189962	-3.34041544386	-1.5633013365200006
O	0.06657437138000011	-4.15711168386	-4.336644346520001
O	0.45857103038000013	-2.72613620386	-7.88037769652
O	-0.6645870946199999	-5.496444883860001	-10.255918406520001
