79

O	-2.954334683285714	0.8196952358571432	0.8654573585795914
O	2.209486006714286	4.976962105857144	-0.039231586420408554
O	4.885471596714286	4.631716655857144	-0.08722433042040859
O	5.371825956714286	1.0356344258571433	-0.5216062644204086
O	6.739320476714285	3.719474755857143	1.0409877845795914
O	5.9568135967142855	2.4421601418571433	1.0502952005795914
O	1.438044906714286	4.0625867758571435	-1.2777198214204084
O	1.057347136714286	5.299358605857144	0.4963653775795914
O	5.038925906714286	3.5479057958571434	-0.9163567414204087
O	3.706111426714286	5.824499625857143	-0.07087165842040857
O	0.12732034971428585	3.324423975857143	-0.2766072884204086
O	0.0026316837142858762	4.349969995857143	0.5727635375795914
O	5.5175233467142855	4.6591769058571435	1.1212230315795915
O	5.4287787367142855	2.2702213378571434	-0.28511368342040855
O	4.001869656714286	6.7719826058571435	-1.1329918614204084
O	3.8661510467142857	6.683141275857143	1.1641815655795915
O	-0.9172412952857141	2.3731217878571433	-0.12944057242040855
O	-1.123084053285714	4.175085015857143	1.3315766685795916
O	-1.8677235132857142	2.1310032087571433	0.7381516435795914
O	-2.146901133285714	3.299825375857143	1.3290809485795916
O	5.036278986714286	2.2600636188571435	2.0997188785795915
O	3.265381676714286	2.0913669909371433	0.6400834805795914
O	1.9294300367142858	1.9693022058571432	0.49563580857959144
O	3.628715386714286	2.701790897857143	1.7871903485795915
O	1.1503420967142859	1.7438778908571433	1.6325761185795915
O	2.487054476714286	3.2832344658571433	2.463438018579591
O	1.1967037067142858	2.7077060978571432	2.556089328579591
O	0.17141226771428586	2.6550391698571434	3.5705103785795913
O	0.09168829971428588	1.7177865718571432	4.508578568579591
O	-1.0038596492857141	3.2494568858571435	4.046677938579592
O	-6.537959273285715	10.709945005857143	3.9597397685795914
O	-0.7272586112857142	8.403561985857143	-10.796535531420409
O	-1.537453483285714	-3.106105024142857	-9.102953861420408
O	1.583451806714286	-4.527203364142856	-10.740707031420408
O	3.688210166714286	-1.8192586141428566	-9.017710841420408
O	1.781413506714286	0.8544846058571434	-10.938426731420408
O	3.423130766714286	-0.3842114641428567	-14.12789013142041
O	5.623725446714285	4.518397745857143	-12.237838431420409
O	9.625245326714287	-4.758388304142857	-5.9095527114204085
O	11.469141156714286	-6.356761614142856	-3.0005187614204085
O	5.3051271867142855	-6.357026474142856	-3.199819291420409
O	0.7566095227142859	-6.996916374142856	-6.563473381420409
O	-1.772332893285714	-7.463524004142856	-9.34494141142041
O	-4.272627033285715	10.095212315857143	-4.228776361420409
O	-2.628251533285714	12.317442695857144	-1.6634157614204086
O	1.4365463467142858	12.042507735857143	3.9032706585795913
O	1.489678066714286	-9.037367004142856	10.666119168579591
O	2.453147596714286	-3.8351294741428568	12.328529668579591
O	5.454880396714286	-4.079861564142857	9.94365462857959
O	9.032274586714287	-5.356708694142856	9.62443685857959
O	8.101198826714286	-6.1262273441428565	6.032026198579591
O	2.749324486714286	-9.273404904142856	4.981651048579591
O	-2.336954203285714	-9.360409104142857	1.2665525085795915
O	-4.651713803285714	-7.926346904142857	3.8982899485795914
O	-4.667843053285715	-4.906486184142857	6.197539568579591
O	-5.827046593285715	5.786287115857143	5.142166618579592
O	-5.100964573285714	5.424943595857144	1.5267817985795915
O	-1.990655283285714	7.182765125857143	0.27928073417959143
O	0.33994637971428593	7.659793095857143	-2.7289540614204086
O	-1.704510883285714	7.7853860958571435	-5.941801701420409
O	-4.499039853285715	5.628472355857143	-4.498703491420409
O	-2.391666713285714	2.6662016098571435	-5.558918351420409
O	-6.323481103285714	-3.6292392241428564	-4.738921041420409
O	-4.783023253285714	-0.6571324941428567	-2.993233281420409
O	-1.182947193285714	-1.9060936541428566	-2.7228799114204087
O	1.217995986714286	-0.7199531241428567	-0.1819138824204086
O	1.914060376714286	0.6434179558571433	3.598024488579591
O	4.530448536714285	2.7627093018571434	5.648157048579591
O	3.873499196714286	6.521590225857143	5.005377278579592
O	0.13728484871428587	7.338199065857143	5.233132798579591
O	-2.1523805932857143	7.143965525857143	8.238873468579591
O	0.719234248714286	6.568954985857143	10.705142468579592
O	0.38870923271428587	1.1789287188571431	10.696759668579592
O	-2.380964683285714	0.06256890585714325	8.284860768579591
O	-3.119425943285714	-0.001629644142856712	4.580146618579591
O	-2.119872133285714	-3.111603464142857	2.7422487185795914
O	-4.291889303285714	-4.425106064142857	-0.06584834642040857
O	-3.783012173285714	-7.262102284142857	-2.5830425014204086
O	-6.3110098332857145	-9.911539404142857	-1.5959856914204085
