34

O	-1.3788803367938653	-8.837982461707421	-13.165761841177979
O	-0.11984163805333914	-8.095201667153212	-13.477529925990392
O	0.06563119841462672	-7.8897777431112965	-14.72587866016875
O	-0.21036611356966084	-8.844074567691539	-15.661315104527283
O	-1.193353739383797	-9.806623977699942	-15.146978914217163
O	-1.995767413629058	-9.88880763612568	-13.924718589042978
O	2.8747582883354474	-8.578058857454618	-12.705492017288053
O	2.3260965592960003	-9.38724473517018	-13.63388168441224
O	1.697431133631683	-10.349509366007542	-12.841203910839855
O	0.8016433572283841	-9.63829858569417	-11.92034470627923
O	0.656468288880959	-8.220716256325233	-12.226003287430386
O	1.8681171907163274	-8.041376524742635	-11.807821787369988
O	2.5692197737203433	-9.715502272776654	-14.966289601863322
O	3.0534717197584555	-8.733678160814785	-15.623720550101885
O	3.7455087043257156	-8.73820541431105	-16.832669273938006
O	5.05057551301064	-8.216838798411242	-16.67367695671266
O	2.5426255348815405	-8.1161025688263	-17.382844005833505
O	2.2598481295533563	-8.769982241735924	-18.640827733439387
O	1.45060858601674	-9.91602750543807	-18.545038161877866
O	3.070134655987027	-6.784626273456232	-17.163313197020354
O	-2.206638226804392	-11.278374978241029	-13.349394627156512
O	-0.8461009713817527	-11.808955471225733	-13.745413218569695
O	1.9702855476983023	-6.329969114256476	-14.834223611421875
O	2.08156460747975	-5.547653399061348	-13.64349550505501
O	3.49239179018073	-5.294097018809113	-13.584510106948663
O	4.44400867753979	-5.553300142772342	-14.677918820451726
O	4.132940181546847	-6.802911289144378	-15.057784315333421
O	2.9588406843930537	-6.668766480094144	-15.70594827147386
O	0.9500585729072304	-5.0629389405718355	-12.806389475880744
O	0.24103318324649026	-5.442596000364599	-11.735942934220763
O	0.4513864935736951	-3.6992830436468265	-12.519837652575658
O	3.2920205949462185	-8.89216679166265	-19.32703409827653
O	1.868854106466752	-10.479584389648089	-15.609881391855561
O	1.4174154039985303	-10.710374648441341	-19.731584175708466
