39

O	7.454168181081898	-2.8525389675976163	-14.734442845863137
O	2.155549503935699	-10.495969627119436	-15.43309631230451
O	1.8586989681912867	-9.306471914768215	-14.750157027098597
O	1.0831369418158916	-11.164032000933396	-15.556196145443762
O	5.108090045466073	-6.450530407391414	-16.23185828364266
O	2.569667760271289	-8.92004720876068	-17.288371620731404
O	2.4994121973384003	-7.129157237068974	-16.004627634932074
O	4.480025262925933	-5.249385509781777	-16.077791905365434
O	4.539288124285707	-7.5817447598142484	-16.90271972783619
O	1.0879089610452422	-10.215454664256434	-19.637508768407194
O	5.109170560343739	-4.271877947588278	-15.28790517316477
O	-0.7756552967246586	-11.9285867860623	-11.325650684628007
O	-2.523851835331876	-12.194632614325336	-12.675496544630033
O	6.48328647101731	-4.337866071070594	-15.008735501072005
O	7.133612795809461	-5.132821106935776	-15.90624538562914
O	6.461043800304683	-6.3280457451000425	-16.184317235501403
O	0.9447483957405343	-10.298726446933992	-18.269969707710548
O	2.203312392783057	-11.00230163180365	-17.76892266755646
O	2.832548412342285	-10.239323843167021	-16.70534476568211
O	1.112739787957306	-9.054795809716566	-17.510124886670873
O	3.2504187582872945	-7.9601964772608955	-16.46861055530575
O	-0.7927210747468285	-13.507827553411499	-18.57744576626203
O	-2.122780137683267	-13.202234031806755	-18.463568860076833
O	-2.460785286746816	-11.865634521798794	-18.648497939341663
O	-1.5482824981565138	-10.997157360326074	-18.12707655460381
O	-0.18145269384799523	-11.203265241332236	-18.004229374700316
O	0.11796072585585371	-12.530128213695995	-18.32673230799173
O	-0.0759183610379619	-14.531725024061918	-12.179579889883252
O	-1.7215330876671464	-12.764387833132707	-11.860244148278735
O	-1.3783406478486144	-14.057073286739787	-12.28586915293482
O	0.8626915081032278	-13.655588587407404	-11.648876613205966
O	0.27426288870002224	-12.64654536193601	-10.839586010250557
O	0.84593500000845	-9.154053188114869	-13.814811064299713
O	-0.3358526605815273	-9.826523736988836	-14.140109825537891
O	-1.2134426735979371	-10.278247037663423	-13.12991202138386
O	-0.6566100566130713	-10.595106591627264	-11.92182894689647
O	0.30766569427991364	-9.693057977022594	-11.485167021083203
O	1.0180078675594713	-8.981075847037719	-12.444956526202947
O	-0.9701829096649748	-9.741118837033001	-15.314945019236415
