27

O	7.110398900855989	-3.3673479247237608	-13.774530295299622
O	5.8173434876305645	-4.381484438756975	-14.38138163096982
O	5.242014265976091	-4.419222717518492	-15.586117828296963
O	4.258863780797904	-5.314896323622666	-15.845376457688996
O	4.414428754685049	-6.564971645737412	-15.244557032639968
O	5.829757259124844	-6.140938623551153	-14.34629550481185
O	3.574264263610713	-7.766643997318276	-15.383508013253085
O	2.915075624861311	-7.724531787680771	-16.47599455029451
O	2.8994571842737726	-8.774286551294338	-14.615697752542271
O	2.439132630230529	-10.05958158935924	-14.943523389528675
O	1.1543270290831722	-10.682160471454097	-14.688599682313399
O	0.7326497095984497	-10.289554412128075	-13.332747278480475
O	1.0294950822987063	-8.865089395584285	-13.213469783760795
O	0.4508090118689827	-8.190796837485314	-14.120369460412686
O	0.779289098779274	-8.562043012445377	-11.796030491411143
O	1.3662798374991114	-9.368500165192282	-10.799110741488908
O	1.114287019021373	-8.698771104798809	-9.581946120619516
O	-0.28555506469967984	-8.717074129150523	-9.345810305936212
O	-0.6821958668627373	-7.828622421078208	-10.332344927955113
O	-0.6062171096726647	-8.442627175049033	-11.595196666765352
O	-0.9470915685368224	-9.140325937725184	-8.097459298598068
O	-0.7248207576297956	-8.760962207922546	-6.789464519124579
O	-0.741384228931385	-9.788825520178255	-5.83641526235445
O	-2.1523158595713907	-9.853963445398968	-5.719339587464484
O	-2.6756438618566225	-10.309551703777052	-6.970601004082012
O	-1.9748878547114046	-10.043921151490549	-8.14748857594657
O	-2.547839947691224	-10.346419509063859	-9.209411448668831
