30

O	6.924208703621199	-3.6780809237590852	-13.656709064468933
O	3.1687230305329543	-8.315016463889853	-16.009811234354704
O	3.5775798083759023	-7.425751056158061	-16.829747347145457
O	4.105850165541866	-7.941398125904176	-15.04819924717981
O	2.0791589707911733	-9.529657122835292	-16.554184041289815
O	4.733353034258007	-6.793644763434443	-15.131563032101583
O	4.3457753934305785	-6.351716332904955	-16.418763288524318
O	0.78389889339776	-9.576430288373842	-15.394923567255123
O	2.623594671355006	-10.906589824694214	-16.656496679537852
O	1.4153872121776137	-9.241327524151574	-17.860850356502628
O	5.794642113769581	-6.046014159126161	-14.5203275840501
O	4.169733558969568	-4.921864908302824	-16.29260300182825
O	1.3704092327339952	-10.277874250251	-14.253138402990285
O	5.836237814154016	-4.758458167049204	-14.460122116809579
O	5.143122598728169	-4.228672040941917	-15.646528585018904
O	1.1629434832581014	-9.397309951070826	-13.098525994687947
O	0.4163660635173674	-11.400611749189252	-13.981327615333921
O	0.0019876843501558383	-9.841549347659814	-12.386150863122928
O	1.5784134678724522	-8.236962859459977	-13.015310916727115
O	-0.6942626443992648	-10.865397927784215	-13.120938215859264
O	-0.24868841773568473	-9.484577986431777	-11.024316766276515
O	0.08091194385125355	-10.61039046687169	-10.066320102320011
O	-1.754259425855154	-9.285832262617374	-10.883341602950074
O	-0.43345520530323256	-10.37399810956974	-8.774240348282662
O	-0.2093219903617971	-11.729641195103937	-10.61195224177096
O	0.27376041000904916	-10.222115323188463	-7.533701061850026
O	-1.7927402257142253	-10.882441683699973	-8.543240162569901
O	-0.6347739684553693	-9.646477462733708	-6.487834381381112
O	-1.6308593251402135	-11.577187965535806	-7.192030876325534
O	-1.5513834805841178	-10.634203959048321	-6.188248763251896
