80

O	-0.05804983658260843	-1.4023281892391295	4.42703324723913
O	0.3906363164173916	0.2978621807608701	4.26612085723913
O	2.2952753564173918	4.83149595076087	0.04053736723913015
O	2.334759476417392	7.20049708076087	0.6460399272391302
O	1.5451618064173915	6.02512374076087	0.9264268272391303
O	0.1807093964173916	1.4357582707608703	4.96531330723913
O	-0.05930986558260842	5.947814680760871	-1.5512313077608697
O	0.12001347641739168	6.33515817076087	0.8023763872391303
O	1.4773687864173917	0.9783340807608703	3.10052299723913
O	0.3244917164173915	2.60336099576087	4.32303557723913
O	-3.2208432635826085	5.42907657076087	-7.640917502760869
O	0.007029366417391492	3.6814967187608705	-0.8912273687608698
O	1.2598302564173915	2.68398361476087	3.29133598723913
O	-2.6456273735826086	4.27102654076087	-5.78275890276087
O	2.162750266417391	3.7771842357608705	2.61347170723913
O	-1.0926052184826085	7.22238584076087	-6.356611892760871
O	1.5129848264173915	4.81129638076087	1.9968099672391304
O	-4.135086463582608	4.4647721407608705	-7.369816152760869
O	-2.4172399635826087	5.362944360760871	-6.57409886276087
O	-3.683733323582609	3.68816734676087	-6.308418442760869
O	-0.9761895006826085	5.83839707076087	-6.58991584276087
O	-2.4676649435826086	7.743877290760871	-6.328043402760869
O	1.9366595564173916	5.091760380760871	-1.1997041637608699
O	2.091528326417391	6.55181094076087	-1.4936562567608698
O	0.7581922864173916	7.17515626076087	-1.5984707597608698
O	-0.9614325274826084	5.84721340076087	-2.60426108276087
O	-0.5800643345826084	7.88747345076087	-7.57668010276087
O	-2.1590001435826087	6.36286122076087	-2.94492741276087
O	-0.23242502558260847	5.50991068076087	-3.7790330927608697
O	-2.9073522735826085	5.59752142076087	-3.77975040276087
O	-0.8247259305826085	4.48877249076087	-4.44510803276087
O	-2.210112503582608	4.55496543076087	-4.35535753276087
O	0.45411025641739156	4.84318431076087	-0.9169768447608698
O	1.1148157264173915	5.80021630076087	-3.92288652276087
O	6.754746076417391	-5.90810954923913	-2.47464634276087
O	7.408193596417392	-5.074983429239129	-6.11050341276087
O	7.004224506417391	-1.2570809892391295	-5.270440852760871
O	10.14287083641739	-1.6741297892391294	-3.0529602527608697
O	12.254573536417391	-2.2017647492391297	-6.179764812760871
O	11.561627036417391	1.4577746507608702	-7.19737043276087
O	12.91146173641739	2.9299607567608703	-3.9557388627608696
O	2.363489976417392	-1.2509435592391296	-12.060000362760869
O	2.7942747864173914	2.0676471337608704	-9.967184352760869
O	-0.49712235458260845	3.0206696657608703	-11.433775962760869
O	-2.5587553835826085	0.23132838076087037	-9.684397962760869
O	-0.22680170158260837	-1.1617181092391298	-7.0243874727608695
O	-1.8972275945826085	-4.495393829239129	-8.12007022276087
O	2.585854646417392	-5.98683853923913	-5.547972822760871
O	9.034461736417391	1.8183877707608702	9.41485883723913
O	-12.462216363582609	3.3096671807608704	2.1735344272391304
O	-10.72131694358261	4.450669340760871	-1.0337237777608699
O	-11.197324163582609	6.000450040760871	-4.4896972727608695
O	-8.360516323582608	3.71804948876087	-5.59345426276087
O	-9.44787182358261	0.19461237076087023	-6.715122272760869
O	-8.719132923582608	-2.36151742923913	-4.05454557276087
O	-5.300745673582608	-7.08211377923913	-1.88544973276087
O	-6.762528513582608	-7.028717809239129	1.6806291872391301
O	-1.2851298445826085	1.1813581707608702	11.372097637239131
O	1.7286399864173914	0.1636992007608704	9.36300793723913
O	3.5471961164173917	3.05254460676087	7.6495158272391315
O	6.3708918664173915	3.9681843707608704	5.2280775172391305
O	9.304817036417392	1.5847021507608703	5.5686614772391305
O	7.178195356417391	-1.35053687923913	6.7730145272391304
O	6.468420926417392	-1.8779466992391298	3.0194423172391303
O	2.7216011364173918	-4.727213089239129	3.47510647723913
O	1.7070335264173917	-2.6694799392391295	0.21386763723913016
O	-0.08704423858260846	0.6348616507608704	0.33814298723913017
O	-2.4434010235826085	3.09631604776087	2.2885582972391303
O	-3.1471738735826085	6.65397725076087	1.65904632723913
O	-1.0777919777826084	8.21473483076087	4.32693477723913
O	-0.7383499075826084	6.35514377076087	7.7625990472391315
O	-3.3349901235826085	5.732337550760871	10.409556037239131
O	-5.725963683582608	8.26124316076087	8.77079324723913
O	-8.338479893582608	4.71911999076087	5.78394782723913
O	-6.817840053582608	1.2321975607608704	6.32222715723913
O	-3.661646013582608	-0.6686921892391298	5.603501427239131
O	-3.5544886435826086	-2.34137783923913	2.15270231723913
O	-1.6838314275826085	-5.73311695923913	1.96748019723913
O	-0.8921899505826084	-7.993411769239129	-1.03427665176087
O	-2.9026940035826083	-11.20455016923913	-0.4318197817608698
