80

O	-3.78037922067	0.19412618515999963	1.37171323312
O	1.01577303733	-2.1257356128400007	3.61683789312
O	1.80992016933	-2.8444905328400005	2.70730550312
O	8.89481993933	1.0493929811599996	0.5170045651199999
O	-1.26573829067	-1.5879296328400003	1.91308208312
O	-1.11616529067	-0.8421325528400004	4.14199576312
O	7.16743047933	1.5685595031599995	-0.8665356968800001
O	5.27141048933	-1.2401317828400003	3.65264190312
O	-0.35528448867	-1.6555615728400004	3.33047645312
O	1.10826795633	-2.5528967528400006	4.804162133119999
O	-2.3255175606700003	-0.48277671284000034	3.63003889312
O	3.3039550593299998	-1.7342718328400006	3.76835679312
O	-2.40863372067	-0.32758260184000043	2.29876620312
O	4.45551843933	-0.4383205528400004	1.72130907312
O	4.03153707933	-4.07663336284	2.21213436312
O	5.502697099330001	-3.684030682840001	2.45942619312
O	5.225325139330001	-3.44071932284	3.91463829312
O	3.7209920993299996	-3.1254669728400004	4.17082821312
O	5.597273829330001	-0.33002653084000033	-0.30569463488000015
O	6.95644164933	2.4686231171599995	-1.8900607368800002
O	6.176680949330001	0.9222941611599996	0.012878199119999878
O	4.21652177933	-1.2266055628400006	2.90811645312
O	5.1125966293300005	1.5174701201599996	0.7138374552199999
O	2.9175623093299996	-3.713936472840001	3.10772322312
O	8.50071639933	1.3700131871599996	-0.6447330268800001
O	4.96873706933	0.8143872411599996	1.91612659312
O	7.80843970933	2.4499764671599995	-2.95852672688
O	9.46024513933	2.0278745371599998	-1.41495662688
O	9.04461703933	2.8704531371599997	-2.47142473688
O	4.992818589330001	-1.1141308228400004	0.62251893172
O	-7.24894515067	-3.5743566028400005	10.92527816312
O	-1.7911513406700001	-13.67760370284	-0.13253871488000013
O	-2.15162473067	-5.02484192284	-7.94780612688
O	0.9031267923299999	-5.56704936284	-10.12990363688
O	3.0052817193299997	-6.09293715284	-6.98383553688
O	0.8899018003299999	-9.14470188284	-6.10739234688
O	2.35680434933	-10.92091780284	-9.13852941688
O	4.41313619933	-12.80226360284	-4.23207581688
O	9.16735053933	-2.0788267828400007	-7.2465794068800005
O	11.15185761933	1.1093209901599996	-6.66199332688
O	8.12629888933	3.4418825971599993	-7.075485346880001
O	5.030788669330001	1.2101447851599996	-6.7207350768800005
O	0.3899399030299999	-0.7380671128400004	-9.38927573688
O	-2.2717873606700003	-2.4379175628400005	-11.46736773688
O	-5.2717576806699995	-9.58444960284	5.298073543119999
O	-3.5248198106700004	-9.04682887284	8.62193957312
O	0.53856756003	-4.74100298284	12.04043776312
O	1.84540756933	13.805737497159999	0.06550768711999988
O	2.64766471933	11.766985697159999	5.17467211312
O	5.58491875933	9.97396353716	3.46047463312
O	9.19209809933	10.29014135716	2.28984422312
O	8.20312545933	8.013641247159999	-0.5641153268800002
O	6.75466443933	9.76642027716	-3.59083883688
O	2.9987306393299997	9.47321406716	-3.7157151368799997
O	-2.1521788706700002	6.93309881716	-6.178526396880001
O	-4.48715916067	8.19928674716	-3.4505516768800004
O	-6.48050486067	0.4740529821599996	7.91984108312
O	-5.807042700669999	-2.1768820528400004	5.36133277312
O	-2.5654095206700003	-4.27550827284	5.85540347312
O	-0.54383746067	-7.00867148284	4.348539983119999
O	-2.6637558606700003	-9.57063720284	2.4568016031199997
O	-5.255185690669999	-6.9713445828400005	1.6216165521199999
O	-2.9494539906700004	-5.91081076284	-1.19912764688
O	-6.63814690067	-1.0879674828400003	-5.5563802968800005
O	-5.07114315067	-1.7680098528400006	-2.15139354688
O	-1.34712181067	-0.9456379328400003	-2.87843919688
O	0.8303471943299999	0.023953806159999647	0.0036798921199998613
O	1.39997571333	1.6811237071599998	3.42706054312
O	4.22917510933	2.1447429471599997	5.79417995312
O	3.1395671293299996	-0.3784937958400004	8.34439347312
O	-0.5309295116700001	-0.6898558128400004	9.06998208312
O	-2.63366386067	1.8180331471599995	10.87617296312
O	0.37836289103	3.8975609271599994	12.02803206312
O	0.39477402472999995	7.29679581716	7.90810523312
O	-2.43711214067	6.35148457716	5.519349023119999
O	-3.23809044067	3.5473126771599994	3.14176574312
O	-2.0765222906700003	4.083536577159999	-0.3997510068800002
O	-4.32717875067	2.8658127371599993	-3.20857264688
O	-3.8452557206700004	2.7318673571599996	-6.976767796880001
O	-6.26208702067	5.31546930716	-8.448786396880001
