84

O	0.07116473350588272	2.656846913235295	-2.7152269087450986
O	-1.2789779144941171	-5.905575986764705	8.158288021254902
O	-2.0842220244941174	-4.830757376764705	7.6517054612549025
O	2.9135755755058828	4.842166273235295	5.222925531254901
O	2.8948831155058827	3.378232063235295	5.1932136812549015
O	-1.5133753544941173	-3.6015589667647054	8.120127331254901
O	0.1449074135058827	-0.09095571676470504	6.177552731254902
O	4.100146405505883	2.697733633235295	5.6890898212549015
O	-2.2476475144941173	-4.898485866764705	6.176365031254901
O	1.5976969755058827	2.881061173235295	6.227188321254902
O	0.22541044550588268	1.0167827502352949	4.174746141254902
O	-1.0096018074941173	-5.689225986764705	5.7527881712549025
O	-0.02405177879411728	-4.759410146764705	6.500863211254902
O	-0.4908986794941173	-3.5111705767647052	5.9210106512549014
O	0.2005326565058827	-2.386933336764705	5.565841681254902
O	-0.5221141284941173	-1.2403491167647052	5.7417623012549015
O	-1.8416795744941172	-1.2626784767647052	5.421012791254902
O	-2.5263319044941173	-2.369814076764705	5.972962561254901
O	-1.8339785144941172	-3.5572604767647054	5.717894121254902
O	0.37415296550588273	0.10706975423529486	7.6045292812549015
O	1.6304664555058828	0.9146547198452949	7.491950321254901
O	1.7456550055058828	1.464340780235295	6.1152890212549025
O	2.4198321855058826	2.6385049132352947	3.7110295512549016
O	3.0406759655058826	1.6631256802352947	2.980950241254902
O	2.5339535855058823	1.399937755235295	1.7306980832549017
O	1.7335954955058828	2.254484873235295	0.9871680172549018
O	1.5151003655058828	2.250028263235295	-0.37547112874509825
O	0.5979126925058827	2.937304743235295	-1.0978131387450984
O	0.17211058250588274	4.055834833235295	-0.46749530874509815
O	0.3363395215058827	4.064802163235295	0.9053256562549018
O	1.1445000555058829	3.2224785332352948	1.6739895072549018
O	1.7153872055058828	3.519934653235295	2.889380331254902
O	0.6281158335058827	0.9135635416352949	5.348084631254902
O	2.2191818755058828	13.191582003235295	-2.481177248745098
O	13.747109385505883	2.386040303235295	0.07769517125490166
O	6.597642235505883	-5.899435286764705	-4.004511728745099
O	7.325997495505883	-8.917383566764705	-1.861293628745098
O	7.132110655505882	-6.658862026764705	1.2289213302549018
O	10.092209885505882	-4.696312636764705	0.054288771254901835
O	12.298620585505882	-7.745272886764704	0.5830364942549018
O	12.983282185505882	-3.670711196764705	4.5379600812549015
O	2.9650319155058824	-9.593646196764706	6.415528491254902
O	-0.3999833564941173	-10.171900396764705	8.144366411254902
O	-2.4897937344941177	-9.805093496764705	4.942803501254902
O	-0.1826112194941173	-8.067520026764704	2.400668285254902
O	2.4653223255058827	-8.708439506764705	-2.7106999087450983
O	4.689030155505883	-9.464313796764705	-5.675885758745098
O	9.007841335505882	8.059138713235296	-1.860596018745098
O	7.796497415505883	10.479528393235295	0.7787283762549018
O	2.7772752355058827	11.399100303235295	5.413680061254902
O	-13.579503314494117	-2.510028076764705	0.1316570512549018
O	-12.486264714494117	2.219037963235295	2.8716217412549017
O	-10.562794714494117	-0.16724241676470508	5.259396361254902
O	-10.961627714494117	-2.594730866764705	8.170518001254901
O	-8.158769054494117	-4.5823737667647055	6.553300971254902
O	-9.288821004494118	-7.108381496764705	3.9284416812549017
O	-8.732946044494117	-5.826244196764705	0.4091930912549018
O	-5.482716294494117	-5.888509136764705	-5.006460108745099
O	-7.037331864494117	-2.696692106764705	-6.319768508745097
O	-7.562597464494117	0.8164816002352948	-4.9864373087450975
O	-1.3178923744941173	9.557604733235294	-3.257127328745098
O	1.6800801455058827	7.291845013235295	-3.2461511487450987
O	3.5403996955058825	6.972790383235295	0.058044901254901804
O	6.324406125505883	5.163429933235295	1.8894539692549017
O	9.271033045505883	4.491275663235295	-0.3827244787450983
O	7.059639005505883	4.340661333235294	-3.4746109487450982
O	6.3955414555058825	0.7284280352352949	-2.4205221787450983
O	2.6133692355058824	-2.624807416764705	-7.906857908745097
O	2.5746775455058826	0.0491765692352949	-5.207181938745098
O	1.6388339055058827	-2.0807306467647053	-2.1586726387450983
O	-0.05717277729411727	-0.5784204467647052	1.0020260542549018
O	-2.2446774644941176	2.242155283235295	2.4585813212549015
O	-3.2293010944941174	3.486152953235295	5.770032901254902
O	-0.9402899424941172	6.478440483235295	6.036815071254901
O	-0.6993290214941172	8.637123043235295	2.8451489312549016
O	-3.3583198244941173	10.739160853235294	1.2114805062549017
O	-5.699286324494118	10.350812603235294	4.234560821254902
O	-8.372257714494117	6.132277393235295	2.364771840254902
O	-6.848853624494118	5.0366517632352945	-0.9364052587450984
O	-3.6919733144941174	3.548621713235295	-2.2853482487450982
O	-3.6696692544941176	-0.21805078676470502	-2.4968453687450984
O	-1.8525483444941173	-1.807440956764705	-5.445237718745098
O	-1.0829740904941172	-5.449190166764705	-6.294169528745098
O	-3.2048271844941176	-6.2657835267647055	-9.354037278745098
