30

O	7.230696481431831	-3.1659111703344873	-13.548048173902052
O	6.007293991928858	-4.066767700644364	-14.393852611376591
O	0.9969364459675392	-9.175360561518271	-16.094035602192708
O	3.0499335933508784	-10.430616153903436	-16.986880732021927
O	2.516186739218191	-9.049930428953491	-16.865326481575988
O	5.41781809584204	-3.9477819061097827	-15.637347339531257
O	0.15102059937237033	-10.06442432609911	-13.127198083123407
O	2.1998603177438545	-8.672501458479443	-18.30622159632803
O	6.06250026914084	-5.788342200630438	-14.336574128018846
O	4.61206868312491	-5.0017637047214905	-15.975307182734921
O	-0.9564045464066186	-11.81383946666041	-9.048307459817565
O	2.2990669374217325	-8.920244721354548	-13.73728347476259
O	4.923512442207275	-6.202073448754816	-15.50008811590859
O	4.6436736085314125	-7.613670810405504	-15.712319952856431
O	3.5150837795005607	-7.850812901299445	-16.232087209065682
O	-2.0352034658380056	-10.048447082286376	-7.932258230535559
O	-2.303638969103636	-11.84965072319557	-9.55622511715207
O	-0.6234501814267199	-12.935201730171396	-8.21088688892235
O	1.0558999364480606	-10.337130932152206	-15.194440952955219
O	-0.2416225474488165	-10.876242074944255	-15.10152819923538
O	-0.48369719497505237	-11.139213885764459	-13.835098438183111
O	0.19870079533181428	-9.41036439789249	-11.918462934054618
O	1.396902595328191	-9.504225260598329	-11.197366558275307
O	-0.7107670273333229	-8.535850746066714	-11.391425205339914
O	1.2059425819419478	-9.549493635616772	-9.810856963354436
O	-1.0460850439853315	-9.174609187312122	-10.209409653757675
O	-0.0466759146867215	-9.593865931623174	-9.315590785472942
O	-0.6781977809421491	-10.565112394852562	-8.31956636015194
O	1.3258269219337415	-9.720100779977408	-13.90494421844718
O	2.317818295966267	-10.437859702814444	-11.683315945388106
