84

O	-0.6761365865098035	-1.9431460877411764	3.1778174821960787
O	-1.5400362545098034	6.565409442258823	-7.123125347803922
O	-0.5292592575098035	5.575937162258823	-7.390399427803922
O	-5.111943818509804	-1.4192904877411763	-5.185852207803921
O	-5.471092638509804	-1.3468252777411764	-3.7609359078039217
O	-3.4551244185098033	2.368520692258824	-4.544611007803922
O	-6.604195668509803	-2.2128566877411764	-3.432951727803921
O	-5.996104828509804	0.26061569225882364	-3.4652579478039214
O	-3.0436666985098038	1.2315292064588235	-2.572690430803921
O	-0.10835084850980348	3.377667472258824	-4.860265147803921
O	-1.1659471445098035	2.5525747222588233	-4.409665857803922
O	-2.3737605995098034	3.2462039222588235	-4.449753097803922
O	-2.2819449145098036	4.3823511122588235	-3.706339987803921
O	-1.2649039555098034	5.233388102258823	-4.189394147803921
O	-0.2912215885098035	4.750532292258824	-5.076585247803921
O	-4.057097068509803	2.1036857252588237	-5.854825347803922
O	-4.794566058509803	0.8047728212588235	-5.529378127803922
O	-5.063615268509803	1.0391119652588237	-4.072786847803921
O	-4.118887188509803	-1.3713819477411764	-2.702925765803921
O	-2.8718484185098037	-1.8803060577411765	-2.9227409378039213
O	-2.0037082415098038	-1.8848917977411765	-1.8652246878039214
O	-2.3647647335098037	-1.8114956277411765	-0.5249713678039214
O	-1.6159427695098034	-2.1750273177411765	0.5733087621960788
O	-1.8212710735098034	-1.9103754377411766	1.8868261421960788
O	-3.1067950985098034	-1.5952282977411765	2.1452395021960786
O	-3.8560813585098033	-1.1678379377411765	1.0697047921960785
O	-3.5555064685098037	-1.2820877877411763	-0.2879095478039213
O	-4.452085908509804	-1.3532283777411764	-1.3468251098039214
O	-3.7309960885098037	1.3633866690588237	-3.5961561878039214
O	0.31705543149019655	5.503862122258823	-6.191922427803921
O	0.3757044114901966	6.942123892258824	-5.821386197803921
O	-0.7255479735098035	7.680444902258824	-6.5299397578039216
O	-1.0757964765098036	1.2252245819588237	-4.718927457803922
O	-9.487780778509803	-7.004525037741177	6.782694792196079
O	-1.6505160855098036	-12.462400667741175	-6.040367987803921
O	7.302569961490196	-5.480568967741177	-3.305752457803921
O	8.604963061490196	-4.2588758577411765	-6.641390997803922
O	4.990449681490196	-3.5334785577411765	-7.687899307803922
O	4.147157891490197	-7.200758807741177	-7.4370314078039215
O	6.397086381490196	-7.8481842777411766	-10.423300787803921
O	0.8492876114901966	-8.147716837741175	-11.665035347803922
O	4.474364191490196	3.1291226322588237	-10.629501037803921
O	3.796230811490197	6.875294682258823	-10.378787177803922
O	5.295001951490196	7.227878662258823	-6.845439947803921
O	5.393834671490197	3.6643412022588233	-5.391502857803921
O	8.780710111490196	-0.5236102877411764	-3.4201080978039213
O	11.127035711490196	-3.418482397741177	-2.8060180778039214
O	-5.374183998509803	-10.973344267741176	0.4576241321960788
O	-8.891784428509803	-9.590574067741176	0.31439882219607873
O	-12.381356688509804	-3.6533046777411764	-0.01921181780392134
O	1.6139726614901964	12.440254732258824	5.730500062196079
O	-3.7974688785098034	11.165176922258825	5.375481922196078
O	-3.1104696585098033	11.273855232258825	1.6057979121960788
O	-2.7456031085098034	13.576175332258824	-1.4059578028039212
O	-0.08975422850980341	11.154837592258824	-2.5873933878039215
O	3.429798991490196	11.764589032258824	-1.3585013208039214
O	4.354834971490197	9.446302242258824	1.4865915521960786
O	7.515900581490197	4.443323692258824	3.6574316321960785
O	5.575833591490197	4.241123072258824	6.9031981621960785
O	1.9123850614901965	4.161245192258823	7.877905152196078
O	-6.142999238509804	-3.1829716877411762	7.4814101121960785
O	-4.182740068509803	-5.038066617741177	4.863851492196078
O	-5.702380048509804	-5.141536157741177	1.3688805621960787
O	-5.146409028509804	-6.230401087741177	-2.208043325803921
O	-3.2417132585098036	-9.482777667741177	-2.4130647438039214
O	-1.4515976225098035	-8.806930267741176	0.8651104021960785
O	0.9422835614901963	-6.7117066777411765	-1.2163028368039213
O	6.682002091490196	-4.703588417741177	3.0881184521960785
O	2.951992361490196	-4.3908706877411765	2.4539705321960783
O	2.9874524314901962	-1.6727204377411764	-0.25052084780392136
O	-0.04240435850980351	0.5939158872588236	-0.8085933628039214
O	-3.2952947485098036	2.2374849682588236	0.4931625621960787
O	-6.181740838509803	4.052611062258824	-0.8786068608039214
O	-8.752313318509804	1.2988169220588235	-0.8411971408039213
O	-8.755803398509803	-0.8889274477411766	2.332642712196079
O	-9.680803668509803	0.04983438225882364	5.864649092196078
O	-11.099234138509804	3.432972112258824	4.711404432196079
O	-6.632837628509803	6.241061212258823	5.481880202196079
O	-3.8461689585098036	3.9019942922588235	6.625756122196078
O	-1.7586584535098035	1.1067074142588236	5.254218392196078
O	1.4804691814901965	2.1625598762588236	3.6302381321960784
O	4.497022631490196	-0.1175291477411764	4.026179582196079
O	8.003774761490195	0.004936522258823572	2.5166502121960788
O	10.335601711490195	0.8174361402588235	5.409781802196078
