33

O	0.4340379633040148	-11.091428858387435	-11.740919249319516
O	0.07198090769901633	-11.69902814067865	-13.965790628934997
O	-0.9413134407852173	-12.169352501209858	-14.691029764017776
O	1.2240004899729753	-9.931364171294314	-12.200987176670994
O	1.95491598721692	-10.198820671694746	-13.432335916006739
O	1.4699077646231369	-11.510928896696573	-14.187385459061154
O	-0.05293511411757201	-12.106177282962333	-12.525896513488444
O	0.7950173787158392	-7.362546862129174	-14.290567654017456
O	0.2999111577142415	-8.424733788134661	-14.943364233786475
O	-0.9537689854425455	-8.619983419334602	-14.37056742599832
O	-0.7402089755893257	-8.571204040289276	-12.949064422339598
O	0.6070668705542674	-8.572982228881738	-12.407520516323375
O	1.1862310175979571	-7.5498422187119765	-12.928701668755075
O	0.9555819210591974	-8.864604789813203	-16.1488534226514
O	2.3311985161909985	-9.031546194807019	-16.03906874744716
O	3.460412704213173	-8.819184881016769	-16.802358546837628
O	4.413005124886606	-9.79532098042236	-16.720029532489185
O	2.853799497385933	-8.071230216669584	-17.829008051987227
O	2.5391633127517084	-8.948606970076055	-18.932531458668365
O	2.15409377960503	-10.265518503834567	-18.53844676421201
O	3.616310990072911	-6.886145637847559	-17.71492923783522
O	2.664140991527452	-6.085232284846134	-15.509332384340706
O	3.1523526439872893	-5.120438822841569	-14.59081048503311
O	4.573410513885359	-5.087525934819127	-14.522811409330185
O	5.253125359628567	-6.210563399297244	-15.118701858341016
O	4.370427534114418	-7.344520158875824	-15.298967427373583
O	3.6006570539713425	-6.676921036078678	-16.258377677026598
O	2.0044342667940023	-4.266726005571389	-14.170810278114491
O	1.2909347077050874	-4.33370889655318	-13.035714760496512
O	1.8641364051636828	-2.8698865241815517	-14.518348418058723
O	1.6683307329697428	-8.473637018311003	-19.724940277928553
O	0.6795015422487145	-8.046986611312864	-17.028350605373486
O	1.780167292237774	-11.123198031014232	-19.58531432230618
