80

O	-1.4537314601489362	-0.009845609285106353	3.407029426476596
O	-0.003950505148936134	-1.5341255239851064	-6.373885813523405
O	1.0224280348510637	-1.0261052539851065	-7.021765113523404
O	0.4036368748510639	-2.8349157839851062	-6.017669623523404
O	-1.4255177581489362	-1.1842066739851065	-6.311407883523405
O	2.1216710248510635	-1.7017063139851065	-6.5932132435234045
O	1.003708924851064	-0.11328164798510634	-8.124352093523404
O	1.700314654851064	-2.6691362039851065	-5.651952213523405
O	-2.2790260151489363	-1.7627647239851065	-5.276158303523404
O	3.416328374851064	-1.2847609039851065	-6.7429324235234045
O	1.467404154851064	-0.8556321199851064	-9.372679853523405
O	2.866860374851064	-3.4509241139851063	-5.440161713523404
O	-1.9792882561489362	-2.3953013839851063	-3.9489334835234042
O	-3.3734695651489366	-2.6727298639851065	-5.774246363523405
O	4.411666344851064	-1.9140837539851066	-6.005243413523404
O	0.722429264851064	-2.0455665839851065	-9.405122263523404
O	4.1256149848510635	-3.2198377739851063	-5.767150563523405
O	-1.3980534911489362	-3.8109038839851066	-4.0979951835234045
O	-0.8275676341489362	-1.7391985639851064	-3.7335321835234043
O	-2.3586755151489363	-3.8362669039851065	-6.010662473523404
O	-2.539103555148936	-4.458494763985106	-4.684228003523405
O	-3.6421568351489357	-4.204422863985107	-3.4692166635234045
O	-3.1178904051489362	-3.1190240939851064	-2.1133098295234043
O	-3.918066285148936	-5.568634883985107	-2.859537443523404
O	-4.977743215148936	-3.7181475439851064	-3.6210321435234043
O	-3.848155215148936	-3.1754716839851063	-0.9818170825234044
O	-3.345218645148936	-1.3798942039851065	-1.8795872855234044
O	-3.1745849151489365	-2.5556722339851063	0.10046441647659554
O	-2.6883093451489364	-1.3499982039851064	-0.2540720435234043
O	-2.735629555148936	-3.0236038639851066	1.3500129864765955
O	-2.430358345148936	-0.5312609349851063	0.8555502664765955
O	-2.3739776151489362	-2.1550557639851062	2.2963795364765955
O	-1.737114959148936	-0.9635691459851063	1.9465355264765956
O	-9.172795905148936	-6.501262873985106	7.490736426476595
O	-1.810938600148936	11.455709096014894	-4.467674533523404
O	-2.9472398451489363	8.137145816014895	-5.960205083523404
O	-6.505204545148937	8.760218466014894	-4.743026703523404
O	-6.765865055148937	11.612988696014895	-7.235678733523405
O	-9.620611385148937	6.904555686014893	-8.844488383523405
O	1.9765432048510638	5.347518696014894	-10.678392333523405
O	4.951985754851064	3.1423306260148935	-11.551071003523404
O	6.640456934851064	3.6246774560148936	-8.179911083523404
O	4.044224404851064	5.136062356014894	-5.777856753523404
O	2.252380424851064	9.484470446014894	-2.4632477265234045
O	-12.190951575148937	-0.09443313768510635	2.7391336264765958
O	-12.416761575148936	-3.7561373639851063	1.8511830464765957
O	-8.704748705148935	-9.110264843985105	-0.14650092352340427
O	12.534799224851064	-3.6339803939851065	2.2924505164765954
O	9.096124124851064	-7.980925163985106	1.8775147064765956
O	8.677795474851063	-6.717882183985107	-1.7141905299234044
O	10.201970224851063	-6.751916113985106	-5.209262643523404
O	8.910670724851064	-3.2154584139851066	-5.510572663523405
O	11.150602824851063	-0.48887669898510633	-4.236447203523404
O	10.126763124851063	0.7412242190148937	-0.8149712505234044
O	7.551505004851064	5.135905576014894	2.9088327264765956
O	7.270596404851064	2.8787251060148935	5.950701446476596
O	5.834866184851063	-0.5861955819851064	6.6313276564765955
O	-4.2060346951489365	-5.054602073985106	7.5245373364765955
O	-5.6040719051489365	-2.0486426239851063	5.724978876476595
O	-6.954186485148936	-2.7153267239851067	2.1485247964765954
O	-8.249009485148935	-1.1647654839851065	-1.0813586795234045
O	-10.540009345148937	1.8378650160148935	-0.1398694335234043
O	-8.632490965148936	2.6495401860148937	3.078882926476596
O	-6.136836395148936	4.413746036014894	0.7941686164765955
O	-2.460735725148936	4.709650456014893	3.811766396476596
O	-0.6393865231489362	4.170940306014893	0.5070203264765958
O	0.0634191648510638	0.7206161410148937	-0.7963858725234043
O	0.43730498485106395	-3.2845544439851064	-0.3798078335234043
O	0.6505325848510639	-6.427456673985106	-2.2179404295234044
O	-2.9005494251489363	-7.696865463985106	-1.7623885705234044
O	-4.279550705148936	-7.334622273985106	1.7487677564765955
O	-3.1351296951489362	-9.209333783985105	4.805130506476596
O	-0.9299006001489362	-11.563464703985106	2.7339515764765956
O	3.581835814851064	-8.701793263985106	3.1560252364765953
O	2.8856138948510637	-5.482525503985107	5.032623806476596
O	1.1449706948510638	-2.2923313939851067	4.749906816476596
O	2.985490464851064	0.5732710020148937	3.0926947864765957
O	2.3209703148510634	4.108498346014893	4.307979526476595
O	3.5962798648510637	7.499510386014894	3.103823356476596
O	5.915307314851064	8.768447066014895	5.848585576476595
