37

O	6.669154597237126	-3.7239673390129706	-13.347577132190086
O	-1.3649604373808852	-8.717527951498399	-11.208928481517358
O	1.329167002615601	-12.257789890300991	-10.126073232981614
O	0.03807173962917876	-9.934985646094615	-12.626945627044638
O	-0.5030081594396947	-12.615051138396952	-8.482608374050114
O	-0.1340372204807574	-13.740136362814447	-12.365845944666084
O	0.26907987125075117	-9.969383742947528	-9.277864143658686
O	-0.0204225939080791	-9.298261902740036	-11.34915399039136
O	1.6810869805081317	-11.169164353963541	-14.459623179363136
O	1.489665920554017	-10.126887937357933	-17.01875268513255
O	-1.0846587950919195	-10.460589477671014	-13.30900873434933
O	-1.5533352023570162	-13.211419241967919	-13.43817353357528
O	3.265859052829511	-11.491427425075301	-16.68929930653161
O	-0.5195123978244567	-10.762732227553514	-14.69250109342649
O	0.37365402454390484	-11.506358502891027	-10.842833202374866
O	2.1601757313957277	-8.9465680081458	-12.999492254455228
O	0.7469711681453504	-10.118327842038056	-14.554847960045526
O	1.0414448391333986	-12.264031292504043	-13.926099910850038
O	-0.10621762534002155	-12.989663397819102	-13.475430737864087
O	3.367699972332526	-9.251444702173767	-15.45335877643593
O	4.596916018932262	-9.598922935989822	-14.904411997900953
O	5.343656880338512	-8.597776971182855	-14.372168665017538
O	5.17429851630967	-7.244424381169973	-14.649048691240607
O	6.0486652204494495	-6.236768994247454	-14.260319334846912
O	5.805277577606737	-4.883137324644883	-14.315990670726219
O	4.929260833792341	-4.605379331184242	-15.30937746923228
O	4.048677090571011	-5.588280889964296	-15.670309388532758
O	4.0222511688406986	-6.92299098752077	-15.220600935577728
O	3.3167926142945086	-7.948412422616021	-15.801391870637286
O	1.0222666438895107	-9.3134186678462	-13.421984521244466
O	0.6202353988779921	-10.175983035718765	-10.420808369518667
O	-1.0987100668479108	-11.72645710270849	-10.727434105041581
O	-1.6152687653054283	-10.947600749327338	-9.712160812003507
O	-1.6023949681461067	-11.699917898892453	-8.376657591019226
O	-0.8012963453731858	-13.820758934399192	-9.19745020367331
O	0.803379765494121	-12.081388375215841	-8.666748678388517
O	2.375051499166385	-10.660592386584117	-15.888695559293806
