79

O	-1.9006846161489372	-5.073333200340426	-0.5395147792127661
O	-1.7533234401489373	-6.062062330340425	0.489493157787234
O	-5.709967166148937	-1.0820021983404253	-0.599879729212766
O	-6.714641246148938	-0.8765400033404254	0.1507916307872339
O	-4.757323366148937	-2.207778980340425	-0.644424669212766
O	-6.250553226148938	-0.3421168953404253	-1.6631134592127659
O	-3.7285546561489373	-2.074614860340425	-1.458629009212766
O	-0.013676786148937303	-5.563126080340425	3.6026380507872338
O	-2.071156387148937	-5.645155810340426	2.9141077507872337
O	-2.5451060961489373	-2.7788444503404253	-1.2189451292127662
O	-0.6334885001489373	-2.560017440340425	7.3195502107872334
O	-2.4668069961489376	-3.840291600340425	-0.38679183921276605
O	-3.170161216148937	-3.6048562803404254	0.7626035007872339
O	-4.445037686148938	-3.096276950340425	0.381866699787234
O	-1.3497541293489372	-5.378115290340426	4.039017160787234
O	-1.2800738723489373	-5.511069390340426	1.8045608007872338
O	-0.7643549871489373	-2.508705550340425	5.896635000787234
O	0.03040051385106257	-5.454138770340426	2.229078545787234
O	0.9684721038510626	-5.3960590203404255	4.592866470787234
O	0.8132436538510626	-4.483286360340426	5.636545950787234
O	-0.44547852214893735	-3.8920177603404253	5.597591860787234
O	-1.4379394311489373	-4.8235321603404255	5.295850930787234
O	0.8815136538510626	-6.577124910340426	1.688207492787234
O	-1.3522956627489373	-3.3122112403404254	8.122731490787235
O	-0.9968024591489373	-2.8879468903404253	9.368665190787235
O	0.14955954385106263	-2.231075300340425	9.233251520787235
O	0.5950574938510627	-2.5517968103404254	7.927831670787234
O	0.6532809538510627	-1.1140454573404253	9.889683530787234
O	1.8992273438510625	-0.7250965323404253	9.550703670787234
O	2.574299083851063	-1.4732894473404254	8.625521750787234
O	1.8562673738510629	-2.1497199003404255	7.677707080787234
O	-2.1749619891489376	-4.514815130340425	8.025872190787235
O	7.680804863851064	-0.35108109734042525	-4.8408081692127665
O	10.320228673851062	-1.5209093063404253	-2.4081921492127663
O	7.845148513851063	-4.101166850340426	-1.009780239212766
O	7.862772163851064	-5.713529990340426	-4.580281389212766
O	11.465881873851064	-6.773077060340426	-4.0397195792127665
O	10.328211273851062	-9.170444870340425	-1.281240049212766
O	7.750588913851063	-11.030461490340425	-3.4237614492127664
O	10.334883873851064	-1.3471465083404253	6.454360280787234
O	7.497088863851063	-3.9448227903404254	6.368985200787233
O	6.3084561038510625	-2.572812170340425	9.676231180787235
O	5.385129233851062	0.8343304196595748	8.263550780787234
O	5.4252900738510625	0.5078811596595748	4.477796050787234
O	6.975306793851063	4.003324129659575	4.582921130787234
O	7.987420833851063	2.291714249659575	-0.4024011192127661
O	10.111057173851064	3.003757059659575	-3.462526459212766
O	-3.7327892261489373	-7.1812696303404255	-10.348107529212765
O	-9.366926516148936	6.179503899659575	7.121649700787234
O	-6.814888046148937	3.7944078996595745	8.745973310787234
O	-5.3731143261489365	2.7931761696595747	12.132247070787235
O	-2.0494908961489373	2.483777709659575	10.370639560787234
O	0.06197273385106272	5.539710299659574	10.078070750787235
O	-0.25477227614893727	7.127009689659574	6.687450220787234
O	2.1529384938510625	8.587766069659576	1.052513063787234
O	-1.1346308831489373	9.789949709659576	-0.42426918921276613
O	-9.656787486148938	0.4542306896595748	-6.4048014492127665
O	-6.286230366148937	-1.0186614803404253	-7.084743049212766
O	-5.624205196148937	-4.450645320340425	-5.4920435692127665
O	-2.9461258061489373	-7.1299806803404255	-5.016482559212767
O	-0.6537691981489373	-7.388721990340426	-8.028453749212765
O	-1.1247442201489373	-3.754766220340425	-9.016056029212764
O	1.6322021038510628	-3.068376890340425	-6.391816389212766
O	0.8203682538510626	1.6372638796595749	-6.016237879212766
O	1.7702142938510628	0.7106490796595747	-2.346853169212766
O	-0.6319867341489374	-0.4415045793404253	0.253674880787234
O	-4.448084636148938	-0.2599410493404253	1.6236713997872338
O	-6.585760426148937	-2.576811020340425	4.028269330787234
O	-8.348710276148937	-5.1793974103404254	1.749874842787234
O	-9.672860506148936	-3.939891970340425	-1.847809119212766
O	-12.408009926148937	-1.3589171493404253	-2.5613501692127656
O	-13.659066126148938	-1.4717784963404252	1.0900739397872339
O	-10.870723946148937	2.741579339659575	2.888890250787234
O	-8.694382396148937	4.139908219659574	0.03759545078723403
O	-5.653428046148937	3.184198439659575	-2.017101589212766
O	-2.326873316148937	4.226857919659574	-0.5555521692127661
O	0.3930522938510628	5.360498819659575	-3.0023932292127666
O	4.012620043851063	6.293494359659574	-2.4280506092127663
O	4.196723333851063	10.061126809659575	-3.2536063492127667
