80

O	3.5633817934166663	-1.982271276104167	-0.039763877604166664
O	-0.5932418365833338	-0.4585724261041668	3.9735635313958335
O	-0.5571702165833341	-1.2484328161041667	5.0135147313958335
O	0.5957741434166661	-2.3544811561041668	2.7536445413958335
O	-1.947774907583334	-1.0759325461041667	6.135390421395834
O	0.2276811134166663	-0.9688846061041669	2.8603086913958333
O	-1.1678370465833339	-0.1957607861041668	6.962405001395833
O	-4.434094366583334	0.4586243078958331	3.4236911813958333
O	-5.334071736583334	0.12214530989583317	2.547345301395833
O	-3.646642786583334	-0.5027310561041669	4.173313991395833
O	-3.295289057583334	-0.25110031610416694	5.518877111395834
O	1.580267743416666	-0.566433546104167	3.1403597413958333
O	-4.216735276583334	2.050080691895833	5.231030681395834
O	-3.014460986583334	1.155912425895833	5.5376177613958335
O	1.610845503416666	-2.778595176104167	1.8465235513958334
O	-4.705369836583333	1.8050210608958333	3.8677142013958337
O	2.644404123416666	-1.0728210661041668	2.345630061395833
O	2.4629340534166664	-1.8596230961041669	1.2734138953958334
O	-2.053000540583334	-2.361330126104167	6.789002971395833
O	-5.8148830465833345	2.436484603895833	3.2190467713958335
O	-9.757049666583335	2.385843193895833	-1.4935560986041665
O	-6.2452432665833335	2.299288973895833	-1.0305861686041666
O	-7.396109266583334	2.505206683895833	-1.8926824886041667
O	-8.517094156583333	2.777666293895833	-1.0956976586041667
O	-6.4286297965833334	1.090605699495833	-0.22470371760416663
O	-7.655280196583334	1.5114449828958332	-2.7634818286041667
O	-5.931192906583334	3.502346083895833	-0.3133458686041667
O	-5.7698922765833345	2.088696393895833	1.7804023913958336
O	-7.033691796583334	1.5647195028958332	1.1025670433958334
O	-9.864284186583333	1.271740464895833	-2.2581311586041664
O	-8.899251876583333	1.1869393978958331	-3.2126705586041666
O	-5.566308076583334	3.400387973895833	1.1003532183958333
O	6.664144743416665	-8.105225716104167	8.699313121395834
O	4.979058243416666	8.899218983895834	-1.2638626086041667
O	2.521151073416666	11.753975813895833	-1.6993928086041663
O	0.3210904534166663	10.203902003895832	0.9954616773958334
O	3.128964583416666	10.662004213895834	3.5545801913958335
O	2.5815223134166665	14.399975813895834	3.3249379113958333
O	0.445130203416666	12.084593913895834	8.112719421395832
O	-6.766736826583334	9.790276473895833	-1.0772969686041667
O	-9.694519746583333	8.192888893895834	-2.8064044786041666
O	-7.524943976583334	6.390533083895833	-5.3972886386041665
O	-3.976445686583334	6.456743983895833	-4.054141348604166
O	1.3904746034166662	8.299106313895834	-5.0270698486041665
O	7.399744433416666	0.3576366688958331	10.094922321395833
O	5.156294193416666	-2.050831256104167	11.971890381395832
O	-0.5959710065833339	-5.7478091161041664	11.303989181395833
O	-5.619213566583333	-6.6626566861041665	-10.131806518604167
O	-6.480212086583334	-9.211264186104167	-5.262529978604166
O	-8.408422386583334	-5.922682606104167	-4.429427968604166
O	-11.761872786583334	-4.207806276104167	-4.872860048604166
O	-9.734185016583334	-1.063304166104167	-5.121506308604166
O	-8.494884156583334	-0.1278362061041669	-8.574774098604168
O	-4.846801346583334	-0.9476466861041668	-8.939186588604167
O	1.2622002534166663	0.7781018878958331	-9.459275318604167
O	2.6693976534166657	-2.7392809861041667	-9.099177338604168
O	2.1619109534166663	-5.601746966104167	-6.618708018604167
O	5.204481063416666	-7.863616046104166	3.7358036313958336
O	5.914824773416665	-4.200459636104167	4.251159321395833
O	3.517556553416666	-2.432974176104167	6.684740351395834
O	2.2762438434166663	0.9334689228958332	8.089324741395833
O	5.312873923416666	3.2685208538958332	8.651216541395833
O	7.301612643416666	1.695573082895833	5.764283161395833
O	5.151544383416666	3.8924425238958333	3.4800554713958336
O	6.013108003416667	1.720191762895833	-0.6531905786041666
O	2.427770593416666	2.919445953895833	-1.2103187986041668
O	-0.551778436583334	0.8767175158958331	0.08169149739583337
O	-2.139690558583334	-2.671702756104167	1.0438517823958333
O	-5.103252806583334	-3.8773032661041666	2.6533468713958333
O	-3.759160946583334	-4.534081056104167	6.057082991395833
O	-0.23554402658333373	-6.252652256104167	6.224817781395833
O	0.6912196634166663	-9.741496786104166	5.163332451395833
O	-2.978353273583334	-10.729123286104167	4.708152361395833
O	-3.337603301583334	-9.540062686104166	-0.49896419860416674
O	-0.02656121658333399	-8.000777406104167	-1.6759506286041663
O	2.0356431134166657	-4.917426246104167	-1.2150933986041665
O	1.230859333416666	-2.088374206104167	-3.639507318604166
O	4.114826603416666	0.12846574889583307	-4.792275498604167
O	4.209102073416666	3.283026213895833	-6.9410607386041665
O	5.953402883416667	2.251330033895833	-10.185603118604167
