84

O	-3.433510942856522	1.0933484929673916	0.11592110517173893
O	9.301373067143478	1.5605206839673915	3.955602387171739
O	7.795319047143478	1.5284892139673913	3.873398597171739
O	7.262624567143478	0.3902017269673915	4.316773037171739
O	6.065220597143478	-0.4866370100326085	4.191143667171739
O	5.675412037143478	-1.8213878960326086	4.536222047171739
O	7.169943867143478	-1.6937775960326085	4.839232357171738
O	8.220212857143478	-1.4921003960326085	3.806612187171739
O	8.646539837143479	-2.8743300360326085	3.5819954471717392
O	7.387728537143478	-3.4286304360326083	3.161445577171739
O	6.324656547143478	-3.003954276032608	4.0857517971717385
O	7.133549077143478	-2.8488743860326085	1.825984717171739
O	6.816571527143478	-1.5644338960326085	1.953545197171739
O	8.155309537143479	-1.0748251260326085	2.4006248271717388
O	6.398544757143478	-1.1349576360326086	0.6076870671717389
O	7.167808227143478	-0.1568026040326085	0.34607739017173894
O	5.074934867143479	-0.7531954160326085	1.098528911171739
O	5.429385127143478	0.6129459819673915	1.697625203171739
O	4.3690026271434785	-1.7548421960326086	1.902010377171739
O	4.401321757143478	-3.1936094960326082	1.8404631871717387
O	3.486623087143478	-3.7457220160326083	2.896645467171739
O	2.854013127143478	-2.579093866032608	3.4914625571717393
O	2.772008237143478	-2.4719823760326083	4.922709307171739
O	1.4487560361434784	-3.462155096032608	5.337992297171739
O	1.8641269571434784	-4.805809376032609	4.913267117171738
O	1.0090000411434783	-3.525939836032608	6.724511057171739
O	0.35660599414347827	-2.894375396032608	4.154094547171739
O	0.6175750501434784	-3.2308300860326082	2.818881577171739
O	-0.10695888285652178	-2.5514267160326085	1.8400794771717388
O	-1.1021528328565215	-1.6120389860326085	2.092329637171739
O	-1.9742563928565218	-0.9991791760326085	1.197851281171739
O	-2.6895080828565217	0.14965171066739147	1.3757985221717388
O	-2.9102265028565215	0.4365784579673915	2.694046667171739
O	-2.038032682856522	-0.14832998603260852	3.607754597171739
O	-1.0175718728565217	-1.0706792760326085	3.293057367171739
O	-0.12499703285652175	-1.6225295060326086	4.178364587171739
O	3.194787097143478	-1.4350317360326086	2.717452867171739
O	2.398367017143478	-0.6031809420326085	2.211171067171739
O	-10.840117752856521	-2.2658674060326085	7.710063437171739
O	3.2594995071434782	-5.7804499660326085	-9.84075928282826
O	3.9966946971434787	-6.541737926032609	-6.160439302828261
O	1.2633394775434783	-9.24849202603261	-6.272324842828262
O	3.5575275771434782	-11.265213676032609	-8.540417952828262
O	5.977660607143478	-11.806253876032608	-5.631796852828262
O	3.3770910271434786	-13.311802476032609	-3.2915702028282605
O	10.429952587143479	-3.4936498560326084	-4.191601982828262
O	12.51535864714348	-0.5535685520326086	-2.990094342828261
O	10.172656587143479	2.141833873967392	-4.363839652828261
O	6.875749867143478	0.32088409896739145	-4.898435912828261
O	3.167733867143478	-0.9088521460326084	-9.145543362828262
O	-8.05923870285652	-8.628135746032608	2.740978897171739
O	-7.409945192856521	-8.235884016032609	6.445436967171738
O	-3.8994933128565217	-4.477159526032609	10.965874217171738
O	2.0273356861434784	11.60181992396739	5.298896837171738
O	5.123168217143478	9.478787323967392	4.550839247171739
O	8.967792727143479	9.328904643967391	4.5646609171717385
O	8.681979917143478	6.904473913967391	1.605713905171739
O	8.502177027143478	8.843827733967391	-1.7293400728282609
O	4.9490079071434785	8.953248323967392	-3.0127874928282607
O	0.46597333614347836	7.123934673967391	-7.0424868628282615
O	-2.4355332928565216	8.742086743967391	-5.142789532828261
O	-8.65075002285652	1.6118982639673916	5.129252917171739
O	-7.697311462856521	-1.1273872560326086	2.760347117171739
O	-5.1807047528565215	-3.6711603560326083	4.162999847171739
O	-2.9158383928565224	-6.613540136032609	3.305518427171739
O	-4.736419162856522	-8.973436026032608	0.8179560182717389
O	-6.661066442856522	-6.116612196032609	-0.7452009628282611
O	-3.5944059728565216	-5.399964766032609	-2.8391326928282608
O	-4.570506302856522	-1.0135068260326086	-4.190774052828261
O	-0.7597955728565216	-0.6966086330326086	-3.747707732828261
O	0.7026476671434783	0.21822845046739148	-0.3940017328282611
O	0.5557525681434783	1.9371981639673914	3.223607407171739
O	2.2339962991434783	1.8464823439673914	6.4021266271717385
O	0.2106300871434783	-0.6216078100326086	8.47349078717174
O	-3.513728382856522	-0.3027704930326085	8.035541797171739
O	-5.760681762856522	2.5022953639673915	9.168973587171738
O	-2.9890222628565217	4.180590573967391	11.183732017171739
O	-1.2620066228565217	7.396936003967391	7.285076727171739
O	-3.3542725028565217	6.775467453967392	4.1410568971717385
O	-3.8006698728565222	4.159232183967391	1.554682948171739
O	-1.6156620728565219	4.455590413967391	-1.510012582828261
O	-3.0153181628565218	3.4535189339673917	-4.930068712828262
O	-1.3964142428565218	3.1292344339673916	-8.405423242828261
O	-2.8948236628565223	5.9471878539673915	-10.51027818282826
