81

O	-2.3993494581538464	3.362585993884615	-3.5701159587705766
O	-1.0234745231538465	2.9817330238846154	-4.054994608770577
O	-2.7876920181538463	4.105456803884615	-4.692417648770577
O	-2.9405305281538467	2.2341979068846154	-2.844989267770577
O	-0.5411333741538464	4.115782353884615	-4.845851128770576
O	-0.9196888491538464	1.895948280884615	-5.110777958770576
O	-1.7087678311538463	5.0236426538846155	-4.907938628770577
O	-2.8284005081538464	3.8227549338846147	-6.056676428770577
O	-2.9610813081538465	1.8139235568846153	-1.5782218487705768
O	-3.1205017681538463	1.1155773568846152	-3.624473638770577
O	0.2935124318461535	3.598168403884615	-5.873103058770576
O	0.04009710184615356	2.2457557878846153	-6.112832828770577
O	-0.7517351841538464	0.6390209788846152	-4.890479078770577
O	-1.4779890783538465	5.583216523884615	-6.226450658770577
O	-1.5466799271538465	4.273159963884615	-7.0133201587705765
O	-4.128252768153846	1.0833187348846152	-1.2376604707705767
O	-4.1336538481538465	0.1946847638846152	-3.273863708770577
O	1.5038543118461536	3.8580498938846155	-6.020753588770576
O	0.5174823318461537	1.534392771884615	-7.255256198770577
O	-4.498914618153846	-0.02107216611538476	-1.9337155113705768
O	1.8814226818461537	1.9581447608846152	-7.723823948770577
O	-5.317914338153846	-1.115533216115385	-1.4751830577705767
O	2.8282544818461535	0.9238334888846151	-7.215260408770577
O	-5.196096788153846	-1.7825302461153847	-0.3615437687705767
O	-6.123894838153847	-1.9376217761153847	-2.3209531757705766
O	3.9420369518461538	0.5855718558846151	-8.045891258770578
O	3.455780041846153	-0.05368567611538477	-9.234841528770577
O	4.7658143918461535	-0.3613644061153849	-7.338648978770577
O	4.712172021846153	1.7707361218846152	-8.276062188770577
O	-13.442901228153845	1.286828158884615	1.6303753512294232
O	-1.7237183981538464	12.198730193884616	2.2860361812294236
O	-0.5511072881538465	9.170167713884615	4.248844311229424
O	5.850199011846153	3.554912163884615	4.488848661229423
O	9.027491471846155	4.515878203884615	2.632754901229423
O	6.957435691846153	5.411915233884615	-0.36582729877057685
O	5.151676361846153	8.120515143884615	1.7102126512294231
O	8.417476681846153	10.054444173884615	1.772522531229423
O	8.097249931846154	10.722036503884615	-1.9587664767005768
O	4.605327041846153	12.267618793884616	-1.7600522127705767
O	9.727554971846153	2.326371070884615	-6.522967488770576
O	10.203365571846154	-0.5719102961153848	-8.979392708770577
O	9.484370771846153	-3.319143296115385	-6.4281041587705765
O	7.870904431846154	-1.568745916115385	-3.412929298770577
O	8.386847021846155	-0.29935167611538493	2.1143383412294234
O	9.195435271846154	0.9755792798846152	5.589588661229423
O	-6.481443348153847	-1.2624012761153847	8.976269001229422
O	-7.789083748153847	7.620781213884616	2.592000661229423
O	-10.295617168153846	7.253559733884615	-0.16931925877057674
O	-11.671182128153847	3.417573103884615	-5.775332158770577
O	-0.7189358671538464	-10.347944706115385	-8.937092108770576
O	3.890800311846153	-8.007265326115384	-9.541525958770578
O	6.2379059418461535	-9.851817106115385	-7.221418788770577
O	4.854610021846153	-10.090547706115384	-3.708762498770577
O	4.938204931846153	-8.249430776115384	2.2687400612294235
O	1.6083350418461537	-9.838883706115384	3.098285481229423
O	-10.069497008153846	-2.559712386115385	1.5169756312294234
O	-7.617481948153847	0.19056880388461517	2.169602721229423
O	-7.093661828153847	2.733428763884615	-0.5940258187705767
O	-5.100699058153847	5.748423513884616	-1.4995403177705766
O	-4.161698128153846	7.961260083884615	1.3654100212294233
O	-4.274416398153846	5.074577433884615	3.752980521229423
O	-0.6821035261538464	4.377134773884615	2.567677521229423
O	1.7420909618461538	4.279288463884615	5.533959991229423
O	1.5228277618461534	-4.214772636115384	8.879638001229424
O	2.143526871846154	-0.945376486115385	7.099886031229423
O	-0.4061053731538464	-0.06837630611538481	4.409161681229423
O	1.7015449018461537	-0.31252439611538474	1.1931433612294233
O	0.0275562718461535	-1.067705596115385	-2.1261601617705765
O	-2.8051439181538464	-2.7637727761153847	-4.138156378770576
O	-4.152409468153847	-3.2714451461153846	-7.628144388770576
O	-6.924860878153846	-0.5552834761153849	-7.398613468770577
O	-9.064991888153846	-0.6527763061153846	-4.245550488770577
O	-11.320285898153847	-3.494361606115385	-3.221782488770577
O	-11.136898788153847	-5.2377415661153846	-6.636501598770577
O	-7.044531738153847	-8.530506086115384	-5.490576308770576
O	-4.247045648153846	-5.0907825961153845	0.0205890212294233
O	-0.47621362215384644	-5.408477996115384	0.21223501122942334
O	1.1231184918461536	-4.545289076115385	3.558394201229423
O	4.7381307118461535	-4.318564016115385	4.651849741229423
O	5.320948551846153	-7.218388076115385	7.0789232812294225
O	6.427099281846154	-5.598294206115384	10.341298301229422
