29

O	7.226329700423253	-3.1737265806175983	-13.518608325191419
O	-2.9021912117234017	-10.155643865180298	-13.80286281589267
O	-1.8081021434338336	-9.405309441002103	-14.03157375183618
O	-0.5723770294109141	-8.696764310895007	-14.277379437276718
O	-0.4249484405399562	-8.64594213281033	-15.44476799438864
O	0.715371194892227	-8.046482999018105	-13.650007857575629
O	-0.33792203265378884	-7.865230727839481	-12.420676531553916
O	-0.7336214905883685	-8.863255007374267	-11.452391813163997
O	0.18886746480337901	-9.956164570883944	-11.554710887989762
O	1.3198242623974927	-9.07858396170408	-11.29239826683753
O	1.3529757938607059	-8.175915092555794	-12.36668664689154
O	0.5186549352241139	-10.951435673584069	-12.555162379202661
O	-0.030248499032843768	-11.854790796327867	-13.565467948863864
O	0.37899343362759996	-11.55992463345114	-14.821045539527413
O	1.5037128179832076	-10.847753543045178	-14.818588290445899
O	2.188881190405736	-10.079445404214368	-15.652820236177496
O	2.5281310580459726	-9.045091900473599	-16.783338360689882
O	3.4799927691734043	-9.65673490289442	-17.801292197987266
O	1.4857065162078227	-8.512734807438553	-17.72915688749314
O	3.378170013447259	-7.694590336267164	-16.12786518066272
O	4.593746139979376	-7.599108706299069	-15.70761791408922
O	4.9342536758617594	-6.196861644292026	-15.487175652188656
O	4.569594419743142	-4.992886655409834	-15.918441054269909
O	5.4726314905992455	-3.9612130546563025	-15.666997077976664
O	6.06986182341018	-4.074251991486259	-14.431786674510006
O	6.039398520559887	-5.7901335346147125	-14.31236773115742
O	1.731520857573662	-10.614911145590721	-13.395276090652454
O	2.864283261717496	-10.19364351689174	-13.100438205447029
O	2.2128949145955237	-9.942207502926792	-10.708980455524014
