30

O	7.292695196409797	-3.0550419586156554	-13.55652786602032
O	6.063868241505525	-3.9569682590657838	-14.389381063666335
O	2.2086405162458096	-10.083636261918693	-15.768966450465221
O	1.5933472828105453	-8.335436624971917	-17.734157025329228
O	2.7388411293864947	-8.942322452681662	-16.95066074380419
O	5.455531247026074	-3.8475126239286506	-15.611178621909264
O	0.6016785646444802	-10.166564800546428	-13.375133787230947
O	3.4755507705597553	-9.718251695983657	-17.96178383757504
O	6.087121123051758	-5.67509095925478	-14.281694992200187
O	4.630820920848768	-4.917472977314817	-15.924649484180868
O	-1.0925812795167582	-11.796684185576662	-9.078608130927503
O	2.000155852002962	-8.329865506300163	-13.698440518820203
O	5.013023317034886	-6.1047797743332834	-15.482332605347334
O	4.739999552622457	-7.525275723335416	-15.681822692657903
O	3.571317095660409	-7.701028060342125	-16.167536969679173
O	-2.446562858533225	-11.877275083347365	-9.54875069480947
O	-2.138290995637367	-9.935280810174254	-8.113188369345083
O	-0.6641612765091471	-12.925200439427734	-8.303756949119089
O	0.9300286837921838	-9.536109262286402	-15.474304821244074
O	-0.09896797943192936	-10.596875783225865	-15.486412639976425
O	-0.17086408041186463	-11.143486159374502	-14.094226235000683
O	0.27444314081657506	-9.936868167800984	-12.024262385795343
O	1.420852651150919	-9.736266004792304	-11.258509363361613
O	-0.6923254655189535	-8.954367775197522	-11.721280143786618
O	1.1559355575754768	-9.66494268612104	-9.892566703734307
O	-1.0559891757360989	-9.24211233517255	-10.437796131658349
O	-0.12144367758321639	-9.582292240924474	-9.448485307110225
O	-0.7907511513224055	-10.512494214877545	-8.41944943591129
O	1.0652620609119565	-9.060563187996777	-14.080852979824552
O	2.4521369936693374	-10.582083455160092	-11.592756737288767
