42

O	7.978991687160855	40.48342141040917	34.014247394140064
O	7.210844177588629	40.00694413269828	35.19755944339421
O	5.7495530882984465	40.30270433806528	34.82714606356814
O	5.986608052705309	41.76630652341881	34.679475967730525
O	7.185517971678321	41.713365904505515	33.831037163981904
O	13.887998244953275	37.355284176123824	26.80945864865283
O	13.252789735195842	38.45446144553947	26.417537743973533
O	12.442988758227996	39.04545521894005	27.36078817677075
O	14.337742206520417	37.59142216011082	28.077734748858973
O	13.592245830431457	38.16473584445325	29.059571703482924
O	12.41509707530551	38.73073027741252	28.686629205169492
O	11.791404462129279	39.52910942034678	29.659337031035463
O	11.732025561795906	39.11956526894495	30.991979378515566
O	12.71061055840888	38.195295904562144	31.232501846024437
O	13.826126394475326	38.109231861820774	30.377841612200907
O	11.15104191819584	39.706681594923744	32.12607398832836
O	9.802591691974637	40.148687379512396	32.268087526451424
O	9.362491637469391	40.46136472803501	33.689432037503096
O	10.295194443585727	41.208457824198845	34.1146243261061
O	15.49474306976822	36.93310090068683	28.335441344156166
O	7.690860149535668	40.885518264050525	36.248618110475384
O	8.551541572887425	41.858019066730265	35.74299871933858
O	8.284383636948508	43.134730429222024	35.56765869225795
O	7.805216988803123	43.32038098844444	36.81650664488079
O	6.915393567092844	42.67791648478136	37.6240083400196
O	6.687312839696734	41.391395932304064	37.08008468251796
O	6.103571953441426	40.094218750161794	38.064543476953695
O	5.232105433394727	40.78359175059449	39.070246288638764
O	5.157836440473343	39.143918552948755	37.47486195542618
O	7.45659191715142	39.44493663815425	38.96663983193048
O	7.170064384121968	38.01148742421159	39.16048250906956
O	7.5773495532471475	40.08356957467313	40.31598648177826
O	8.931597361448315	44.19630842056844	34.95988956558722
O	8.081106966880649	45.30019288407722	34.58212423444005
O	7.033876855336832	44.87718299111296	33.996458889986144
O	9.765256492113899	41.540530552739455	31.654272346488998
O	10.3338974966222	42.61853361111676	32.38906218367012
O	10.132177151084461	43.92429362595773	31.917407473605323
O	8.969286924896338	44.19588875814572	31.264224630759287
O	8.155490941857245	43.153575051783434	30.948739300931955
O	8.428871432731317	41.91089038126718	31.42587563141502
O	8.835698042707822	46.34075005155421	33.85815394980843
