46

O	10.530278446317826	45.096541307732195	31.509772840747196
O	10.883094092567235	46.38744345622651	32.05778664567803
O	11.315777114121378	43.803700543575474	31.46440885530369
O	10.77018064784071	42.88768480065472	30.547988057337914
O	10.354124830011248	41.616819033975936	30.9884456201188
O	10.095106256439106	41.36364416832868	32.29821091845822
O	11.15526033249413	41.939927922150844	32.9903892488994
O	11.520844466220401	43.286767922770665	32.74756247284766
O	12.43363232323431	43.69991021821489	33.88874029714634
O	9.81816365985739	39.91168924704368	32.46309358807349
O	9.070639150556856	44.86410672767402	31.73175695154326
O	11.023646107354534	39.22823308253491	32.223362911641864
O	9.028264635779504	39.71342793617952	33.68870831278508
O	11.797739554132844	39.00349229120568	31.08976363661747
O	11.848012913079623	39.47763076128753	29.807277039571186
O	12.478262936627782	38.801291363385	28.751135384140078
O	13.569692828813148	38.05569622587548	29.082846661642037
O	13.866698258678861	37.92738956504895	30.390471160699605
O	12.801466529227373	38.055724869456114	31.296436413530465
O	12.626821727499664	39.32942937132434	27.473726869506535
O	13.42680529088612	38.757061514806644	26.505012231053804
O	13.80153033096365	37.46794489254557	26.791404536878833
O	14.108552809932617	37.3000820419928	28.078379195559304
O	9.718481612642234	39.62815581951169	34.77105588331546
O	7.65029935515472	39.94529218680975	33.89534831714113
O	6.900004015841505	41.14884580993491	34.09407033308321
O	7.248327123856386	42.12470814131085	35.101932317263
O	7.759651472192387	41.875549810213876	36.38242952077932
O	8.939922311621668	42.433206148974755	36.67047077810815
O	9.691418092956539	42.49316085705626	35.40284887299802
O	9.036118536508784	43.626946432043894	34.89520040456576
O	7.88951833067892	43.1050169683251	34.38718906772663
O	9.501705597876297	44.93628332221827	34.751233346894104
O	10.109238994792998	46.53924927721856	33.249558097226696
O	9.071351673889497	45.9002771323508	33.83455202243083
O	7.977584787745295	46.566530177015046	33.8240613433463
O	6.5749471558960595	38.95151212401038	34.14240786936063
O	15.345374861775191	36.69526082517052	28.224226686512786
O	7.048548017618224	40.74970182530355	37.029310015468546
O	5.617260728279394	40.666793650753846	36.843878704033365
O	4.598357035710684	39.824863865473915	36.55456573477447
O	3.8924545549678555	40.39622110571717	35.54797592560477
O	3.92231595180178	41.69278001830145	35.74627560752058
O	4.894501009235984	41.846544795406096	36.66471411295554
O	7.649227891980974	39.41588075983657	37.198641329011764
O	7.524155291037625	40.310167829980045	38.30905790998481
