35

O	7.161171700701938	39.918786704243054	33.13767810429072
O	6.3572292214002495	40.93230800549311	32.5928518244314
O	6.156827468660988	40.916645944800344	31.21682773736424
O	6.33242612086951	39.672682120456614	30.61091264357909
O	7.531239370611493	39.1691713252694	31.14585745122796
O	7.3848822150397995	38.71323402375584	32.48372640521658
O	11.767686561279755	38.993965897148485	30.22926055318897
O	12.638855464024937	39.08416558544227	31.24373468967184
O	11.964079249651789	39.56747076128405	32.403132775396614
O	11.464616360555082	40.892770848020774	32.01540919319516
O	10.532233541576653	40.86771501331946	30.852175818330164
O	10.455289630181468	39.48926279704732	30.411690544589245
O	13.674069725148158	37.93853978116926	29.08361856818261
O	14.030886932289262	37.43335119555763	30.358637397606003
O	13.348879470947313	37.9145886832507	31.459865781059516
O	12.334577978322919	38.3360510681819	29.120479814847435
O	14.579157396369977	37.54245219146309	28.055016378923465
O	14.424839873687024	37.5172408942936	26.661254199315312
O	15.612589708598762	36.75199256118034	28.26322000306463
O	9.92160551928402	39.4584445392266	29.012422279788616
O	10.43466154859177	40.93053989929541	33.137051593191686
O	9.698297605062066	39.87394880678434	33.524674168723415
O	8.396507281007988	40.195110244668946	34.018142539190194
O	8.357077228888867	41.47904316209032	34.39253563890848
O	9.262058061261587	42.543890406266485	34.20185836345568
O	9.73184401248929	42.14935111195791	32.89781221371102
O	9.542753169348334	38.197383091328746	28.651135415457837
O	8.299423356524759	37.94865297308349	28.083256203059666
O	7.634597472457723	39.02059026302501	27.563255987186643
O	8.085830584666919	40.27417988976106	27.83914560911353
O	9.195046687251027	40.52902154416811	28.596483802667887
O	8.794580140548662	43.89965500429023	34.20800168582857
O	7.331587842496803	37.63537721700175	33.421292658131314
O	6.106126443719481	37.31893404557614	34.04517997635216
O	8.173046108657623	37.73279010351679	34.402246879491905
