80

O	-2.8916638827500005	3.45441412015625	-4.8158643505
O	1.8286415542499994	3.4375164001562504	3.0443089295
O	-4.1419036057500005	1.5096097211562503	-3.9448273704999997
O	-5.2339665357500005	4.63776315015625	-1.6441680794999995
O	0.24503009424999966	4.517946820156251	3.7398140895000003
O	-1.5972448257500003	3.87082507015625	-5.0144630105
O	-8.07952078575	-0.8314607198437498	-2.4180917605
O	-2.53389421575	2.0488058001562504	-5.4599145205
O	-5.486669395750001	4.19540732015625	-0.2167854994999997
O	-3.87025042575	4.257791060156251	-2.4763541104999995
O	-5.54703145575	6.10229042015625	-1.4011655264999998
O	-3.99644032575	3.66977106015625	-3.9149037604999997
O	-9.72838476575	-0.08392604984374974	-2.6382654205
O	-7.582808235750001	3.35532026015625	-0.2550410974999997
O	-7.80630874575	3.73595415015625	-1.6793253904999996
O	-6.60200447575	4.09448934015625	-2.4944078005
O	-4.4658664657500005	2.42349599915625	-3.2915330605
O	0.4892431142499998	2.25140069015625	-0.6508015904999996
O	0.8421998642499999	2.62158354615625	0.6415932095000004
O	-5.08484032575	2.12095203215625	-2.0129118704999995
O	-4.51316240575	0.7378060691562502	-2.0140117705
O	-5.62370622575	0.20754576015625026	-2.7190819404999997
O	-6.94232434575	0.49092367015625027	-1.9581043504999998
O	0.16038587424999973	3.54048512015625	1.3820146795000001
O	-0.8711577157500003	3.99257733015625	0.6419693395000002
O	-1.1419114557500003	3.7329763201562502	-0.7008398273999997
O	-0.7672747557500004	2.4890672461562504	-1.1146707254999997
O	0.7882907542499997	4.01149209015625	2.5803433095000003
O	-3.24984518775	1.1014743491562502	-1.6878487174999997
O	-3.22738920475	2.1190989841562504	-0.8832391284999996
O	-2.2397353137500002	1.1840611321562502	-2.6094435304999997
O	-1.0786741757500002	2.0793183111562503	-2.4747521604999996
O	3.41349049425	3.46007161015625	-12.6183852105
O	4.963887714249999	1.7197881846562502	-9.6318540105
O	8.18507123425	0.5017427401562502	-8.113301480499999
O	2.5271034442499993	-5.45421146984375	-6.4663919705
O	-2.50156192375	-3.7878401798437498	-7.7947559805
O	-0.08888935575000012	-1.9356890098437498	-10.037026770499999
O	-8.741434475750001	-10.05216970984375	-7.0293936005
O	-8.40707713575	-6.70346762984375	-8.8580125605
O	-9.51405502575	-3.6937039598437496	-6.828160320499999
O	-8.75925197575	-5.54081037984375	-3.5434217305
O	-5.7346003557500005	-6.02053335984375	-1.2030567274999997
O	-5.02459105575	-9.64249750984375	-0.44244785749999965
O	-2.22794904175	-11.46062390984375	-2.3039952704999997
O	-0.7502248257500004	-8.20817352984375	-3.5864531604999996
O	0.23258448424999978	12.87800269015625	1.1961256095000001
O	-1.5805546747500003	14.77987759015625	-1.6624960964999995
O	-10.35343906575	-0.3175764598437498	5.9249906095
O	-9.46230837575	-3.7901339598437493	4.5336817595
O	-8.623494075750001	-6.755266279843751	6.7967752795
O	-4.942147615750001	-7.2686576698437495	7.5495325295
O	5.700605454249999	2.36330246015625	10.1120778895
O	4.4294527842499996	4.97311506015625	12.5522784895
O	5.33064884425	6.14589210015625	5.6265488095
O	5.47970426425	4.89459712015625	2.0516359395
O	2.84064927425	6.1810616201562505	-0.2839119244999997
O	1.0178477942499997	5.14131977015625	-3.2605931905
O	3.6015025242499994	6.0569145101562505	-5.8039882005
O	5.943180774249999	3.6471950801562505	-3.9578164704999996
O	3.42377238425	0.7444576751562503	-4.654000970499999
O	5.33336586425	-2.3845374598437497	-5.6390092305
O	8.716156234249999	-1.26995161984375	-4.236791140499999
O	10.96585363425	-3.11130964984375	-1.7488822554999996
O	6.261625074249999	-5.13263766984375	-1.0540744374999997
O	4.82573943425	-1.6542677398437498	-0.6837812194999997
O	1.0775966742499996	-2.58784972984375	-0.9161695114999997
O	-1.4203365287500003	-0.34070957984374983	0.9334316695000003
O	-2.6252875967500002	2.1026977641562503	3.5307310895000006
O	-5.21400899575	4.63495998015625	4.4661781395
O	-3.80460382575	7.69377103015625	2.8223242195
O	-0.14848534575000016	8.041088050156251	3.5749753895000005
O	1.4634356442499996	8.97052760015625	6.9108417695
O	-2.07283048275	9.32530721015625	8.2682760195
O	-2.5045601857500004	4.27259703015625	10.640477089500001
O	0.46389686424999965	2.2373875061562503	9.4801556895
O	1.6540433142499995	1.1638373131562503	6.0798172695
O	0.6932996242499998	-2.2802678298437495	4.9517621795
O	3.1498166042499993	-4.60196077984375	3.0920919695
O	2.8073615042499998	-7.934664619843749	1.2634618895000003
