34

O	11.38191471412224	43.02956993334517	28.944773731626483
O	11.144043756531735	43.0779515744435	30.33210463181804
O	8.461080207118638	41.81875719242257	32.5277427722819
O	9.897090906409733	38.79542337694838	33.820301487933044
O	10.259851602507016	42.05727451259162	30.966054414090124
O	10.905149685303508	41.45669228931957	31.88895936519815
O	11.099648905279413	44.446002628080414	30.808398058863634
O	7.541600409086796	42.52684043136734	33.36917627916059
O	10.343684383869753	38.38281507583594	32.46153833048383
O	10.588889197472945	44.73834357568835	32.19834131001205
O	8.314240565913195	43.441404194937746	34.29890195539655
O	11.680581587863996	38.370721325675696	31.87197629898612
O	11.905636213951514	38.40832539647758	30.391568872692254
O	11.288989272171447	44.530508707033064	33.38158760796117
O	8.008740563757136	43.15276478861159	35.65537593368799
O	9.996574357423803	45.95979017351366	32.23213496434025
O	7.861664687315599	44.743308032847345	34.09716279549112
O	11.353680378904363	45.42311157918828	34.41084952166203
O	8.613956846857683	44.00297434647649	36.536515474686794
O	10.37941342413114	47.030043980931495	33.026603921873175
O	8.11875381352845	45.70985899682645	35.025313735448755
O	13.042342627715113	38.025520140834026	29.733646367391906
O	11.181308844905251	46.750725540570855	34.12884991869265
O	8.605359466129746	45.32780853724178	36.236372441565884
O	13.618506920392422	37.761164473145314	28.513112853551252
O	12.77357393771765	37.670204325711126	27.593743514349782
O	14.73678832539912	36.98269663712259	28.140153863478798
O	9.381420413108017	41.03429911861357	33.3316720590653
O	9.221621579486179	42.739968008070406	31.749124963031193
O	9.782067172489587	41.816458950244275	34.199561942396045
O	8.545406581068578	38.74743922342209	34.45534362260157
O	10.286589727887334	40.12193860331301	33.88131838183145
O	7.4013835507575205	39.322480401788	33.78456938462402
O	8.283623522312453	39.946520526243965	35.421695945765016
