86

O	6.406872711166667	0.8072559436125004	4.041308811001458
O	1.5501163981666666	4.658984993612501	-2.0237993289985416
O	3.9227424011666665	0.22970538361250048	3.699411321001458
O	5.145524861166667	4.3472687736125	3.381265401001458
O	2.6948215711666665	2.1100528189125005	7.7137503210014575
O	0.20304926416666658	3.4463255236125008	-3.040155888998542
O	3.1594942311666667	2.4094795486125005	8.831759381001458
O	6.027698921166667	-0.14253671638749932	2.930866871001458
O	2.217593841166667	0.7641181136125004	7.587933121001457
O	6.354122251166666	5.2566847936125	3.5979549910014583
O	6.400619451166667	0.1914409436125004	5.401970131001458
O	5.731062671166667	2.8509621456125007	3.119189061001458
O	4.085848891166666	5.130645403612501	2.913281451001458
O	5.390967041166666	1.9017235216125004	4.076472241001458
O	5.125185571166666	0.6692043236125005	6.093957781001458
O	6.895666941166667	3.9200327936125006	5.3244498110014575
O	5.552609211166667	3.7448722836125006	5.7064184910014575
O	4.385300731166667	4.3040113036125005	5.009338981001458
O	7.548090751166667	2.7466915266125005	7.221335661001458
O	6.391484011166666	3.2155511436125	7.833503371001457
O	7.918298151166667	3.2637632036125	6.012090651001458
O	5.426293541166666	3.8360569936125004	7.049277731001458
O	4.040928551166667	1.3870264196125004	4.103552341001458
O	-0.6702123188333333	1.6680542586125005	0.762113013001458
O	-0.3645904288333335	2.2362195406125003	-0.43078623899854196
O	2.8847612711666666	2.0409280134125005	4.461106561001458
O	2.0093802311666664	1.5385682156125005	5.431943531001457
O	1.1230343311666666	2.6208395286125006	5.969179841001457
O	2.0836210711666667	3.2470590136125006	6.986230161001457
O	0.5790019191666667	3.1975693736125006	-0.5096859089985419
O	0.9324423648666667	3.6410345336125003	0.713098596001458
O	0.6529495291666666	3.0394508766125004	1.9355247020014579
O	-0.0541528128333334	1.8806673836125005	1.9558622790014581
O	0.6230437741666666	3.8728847236125006	-1.7823587089985422
O	1.2493678041666667	0.4828506836125004	4.848884171001458
O	1.9244777311666665	-0.33262840638749935	4.247979331001458
O	0.1032003351666666	0.6446633236125006	4.183161461001458
O	-0.48785984883333344	0.9502479736125005	2.978205591001458
O	-10.113586258833333	2.1030244132125007	8.817911441001458
O	-9.654718758833333	0.7748365636125005	5.293923601001458
O	-11.413510458833334	-0.07441151638749943	2.064365611001458
O	-5.845521358833333	-6.284243036387499	3.2925689310014583
O	-2.454195578833333	-5.057414146387499	7.457224111001458
O	-5.720182568833334	-3.2433504663874992	8.100782881001459
O	3.0957059311666666	-11.5894054963875	9.726918551001459
O	1.8811432221666666	-8.3302685963875	11.367592921001458
O	3.9698787111666665	-5.1984457763875	10.598308131001458
O	5.157296391166666	-6.7971335263874995	7.332025101001458
O	3.9826249811666665	-6.8741737663875	3.6672148310014583
O	3.8571614311666664	-10.3227357963875	2.266606581001458
O	0.5015501391666666	-12.095097496387499	2.011280949001458
O	-1.4408897988333336	-8.8955580963875	2.587448981001458
O	0.5291730851666666	12.5124183036125	0.610258775001458
O	0.4708844641666666	13.9514213036125	4.211219381001458
O	11.842963741166667	-0.8483783363874995	1.188346632931458
O	10.340682461166667	-4.398483696387499	1.326664124001458
O	10.923846341166666	-7.0770244763875	-1.3482453289985419
O	8.334556951166666	-7.2906257963875	-4.1242723389985425
O	1.0618139261666666	3.2687542236125005	-11.04088237899854
O	3.438145511166667	6.0105439836125	-12.097834178998541
O	-1.0888521188333333	9.340827623612501	-9.478627478998542
O	-1.2343701288333335	6.6159954736125	-6.789083938998542
O	-3.369336028833333	5.0508293536125	-4.037732758998542
O	-2.4990310988333335	5.9513371636125	-0.4720604789985421
O	-2.556886438833333	4.5161002736125	2.926456801001458
O	-6.251289458833334	5.3879020836125004	3.5299999110014584
O	-7.120247038833334	3.3173872736125007	0.43472427800145796
O	-5.585784028833334	0.16218006361250037	1.919214744001458
O	-7.660075048833335	-2.9512371663874997	1.352648806001458
O	-9.546384658833334	-1.4164237163874995	-1.5481559489985421
O	-9.910181158833334	-2.8932302363874993	-5.0296469389985425
O	-5.680209668833333	-5.136936396387499	-3.132241128998542
O	-4.295551818833333	-1.7401857663874996	-2.179403298998542
O	-1.3589084088333334	-2.9580567963874995	-0.042979338998542005
O	1.7172133141666666	-0.6849738563874994	0.28212406100145804
O	4.179565871166666	1.8874541996125005	-0.9975623489985421
O	6.867738721166667	4.363336843612501	-0.177270948998542
O	4.757975301166667	7.362257163612501	0.795726181001458
O	2.130743551166667	8.0002985636125	-1.8561363989985422
O	2.6384525511666665	9.3377185136125	-5.386430858998542
O	6.327562761166666	9.6336228136125	-4.580192988998542
O	8.080403251166667	4.754924623612501	-6.706827398998542
O	4.999790261166666	2.8085714466125005	-7.570492168998542
O	2.1299940111666666	1.5106384616125004	-5.545695828998542
O	2.3116726211666667	-2.070156546387499	-4.449379398998542
O	-0.7288276188333334	-4.394430226387499	-4.570402438998542
