32

O	8.553523603006706	39.9407418075018	33.4876292613244
O	14.988217340190854	36.71106122393734	27.81067825044464
O	9.79973215584012	42.07388943232818	33.514357325355
O	8.322640401546268	41.71117349677395	29.77836808671935
O	13.859267598036093	37.61573500765101	26.373347251321185
O	8.761648186292676	38.59724585360706	33.6877866540407
O	10.415300860729698	46.79032382385097	32.68208135620845
O	9.363623768909367	40.25967226316127	34.81448855718544
O	9.279269129420516	42.29931030086566	28.760568979747298
O	8.783301083778937	40.63495878957621	30.929970295774307
O	7.277341378588043	41.282029802227505	28.765902950773235
O	8.366733035155097	40.88240576932288	32.411981618219954
O	8.999184852007726	47.81901753592116	32.16979077017369
O	8.865947406129607	44.51883898342825	28.822741128271744
O	7.731036298685463	44.37227184306792	29.778730267875225
O	7.607402560628549	43.06981597606109	30.50782491578696
O	9.355805592470803	41.9701674302236	32.437740182695194
O	13.214371602139655	38.061739660414865	31.25797276534036
O	13.81200147467991	37.71105730705581	30.053083328170295
O	9.962820917632156	42.7892217193313	31.40322768622067
O	11.201773826366166	42.98068193260971	32.220692233237635
O	10.675880013473911	44.12619547154142	32.870955215230765
O	10.266075620210241	45.2037816822031	31.837024851712936
O	13.24341509396768	37.92270598260351	28.832678174664366
O	12.045859026029323	38.51015200523217	29.024780450315323
O	11.382105979383061	38.72986408815192	30.231012278992775
O	12.209834703766003	38.978607086855725	31.285483963304834
O	13.848776729605945	37.275028830976815	27.707442551804792
O	11.713391868413469	41.7457196472443	32.002237475696376
O	11.44007529690066	41.30792316482662	30.811820300349297
O	11.635475712874253	40.736040843786746	32.924710955088386
O	11.623232139213263	39.30586081090422	32.57524662740167
