34

O	11.522350118358005	43.06340560965059	29.090832383826168
O	10.722566100910738	43.073086146292084	30.256273821568456
O	9.657603375633958	42.13295407661703	33.51138639772983
O	9.958587943213246	38.69467232023339	33.74025944058441
O	10.370668887473443	41.950629960751236	31.09780306906465
O	9.314798118243857	41.236022577012804	31.231499835920125
O	11.238275580120007	44.365555395446	30.881634309278812
O	8.245757441008323	42.56210551947632	33.22492739175903
O	10.54198930649025	38.45090394851887	32.41212804063463
O	10.582931934981502	44.64915461546688	32.23807914102265
O	8.353508336204712	43.48208791689853	34.41983820272799
O	11.84477381570442	38.238301849630574	31.84089546733326
O	12.126877712799992	38.27156768694042	30.382278876699626
O	11.258600189073515	44.84713801947131	33.39538860133041
O	7.398432304798138	44.42168320942416	34.27019109838199
O	9.515617446529081	45.47436107032907	32.09232410137954
O	9.051354729140009	43.51528502466082	35.5703555959221
O	10.951661881617394	45.82507017216785	34.24916642660052
O	7.5924149337877465	45.59906812888765	34.924189421780255
O	9.596857198957204	46.774235796633555	32.62221365157095
O	8.64919462141522	44.33380743284877	36.577513237315735
O	13.230989821080678	37.98805282268304	29.67000460451502
O	10.352625940454	46.982433464089375	33.753419390309794
O	8.197326988405363	45.54139520162141	36.137415142110505
O	13.799468216601516	37.71115822792941	28.459106272419135
O	12.953189690363455	37.705338907928606	27.5363384846129
O	14.901805991369931	36.91085756753002	28.080211906341756
O	9.556811211806458	40.9483707006214	34.25226556439838
O	10.524944616599967	42.3486818816897	32.49288275778384
O	8.69057482426131	40.999070565194174	35.1175900410384
O	8.528366067843368	38.60369080811383	34.134300159243296
O	10.49408282803498	39.92223816958017	34.23440542849621
O	7.485250880840098	39.49110055263026	33.73348819130148
O	8.256918742621147	38.67264157996567	35.59912521101623
