74

O	5.80804670817742	-0.11014102717741936	-0.07560223848709713
O	2.3727195681774194	3.112685465822581	-1.9475222573870972
O	2.8058734381774193	1.7716873358225804	-1.4791529573870972
O	0.9184530481774195	3.1942543058225805	-1.913316097387097
O	1.9984634981774194	0.7138549218225806	-1.2368638773870972
O	4.02333447817742	1.5916412358225807	-0.9784106563870971
O	3.1127977881774194	4.0949752858225805	-1.6378066373870972
O	2.0441554581774195	0.13055152382258062	-0.007770757187097136
O	4.29152150817742	0.3633037508225806	-0.4988734523870971
O	0.4018630611774193	2.0507722558225807	-1.1501152573870972
O	3.3321094981774193	-0.23148708417741937	0.2755782646129029
O	0.7381638681774193	0.8271371558225806	-1.8476944373870972
O	-4.9500425218225805	7.48960242582258	2.969569352612903
O	5.29932285817742	-2.679805894177419	9.881396552612904
O	1.9049922781774193	-4.291159794177419	10.181376362612903
O	10.61920007817742	-6.3586761141774195	2.900192212612903
O	15.697107178177419	-4.557492204177419	-1.8607252173870972
O	9.51055317817742	-6.481762554177419	-4.709176247387097
O	8.776662128177419	-10.04591820417742	-5.847201507387097
O	7.7655143981774195	-12.72629380417742	-3.3087900073870973
O	7.099199418177419	-10.11432270417742	-0.6400258493870972
O	-10.13937229182258	-4.040318364177419	3.4201824026129026
O	-6.59981857182258	-2.8494152141774194	3.9645046426129027
O	-5.51374359182258	-1.5015404041774194	7.359292902612903
O	-2.6287299818225804	-0.15183775217741935	9.423424682612904
O	0.7382203281774194	4.026364275822581	8.250355202612903
O	0.7832122581774194	7.521857255822581	6.7596315826129025
O	-2.4929773018225805	9.41619302582258	6.575366432612903
O	-1.0217631548225805	11.33793109582258	3.578774242612903
O	1.9667097981774195	10.70527459582258	1.3477379826129028
O	4.93815425817742	12.48740019582258	3.015366652612903
O	2.7282436781774195	12.92774439582258	6.115735632612902
O	2.5822976981774195	11.689113395822579	9.719158972612904
O	1.5226096481774194	8.11050213582258	10.557465062612904
O	-12.039956921822581	-0.4848407481774194	1.2944071126129029
O	-10.193973991822581	-0.9881949941774194	-1.9823745273870972
O	-4.0086381718225805	-2.3879254241774195	-13.618028137387096
O	-1.2482632788225807	-1.8089765741774193	-16.178575737387096
O	3.7191446281774194	-6.678728394177419	-11.521421137387096
O	1.2312852481774192	-9.71878200417742	-6.833661607387097
O	-3.2640655918225807	-4.3530968241774195	-7.728076377387097
O	-5.94564806182258	-2.7703367741774194	-5.627928177387097
O	-7.047125971822581	0.8069726178225807	-5.037115487387097
O	-7.801835481822581	3.9535734258225808	-7.044552667387097
O	-7.736802351822581	9.61986855582258	-3.1739728673870973
O	-7.336788141822581	6.315812145822581	-1.3352596573870972
O	-4.4565457318225805	3.9190968458225806	-0.7929173843870971
O	-2.3702042818225806	2.0829925458225804	1.8510317826129028
O	1.1451495281774196	3.5136877458225806	2.3647203226129028
O	4.5265027281774195	2.500328065822581	3.359079792612903
O	3.8813667081774197	2.4314969858225806	7.058653982612903
O	1.0995151481774195	-0.09370939017741942	6.388233382612903
O	3.5936097381774195	-2.5473576841774195	4.823622182612903
O	2.9514448681774197	-6.12164817417742	5.884282492612903
O	-0.6400706368225806	-5.486803034177419	6.956993562612903
O	-3.7315291718225807	-7.398563254177419	5.797781022612903
O	-5.72157697182258	-7.088552734177419	2.638251042612903
O	-3.0969372618225806	-9.85328240417742	0.24615866561290287
O	-0.24254072882258065	-8.19798274417742	2.0901679126129027
O	0.4994005181774194	-4.511117814177419	1.870286182612903
O	3.6280093581774198	-4.652182294177419	-0.3359679133870971
O	4.416511458177419	-1.8237783641774192	-2.823553747387097
O	3.54823146817742	1.2465668008225808	-4.862331507387097
O	4.73275222817742	4.434336855822581	-6.365411537387097
O	4.449336478177419	6.923212175822581	-3.522488317387097
O	1.0185017281774194	6.51429749582258	-1.9154204273870972
O	-2.324120681822581	7.619751425822581	-3.3433922873870974
O	-0.34625865082258067	8.87694429582258	-6.336149187387097
O	-1.1282004718225807	4.423209445822581	-9.688207027387095
O	-2.5816507618225804	1.6556968358225808	-7.564241767387097
O	-1.3244646058225806	-0.11863059417741939	-4.504415247387097
O	0.4125331861774194	-3.3841179941774193	-5.011781507387097
O	-0.23887054182258066	-6.452086234177419	-2.774128767387097
O	1.3872216781774194	-9.83058960417742	-2.3559084773870973
