74

O	0.9492799686718744	3.7948768093124996	2.1008839566703124
O	0.2749953986718744	3.1135458393124997	1.1591640526703126
O	1.8243563086718741	3.1309605693124998	2.9019714466703124
O	1.6166362586718743	1.7759579593124997	2.9894880066703124
O	0.05389247767187433	1.7967534193124997	1.3637980866703125
O	0.34721508867187445	1.3293576703124996	2.6092399066703127
O	0.6782215486718745	5.1610118493125	2.2449079366703124
O	2.2271890186718744	3.8835057593124995	3.9755711666703126
O	0.3316997586718743	5.4519753993124995	3.5737326266703127
O	-1.2707051773281257	0.6914942630124997	0.8428357406703125
O	7.594931718671875	-5.8309535706875	-0.2459791323296875
O	8.300821778671875	9.4373459793125	-9.170485223329688
O	2.643538188671874	7.552520629312499	-7.386023823329688
O	1.2050470386718741	4.7160675993125	-9.413598493329687
O	-5.271458801328126	7.9099142593125	-5.042126883329687
O	-3.595382001328126	11.5776884793125	-1.4312551033296874
O	-4.108645741328125	14.8790203793125	4.882125256670313
O	-7.4902989913281255	8.6772794193125	4.489063936670313
O	-11.201338291328126	8.3916566293125	3.6309901466703125
O	-12.364962191328125	8.5894599293125	-0.010687206329687449
O	-8.818848691328126	8.1164456293125	-1.2875666333296876
O	-2.4885359913281255	-8.4700992506875	-7.446847143329688
O	-0.9999013403281256	-5.187641490687501	-6.222782743329687
O	1.8804219586718744	-3.5690296206875	-8.102693303329687
O	4.2023554586718745	-0.5797420406875002	-8.311955663329687
O	7.6890620186718746	0.8544957083124998	-8.201792233329687
O	7.4714536986718745	1.5033069433124997	-4.4460279033296874
O	9.796437308671875	0.5061477533124997	-1.6145633933296875
O	11.178355408671875	-3.0235683506875004	-1.6512740433296873
O	11.501696308671875	-2.7634464506875003	2.1719720066703125
O	10.047013508671874	-0.36223977068750024	4.703486756670313
O	12.573452108671875	2.5258953893125	5.011211656670312
O	14.344917908671874	1.0930877323124997	1.9163315666703125
O	14.987663108671875	2.0969996693125	-1.7072164733296873
O	12.195487108671875	2.0178851093124996	-4.3191318333296875
O	-0.5092347923281256	-11.5088335206875	-4.662071313329688
O	-2.4530803513281256	-10.5120377206875	-1.5620699133296876
O	-8.969543961328124	-7.1832178606875	9.537712926670313
O	-9.545308501328126	-5.3168769106875	12.80875518667031
O	-11.224970091328125	1.5285504733124997	8.307420186670313
O	-11.786221491328126	0.9247522393124997	2.249269356670313
O	-7.791309671328126	-4.6479391306875	3.9518780066703125
O	-5.560656951328125	-7.0134434806875	2.0518468166703125
O	-2.1981143413281257	-8.611586370687501	2.7884328966703125
O	-0.44910227432812566	-10.406393020687501	5.6428061566703125
O	4.393445848671875	-8.9924445306875	2.0510238866703125
O	2.6949530786718743	-5.6314167406875	1.4753126036703126
O	2.465412058671874	-2.5759413706875005	-0.8053927633296876
O	4.187198868671874	0.5744628553124997	0.41302678177031255
O	4.0036603486718745	4.3270428893125	0.1584819606703125
O	5.693544398671874	4.5190339693125	-3.2100136033296875
O	2.9923213086718743	2.1946216593124994	-4.595242013329687
O	0.22165373867187432	4.643690659312499	-3.6583582733296875
O	-2.420509561328126	5.004699789312499	-6.298723473329687
O	-1.5290771853281258	1.7345997193124998	-8.015564553329689
O	-3.9293073113281256	-1.1076200206875002	-8.882382983329688
O	-5.314916371328125	-3.8664999906875	-6.755452203329687
O	-8.732058401328127	-1.4024396706875004	-5.118389123329687
O	-6.245406141328125	1.4397188153124998	-5.037503743329688
O	-3.119321071328126	1.3752739953124997	-3.0418669833296876
O	-4.1313945613281255	3.8557150793124997	-0.21472709932968748
O	-2.6226939913281258	3.4877858593124995	3.3338342766703124
O	-1.0670757793281256	1.4516966623124996	6.118632586670312
O	0.9707477386718742	1.5110198193124997	9.280744116670313
O	4.5041155886718744	1.4832562053124998	7.867732176670312
O	4.775443998671875	-1.3084991606875005	5.2956751366703125
O	4.835889148671875	-5.0208760506875	5.9068066266703125
O	4.605423978671874	-4.1736426406875005	9.610417996670314
O	-0.9566642213281257	-4.8562955606875	10.168804456670312
O	-2.4530622613281254	-5.1844091506875	6.706891286670312
O	-2.378806621328126	-2.8277732706875005	3.7390883666703125
O	-5.450319871328126	-0.6776111106875002	3.2745152566703126
O	-7.055286511328125	-0.09470132768750028	-0.15963530832968742
O	-9.723650401328126	2.2060812293125	-1.5148897933296874
