24

O	9.752300130803771	37.88056512181279	31.875870105820347
O	8.980994729905465	37.956532833678715	33.10691715266269
O	9.090201669697525	37.57569901464693	34.41973736941794
O	7.801987574080752	38.73096708758787	32.66710165262809
O	7.7642837270777445	38.52570070961574	31.37908766117188
O	8.82024056777053	37.988585163596206	30.8371553737377
O	12.746391548234968	37.575639959300766	29.679212216188898
O	7.452469610087504	39.875666473997676	33.54072255596087
O	12.777691357986276	36.996361265816844	27.455909309681633
O	12.182140603992474	38.845490298745084	29.414845669575918
O	8.246177523072163	40.85086433583014	34.08981580407287
O	14.681145747115314	36.755481528457	27.977614162478986
O	11.213620623082802	39.56990844459251	30.206464302985786
O	8.014341638756024	41.274405705876624	35.465675769501004
O	10.724462875765646	40.09477020639167	32.34614466699747
O	11.687466612532964	39.63619699367521	31.591236688657748
O	7.210042853871306	40.590470026834765	36.36880019565823
O	11.536524388769779	38.381331790349535	33.19654605254262
O	12.071415011936503	38.312210706609605	32.06788668305764
O	6.505862439867989	39.55114041718598	35.85345434534647
O	12.091066465975537	37.30693170792849	30.93186296166583
O	6.992826181587644	39.14786127192266	34.55989947067621
O	13.415496388334077	36.9525072826961	28.591811868058734
O	10.354984626257894	38.906971899813755	32.91884314923041
