34

O	8.16300032132122	42.247537680782955	31.01407511720246
O	9.453806114632183	42.88067442994796	31.345298793504714
O	9.357774501938668	41.309667811894776	34.568012620588334
O	10.727831957189242	38.18396916695518	34.01080844052496
O	10.133928448354622	41.918374314424234	32.20400660693366
O	10.154734105510613	40.76017802911382	31.809188777774587
O	9.250887151754629	44.11248770128189	31.905930854752505
O	7.911318468810527	41.641370135439246	34.63659560360413
O	11.690585012173742	37.82857626282744	33.01068865236495
O	10.307445486876798	44.65144521915536	32.70976210992001
O	7.956645034541502	43.09380033613456	34.54338445278414
O	11.956578745952667	38.25083417329183	31.633422279328315
O	13.042935969962137	37.891050145859694	30.731982940584974
O	11.224946407401813	44.784735604847654	33.665617487964724
O	8.731698039136859	43.701676899905046	35.448182442900645
O	10.957969345491124	45.30624727558026	31.592313068662897
O	7.092043031279523	43.83328217229878	33.84187440533819
O	11.348014561794304	46.14863949326204	33.951917604187884
O	8.660342359574361	45.05623500965707	35.56632080942492
O	11.415868003291461	46.62374005404445	31.706897609509323
O	7.280645159661724	45.225214922524316	33.829608518070344
O	13.075607213669377	38.01993156238475	29.310619150832036
O	11.392869975315413	47.137686088966355	32.97581288195091
O	8.032260464058854	45.916370383461924	34.72999082127764
O	13.888968756694732	37.66387420886383	28.40459604820718
O	13.558227633678872	37.8936550699023	27.06294792549018
O	14.8660320497225	36.61900976742396	28.24516315553609
O	9.291522164649503	39.94735460226259	34.07030354632728
O	9.95642526076023	42.08372498498805	33.555288426009376
O	8.407229136721144	39.718334139710564	33.247133948191916
O	10.279427405629882	37.77365575400656	35.345564532161134
O	10.633947124128312	39.59877422732761	34.071202905263746
O	8.884510144238225	37.38985211052777	35.440359544488636
O	10.070518041970974	38.96632643734507	36.33218725722457
