39

O	10.09207968578174	42.5827170142035	31.542139282075528
O	10.919949507033303	41.8772830154868	32.45918653077346
O	11.1499817037986	42.554455430196214	33.6245603683825
O	11.29142886053361	43.930962197146705	33.47455747843376
O	11.024922562804914	44.57450358576207	32.29413746007079
O	10.34251272592498	43.89819105267762	31.274340749325713
O	11.169967446324113	44.67873876962098	34.621824890855365
O	10.920477251633159	40.48082942317309	32.343482074931515
O	11.807326074635895	39.534346015195624	32.63995294507222
O	9.702591965060389	39.91637499071669	32.92817411604459
O	11.967987207963034	38.685917396014794	31.491831222307695
O	11.505398316680708	39.006848354093236	30.252403831650792
O	12.252135102327118	38.59634963105939	29.198045608266625
O	13.487586316197024	38.05327755910753	29.259347469804098
O	13.704844581092782	37.527654553513216	30.49727224668993
O	12.900773441263631	37.72733840699696	31.598835497288583
O	14.305008164308777	37.530375227049255	28.20670927165666
O	12.354472104442355	45.08122358416137	35.256220937829504
O	12.299183663898962	44.61608382732736	36.68478097419616
O	8.739231307780392	40.69388967282734	32.657016157551965
O	8.589258438627864	41.26740620654681	33.898381418102844
O	8.886051069311002	40.254942969419346	34.81164562308223
O	9.58134606461018	39.385180983221595	34.10345595045585
O	10.299743952019718	44.61278471341177	30.101044254772294
O	11.061632043478914	45.77577278311576	29.832253821963125
O	10.113103419409228	46.95056533631304	30.08447517775773
O	12.18414883356942	46.03171389556515	30.835712819748437
O	7.340811982217699	42.04233333939131	33.947472005812735
O	15.202961801906712	36.60123042162079	28.348818059241292
O	14.237058511858882	37.56453089691028	26.815795934560892
O	7.490415123381046	43.25311065131642	34.50218416833858
O	6.549940713915991	43.47152255927142	35.55090952733704
O	5.878408821423939	42.36986075741374	36.107268991544494
O	5.678838178738664	41.203308114094895	35.33985810308904
O	6.332545740653382	41.00280546914919	34.103804792632964
O	6.219364584420237	40.23163810718862	32.91709755411293
O	6.3223946403652125	40.85040268495908	31.58762732972123
O	6.380877950821137	38.98673396825108	32.69732835167288
O	9.548783958428501	41.9082203266936	30.47126323609936
