91

O	2.757029937559804	-2.417127526780392	4.88689010812157
O	-3.523934062440196	-3.1846206867803923	-4.120785301878431
O	-4.630426822440196	-2.236596386780392	8.377847918121569
O	1.2646049275598037	-5.521657916780392	7.638884588121568
O	-3.8696114524401963	-5.161673846780392	-3.799028031878431
O	-3.0381080524401964	-0.8945158887803921	7.784202238121569
O	0.924803727559804	-2.413476706780392	8.81936228812157
O	-2.666432132440196	-2.231282676780392	2.221915638121569
O	-2.032622166440196	-1.5734195377803921	5.090112398121569
O	0.3515027675598039	-5.890445536780392	6.639998038121568
O	-2.482496002440196	-3.5945119567803925	5.81215837812157
O	2.473958847559804	-3.3685258567803924	3.947606518121569
O	2.369295677559804	-4.881183616780392	7.149238448121569
O	2.271612547559804	-5.809552896780392	2.860832308121569
O	-0.07748796244019607	-2.972343556780392	9.54215931812157
O	0.6894646875598038	-1.9851834007803921	7.517549138121568
O	1.0299265375598037	-6.641566706780392	5.6777883381215695
O	3.051247367559804	-5.5614080067803915	6.135739438121568
O	-1.1223889869401962	-3.5508420467803923	8.82551473812157
O	-0.3026023014401962	-2.657903416780392	6.869808318121569
O	-3.3875102524401965	-4.336012486780392	-0.623506411878431
O	-3.1592428424401957	-2.343805506780392	-1.503244051878431
O	-3.496911812440196	-3.832426466780392	0.668403586121569
O	-3.092186812440196	-1.7929912287803922	-0.2039199918784309
O	-1.183803360840196	-5.055376126780392	3.711649258121569
O	-0.041732572440196014	-5.737092696780392	3.278691408121569
O	0.030706867559803896	-3.0867804167803925	3.588903618121569
O	2.590697597559804	-6.714651926780392	3.894556958121569
O	2.236375297559804	-6.124904966780392	5.197085988121569
O	-1.415264911440196	-2.905124816780392	7.672497408121568
O	-3.525937232440196	-3.626968556780392	-1.7612231718784308
O	-2.964090512440196	-2.616655446780392	0.876218080121569
O	-1.150163833740196	-3.740363856780392	3.2025041281215687
O	1.164376427559804	-5.038809026780392	3.234927658121569
O	1.1840761575598038	-3.854505096780392	3.894834048121569
O	-2.765367722440196	-3.1519762867803918	7.13212936812157
O	-2.522068722440196	-3.1373858967803923	3.292534948121569
O	-3.4584032624401964	-4.011510656780392	-3.1456717118784314
O	-3.6039969424401965	-1.989660168780392	7.425008948121569
O	-2.505406102440196	-2.637412746780392	4.704170358121569
O	-7.494332672440196	6.0662250432196085	7.639706638121568
O	-6.027543342440196	6.304058503219608	4.149392868121569
O	-5.951025342440196	8.329498113219609	0.978117227121569
O	-3.3119141124401965	10.760435523219607	-0.19501618187843106
O	-2.443425322440196	13.139904923219609	-3.0242903818784312
O	0.719175637559804	9.525693723219607	1.262183630921569
O	2.084535477559804	6.0945466432196085	2.306359918121569
O	4.390288667559804	5.737912073219608	5.291730188121569
O	2.468205357559804	2.6524576232196075	6.43444202812157
O	-0.6704452034401962	4.681788073219608	7.061958578121569
O	2.541122297559804	3.092998223219608	11.69168991812157
O	11.235969107559804	3.014360793219608	6.026428268121569
O	10.766055407559804	0.34826513321960784	8.700286518121569
O	7.3876452675598046	0.2653971732196079	10.369574778121569
O	5.472555377559804	-2.9872731567803923	9.679757688121569
O	7.382789997559804	-3.5401611567803917	6.360001108121569
O	6.845135647559804	-2.5103436967803923	2.723652078121569
O	9.969270407559804	-0.821828811780392	1.370383246121569
O	10.163348407559804	3.010041573219608	1.068298222121569
O	6.406824297559804	3.3415283532196085	1.607674856121569
O	6.037903017559804	7.132930073219608	1.340703336121569
O	-11.879190492440197	-7.875853226780392	-1.464953971878431
O	-13.484496092440196	-8.523809296780392	1.9922135711215692
O	5.182513757559804	-12.135706876780391	-0.2997575718784311
O	7.596416427559804	-9.194878976780393	0.20534162812156898
O	10.317742507559805	-8.465810266780393	-2.325627991878431
O	9.433169107559804	-6.005472636780392	-5.061780051878431
O	-2.955112672440196	-3.779640836780392	-12.53208258187843
O	-7.102002312440196	-3.4548525567803923	-8.40489625187843
O	-6.683229612440196	-1.025149311980392	-5.571855561878431
O	-7.3105684424401955	-2.226323926780392	-2.040537221878431
O	-6.116486312440196	-1.627655520780392	1.486109478121569
O	-8.598056362440197	1.262021113219608	2.100951778121569
O	-7.005309032440196	3.005695703219608	-0.9021644518784311
O	-3.5571812724401966	2.9140319732196076	0.816731906121569
O	-1.7152924834401961	6.254050463219608	0.362353903121569
O	-3.812230012440196	7.307806833219608	-2.594623871878431
O	-2.564043262440196	8.457450143219608	-6.02026408187843
O	1.2310146675598037	5.570864533219608	-4.081915721878431
O	-1.182761550240196	2.701170143219608	-3.152879251878431
O	1.094316777559804	0.5860309732196078	-1.001347851878431
O	0.48615044755980397	-3.1604924867803925	-0.8119100818784308
O	-0.6333229524401961	-6.349022776780392	-2.454834481878431
O	-1.676248384440196	-9.888363256780393	-1.871325401878431
O	-5.317340012440196	-9.337934866780392	-1.047954571878431
O	-7.0013579724401955	-7.2349434867803915	-3.543143681878431
O	-7.7838424524401955	-8.192163886780392	-7.155594131878431
O	-0.8370126564401961	-7.1944666067803915	-9.222551581878431
O	-1.103948392190196	-4.139380486780392	-6.958692431878431
O	2.179448877559804	-2.8088465567803924	-5.67956861187843
O	2.8261217875598037	0.9232112232196079	-5.606475381878431
