91

O	-1.7650610456964282	4.119282987805356	-2.4603554263803575
O	0.5263365283035718	-4.250242802194644	-5.503902875380358
O	-1.185388898696428	5.273181707805356	-1.8645919293803574
O	-1.9150435016964282	1.725784981805356	-1.9506929143803573
O	-0.35680398869642804	-3.315965712194644	-7.214920395380357
O	-0.9781048276964281	5.314072297805356	-0.4802582853803574
O	-0.5157549926964281	0.6435705588053562	-7.395402105380358
O	-0.7501582616964281	4.096815727805356	0.1762301046196426
O	0.26766170830357183	6.348426937805356	1.3472654646196425
O	1.551371398303572	0.2202076978053562	-7.667692705380357
O	-1.6098785616964282	3.198926937805356	-0.3748055253803575
O	-0.8586123798964281	7.7897619378053555	0.2765576646196424
O	-1.5164804716964282	3.048664787805356	-1.7670108743803574
O	-1.513513179696428	0.5135050098053562	-2.4638249553803573
O	-0.9076541411964281	-1.5083687121946439	-4.601722005380358
O	-0.30341658969642804	-3.2987805821946443	-5.815352555380358
O	0.715028288303572	0.7039227848053562	-6.820612745380357
O	-0.860962147096428	0.6139785798053562	-8.827266725380358
O	0.557901038303572	-1.3859179721946437	-9.599797485380357
O	-1.818950413696428	-1.6465805621946437	-9.575738915380358
O	-0.5478607336964281	6.440614087805356	0.3260959746196428
O	-2.515268441696428	0.9788332868053562	-6.008895585380357
O	-0.09373557669642807	3.498559847805356	-5.169667555380357
O	-0.025479170696428133	-0.6955784821946438	-3.7823160753803577
O	-0.7228688286964281	-0.7944263621946439	-9.150870445380358
O	-2.223714321696428	2.117014303805356	-5.456025965380357
O	-1.3610243266964281	3.219902687805356	-5.898061875380357
O	0.9016488883035719	0.26186796780535615	-4.298983095380358
O	-1.677052949696428	1.5049049097053562	-4.375496035380357
O	1.0214079183035718	0.019139907805356238	-5.576137195380357
O	-2.266376151696428	0.3238701078053561	-3.7602066053803576
O	1.1408634883035722	-1.4232017121946436	-5.629481415380358
O	-2.174986941696428	-0.8568223921946438	-4.637806325380357
O	0.1340458483035719	-2.1843659721946436	-5.0148785053803575
O	-2.711983561696428	-0.3469092421946438	-5.8150890753803575
O	8.107000878303573	8.472698587805356	2.8769990246196424
O	5.572184008303571	-9.326057962194644	7.9502763746196425
O	6.968667158303572	-9.341063362194644	4.371440414619643
O	9.032635608303572	-10.844905262194644	-5.4650898553803575
O	7.9330729983035715	-8.307949262194644	-2.8217118593803576
O	4.149099148303572	-8.209589612194645	-2.7078572323803574
O	3.020067428303572	-6.508278382194644	0.5014018946196428
O	3.512281038303572	-6.167818842194644	4.260170664619643
O	1.371727878303572	-7.591551552194645	7.0105702146196425
O	-2.879306821696428	-7.854932752194644	5.567897914619643
O	-4.837249581696428	-5.948892072194644	2.8807657946196428
O	-7.318845741696428	-7.737906872194644	0.6249850546196427
O	-6.062822401696429	-5.706342282194644	-2.4098857213803573
O	-2.731818351696428	-7.504220062194644	-1.9933761663803575
O	-6.298153951696428	-8.932459162194643	-6.515680365380357
O	-3.790769841696428	-10.380160162194644	-9.003077015380358
O	-14.636469041696428	-6.829568292194644	-0.2926752453803574
O	-11.630200641696428	-6.9156487521946435	-5.964917385380357
O	-10.546451031696428	-3.729018382194644	-7.600748395380357
O	-12.138973941696428	-1.4398409421946436	-5.109950825380357
O	-11.092516541696428	0.008918747805356064	-1.7769844233803576
O	-13.779753141696428	-0.7996799021946439	0.8474720846196426
O	-9.521950131696428	-3.826960592194644	2.4628939746196425
O	-8.458691711696428	-6.576108142194643	4.834797504619642
O	5.891725798303572	0.6449907928053562	8.555776774619643
O	7.144794508303572	-1.335661622194644	5.560010524619642
O	7.656771648303571	0.3593166178053562	0.3503939746196427
O	8.747964578303572	3.3634034478053563	-1.6868187873803575
O	9.554727958303573	8.558253647805357	-2.4107422933803573
O	6.517327088303571	8.542748897805357	-4.673960955380357
O	7.8125391183035715	7.175710427805356	-8.013803295380358
O	11.000353458303572	6.059062637805356	-6.2452692253803574
O	12.790031358303573	2.848673327805356	-5.243058855380357
O	11.478677458303572	0.6527201198053562	-2.4241935383803574
O	-10.994164441696428	9.561718157805355	-5.4328042953803575
O	5.316960708303571	11.913259637805355	5.283637304619642
O	3.110819118303572	8.975550387805356	4.207225364619642
O	3.026931838303572	5.239568267805356	3.571955114619642
O	3.050306208303572	4.087924337805356	-0.11630835538035722
O	2.024599748303572	1.3612713137053563	-2.2083518280803576
O	4.744553408303571	-1.071972512194644	-1.4735476883803575
O	3.727803168303572	-0.7463547421946439	2.220036044619643
O	0.25692841830357194	-2.0954413521946442	1.5532502546196425
O	-1.0138768506964282	-4.519426332194644	4.101532504619643
O	1.419009738303572	-3.3648445421946445	6.752099364619642
O	-1.912472741696428	0.4315520978053562	4.610006134619642
O	-4.634869521696428	0.41549282780535624	1.9447057346196428
O	-4.8949814216964285	3.339860097805356	-0.3438293253803575
O	-4.171485591696428	6.947702027805356	-1.2464149853803574
O	-3.754078811696428	9.384071827805357	-4.090369485380357
O	-0.11089288769642813	8.680940177805356	-4.994972585380357
O	1.991943958303572	8.892818587805357	-1.8319527293803575
O	2.8951963983035722	11.967691737805357	0.2503360746196428
O	-3.638247051696428	11.795533237805357	3.5454066246196425
O	-2.975293411696428	8.043964717805355	3.568387214619643
O	-6.002366221696429	5.887237017805356	3.833922794619643
