34

O	7.934217425461724	42.454219801154956	31.010888206166836
O	9.238805616906376	42.71048739946718	31.510504293030763
O	9.393553402341109	41.2505385952574	34.74163451648987
O	10.76309046600708	38.153586959893	34.01385256813824
O	9.274950496292142	41.556460941693025	32.52319548614061
O	9.71489701611657	40.55599073151342	31.93269391489241
O	9.703400057165833	43.86928103354007	31.86140972978377
O	7.948596730053017	41.633835554019534	34.83307626254155
O	11.702343052747798	37.881462485622166	32.9758712221009
O	10.29789977575264	44.710126471571215	32.83850442576343
O	8.061159706705137	43.06729268679486	34.5805961393847
O	11.892494637990222	38.254207855229815	31.57622491952327
O	13.011093808805777	37.922583725166994	30.681137995150742
O	11.52438869047502	44.97197730468949	33.33789205783871
O	7.165353434267559	43.74400674714715	33.86773063295306
O	9.770899908459466	45.88109352615821	32.2628614242413
O	8.877790152216367	43.72450515073816	35.42069631898189
O	12.1554789684029	46.13839491434384	32.847681884022144
O	7.248775437771094	45.10692958679912	33.84465776349556
O	10.069877343751678	47.1221683337947	32.83248598833893
O	8.866901626593489	45.08815571772308	35.422437602521896
O	13.059667729064792	38.01830468093974	29.27079148531386
O	11.44688656393145	47.30740485694127	32.809949281324016
O	7.805305025013014	45.756523335094535	34.91107465261163
O	13.885524235663242	37.652105877953424	28.378920061022434
O	13.577655281972602	37.8916375456942	27.03265822338394
O	14.852651996459166	36.597638100668	28.23597524752452
O	9.285855488128215	39.86659829054577	34.34459969881941
O	9.992102875590717	41.94546073063881	33.63524958210029
O	8.307899401309413	39.57063455961451	33.65939490211544
O	10.349520099247222	37.722341382711	35.36752280892101
O	10.62619475566344	39.56041372504225	34.11556870103444
O	8.941541993720312	37.36976090095715	35.44394108219864
O	10.136519960437646	38.914796391666336	36.36004930138248
