48

O	8.909558051740033	38.313791675734514	28.130479855134027
O	8.839673126094052	37.92725296809563	29.5118741845792
O	9.73123580651051	37.63760550275637	30.40370038891263
O	10.487844786260972	36.87138625889892	29.63039633200602
O	10.391118369666529	36.73651524445631	28.21854714361742
O	10.127321243117423	37.929291247967356	27.63625070588944
O	9.194465748846152	38.584010451730876	31.51006998314228
O	9.564909247869135	39.81511879430736	30.97635082587709
O	11.049435512660384	39.873246056337294	30.89783493769511
O	8.58860919867197	40.18952002057018	30.218063596731337
O	11.564564083616897	38.87723706152164	31.86322584217061
O	12.738483045359423	39.54137915010178	31.74065355332511
O	13.332438256787459	38.63267142183618	30.639361435698287
O	12.836533359959475	38.578635844614325	29.365044891073172
O	11.704699459032007	39.41237536899463	29.59027144113014
O	13.515586013953655	37.84443228489701	28.360256558941987
O	13.223088782223481	37.54011617557667	27.17988060173642
O	14.844843174437536	37.511469021384386	28.08314801441975
O	10.777930924549903	38.51430032172958	33.06084838463092
O	9.955118883044644	39.15676285228991	33.927979107829394
O	10.353399759636392	39.69439535354822	35.12087888117062
O	11.478526361491594	40.69550869940771	34.829829634601616
O	11.083350753004634	41.93890803280767	34.41455432351839
O	9.62560268699024	39.026662902727324	35.83725061164691
O	9.753393799186302	41.843791106934326	34.38448029280016
O	9.210555507128465	43.05573690962473	34.73584399345019
O	9.824791614532996	44.13507921928198	34.57517374021298
O	10.919844331271065	43.981409451658365	33.651346095167995
O	11.240947851596708	42.6430442308618	33.2667248261488
O	10.543441686194155	41.990386696911585	31.984555699500383
O	7.775416799096294	43.11065162550504	34.81742001582321
O	7.267725002429579	44.05536182026323	35.609554473642085
O	6.587842924608722	45.2267802721951	34.988050697223336
O	7.166599466283187	44.14998412309387	37.07363033916995
O	9.848741952021058	43.25339299018764	31.433220240035276
O	8.763357835391083	43.726442258183496	32.247222580152645
O	7.864687697451394	42.557438476798296	31.937501896955325
O	8.212562986387578	41.21810746484364	32.4504223083898
O	9.476713639299941	41.27933438730153	32.37418556957565
O	8.1816959623416	44.99665802281414	32.13109802903791
O	7.189659033196262	40.45704470516917	33.1039652199416
O	7.198997010337926	39.88173395490525	34.39312187590215
O	6.264544737554187	40.43103767063844	35.41899414064042
O	6.794623859441298	40.89646186754322	36.645887299704675
O	7.391374161524391	40.040812842926954	37.67253124160033
O	6.069100679924823	40.77290291060686	32.715499425166726
O	5.2969769283109756	41.26443627937455	34.65347539144153
O	9.285433745345095	41.1501507010319	35.34950007099296
