38

O	13.52418143048007	38.3198690623471	29.103823307530977
O	13.94045948328543	38.30702937765753	30.40224999898369
O	13.09619412908544	38.84291664054885	31.412694283561507
O	11.945534791614875	39.71687606546342	31.059982633617256
O	11.35519193924962	38.916734223268726	30.1899921556018
O	12.172957796718583	38.42623223797479	29.130730160570376
O	14.380751888920189	37.776142973267135	28.086496751945717
O	15.444558201060811	37.0321884440839	28.27343295296925
O	14.104682348181436	37.566285317069834	26.72338638736053
O	11.173634822757826	39.10183816725977	32.34133835513624
O	9.81362944930706	39.400811994073976	32.16337956464727
O	9.534091685287853	40.02999355404543	30.797303463134696
O	10.136844519716298	39.345612994021906	29.82230117437372
O	9.929681686055337	41.522151656440826	30.532704930645572
O	9.719216579181106	41.59916805851573	29.05694600750625
O	9.798116285812752	40.22364832700976	28.763801354441075
O	8.728965856294849	42.388704759916095	28.436356085648033
O	7.6702629732775796	41.814926142844264	27.710879348804376
O	7.787401174675475	40.47042863728952	27.333576448103234
O	8.412470023903214	39.87105229988028	28.456271375240554
O	9.688367445605232	40.66229193079655	32.87892610692873
O	8.670497344717562	41.47392136798158	32.561256768383295
O	8.811727053261325	42.34275576436972	33.56942297194565
O	10.125664046402997	42.94603943583287	33.49607601459224
O	10.956955373812498	42.54587945173216	32.351010726521835
O	10.959532141432149	41.179731045569085	32.61900697299344
O	7.874068414036137	40.778018727645915	31.544142836485847
O	6.913469699537749	41.21345780010357	30.964280382637163
O	5.734730766984774	40.97024259880491	31.85598055218773
O	5.483738072149881	39.88552113474569	32.665782202017816
O	6.44005785296614	38.90414296137876	32.27676493830421
O	7.635983499199932	39.37850862458951	31.593122244283283
O	4.841575020946454	39.85124878880389	33.98860192491671
O	5.226466663426857	40.60416841886474	34.9478856593192
O	4.697073339097374	38.531197712007966	34.482806819205955
O	12.26548404510956	42.861885795146456	32.171776133961636
O	12.036117004557227	43.9926832827285	31.286297605540653
O	10.732099730382828	43.07893057224382	34.77178427828715
