92

O	-4.693335853216666	-2.74324231162037	-0.6410138730055555
O	-2.4021507912166653	-3.52711473162037	1.8654837029944447
O	-3.7287398532166653	-2.97781187162037	-1.6608096630055555
O	-0.3394626032166652	-7.04217267162037	5.091426916994444
O	-4.298861953216665	-3.58135831162037	0.4477903719944446
O	-1.3712882842166652	-6.19110740162037	4.073865866994445
O	-0.42104732321666516	-5.83147996162037	2.2666658769944448
O	-3.663911003216665	-3.00992647162037	1.5483203749944447
O	-1.3672493892166653	-3.00512515162037	6.696739656994445
O	0.5318433567833349	-8.09092649162037	4.650754936994445
O	-1.7297767562166653	-3.89199066162037	2.9889356469944444
O	-5.385596603216666	-0.5256498366203702	-2.8092254630055553
O	-1.2015928282166652	-7.59621277162037	6.208735326994445
O	-0.9619243012166652	-5.11901704162037	3.1722876569944445
O	-7.154514013216666	-0.5915810266203703	-1.7763348330055553
O	-3.2132921232166654	-0.31516702162037025	6.066472566994444
O	0.6370425067833347	-5.83019721162037	5.965645566994445
O	1.168636276783335	-1.0846279186203702	5.287434326994444
O	1.210761996783335	-6.12568182162037	7.197972456994444
O	1.4645579667833346	-4.97123190162037	7.973103366994445
O	0.1967902067833347	-4.28412503162037	8.108405676994446
O	-0.030566553216665238	-3.62622473162037	6.885190126994444
O	0.3112125067833349	-4.48068249162037	5.811897056994445
O	-1.5907214847166653	-2.73480905162037	3.8188094969944446
O	-2.599737683216665	-1.9512902216203702	4.376166646994444
O	-2.443562873216665	-0.6841547746203702	4.932046366994444
O	-2.647192223216665	-0.13550755102037026	7.362760546994444
O	-1.4484238775166651	0.7914096583796297	7.177359806994445
O	-1.1178417242166652	-0.27581745712037026	5.1158331469944445
O	-0.10110705321666513	-1.1285571836203703	4.6427790869944445
O	1.4417443067833349	-0.5375689796203703	6.525863356994444
O	1.835232226783335	0.9011877383796296	6.341600806994444
O	-0.3645276732166651	-2.0718026816203703	3.7437825969944445
O	-3.9086254932166655	-1.6985705116203702	1.6917146169944446
O	-4.809328393216665	-0.9971471686203703	0.7967723399944446
O	-4.930721783216665	-1.3620043816203702	-0.5718846030055553
O	-5.807490643216665	-0.8524063116203703	-1.6053264130055556
O	-3.726664673216665	-2.67847140162037	4.694570946994444
O	5.094858536783335	-11.029997801620372	-0.7877341230055555
O	4.520597396783335	-7.94440764162037	-2.922603963005556
O	5.064883326783335	-6.39932435162037	-6.3377529330055555
O	7.637284926783334	-3.8513263716203703	-7.407275593005555
O	8.890891516783334	-1.8611325716203704	-10.382242813005554
O	8.623364116783334	-1.2307783016203704	-3.9451085230055556
O	6.647892136783334	-0.24054074922037028	-0.8383968630055554
O	8.371963326783334	0.005600078379629725	2.5556609469944447
O	5.461329336783335	-1.7709634616203702	4.2353187369944445
O	6.061176386783335	-4.93720489162037	2.3984557169944445
O	7.429718896783335	-4.78889286162037	8.055276756994445
O	7.805715016783335	-8.50979110162037	8.805057986994445
O	10.909503816783335	8.895127398379628	7.915649346994444
O	9.020071716783335	5.61736670837963	7.373768716994444
O	7.655868946783334	4.07155536837963	10.567480346994445
O	6.848774076783334	0.33304067637962975	10.407054726994446
O	3.229045566783334	-0.29045785652037026	10.941965806994446
O	2.0841455567833345	2.94372668837963	9.448529506994445
O	1.3945978767833347	4.39351280837963	6.009373066994445
O	3.504090346783334	7.62119836837963	5.4295114969944445
O	6.662624866783334	7.46362320837963	3.2648342869944447
O	5.732582556783335	4.03748066837963	1.9170260199944447
O	8.645051116783334	3.38899048837963	-0.40833959300555533
O	-11.784455283216666	-8.13171493162037	-1.8260421730055556
O	-11.505164383216666	-11.25033720162037	0.45919023899444467
O	-8.466802343216665	5.90154781837963	8.281217856994445
O	-4.8677594432166655	7.1923957783796295	8.088014656994444
O	-4.226869073216665	10.77851839837963	6.9646491769944445
O	-3.5810800832166656	11.25799009837963	3.2660296569944443
O	-9.334052163216665	4.89249650837963	-8.526884393005554
O	-12.004962183216666	-1.0454829466203703	-9.775051913005555
O	-9.004960663216664	-0.8502651886203703	-7.390578033005556
O	-5.695205983216665	-2.3099159516203702	-6.4221040530055555
O	-5.570948353216665	-4.76426899162037	-3.5577122730055555
O	-3.089685123216665	-5.86109717162037	-0.7071361630055555
O	-1.4175455625166653	-8.448965841620371	-2.867601233005556
O	-0.5199310302166652	-5.68197738162037	-5.383698583005556
O	1.3165078567833348	-3.66668694162037	-2.7084946030055557
O	4.600163596783335	-2.30939744162037	-3.9169754630055555
O	3.651453886783335	-2.52862441162037	-7.612877623005555
O	3.775431916783335	0.25392475237962975	-10.259000313005554
O	3.4958218767833342	2.7189808683796297	-5.766763783005556
O	0.5736978967833346	0.5601592083796297	-4.539001973005556
O	0.4169325867833349	1.5318328183796297	-0.9227267430055555
O	-2.8327227132166652	1.3491385883796296	1.0927311762944447
O	-6.658825013216665	1.5622481883796298	1.2162310709944446
O	-9.899592263216665	0.8965850383796297	3.1385089369944446
O	-10.502718253216665	-2.69956101162037	1.9332202109944445
O	-10.300572553216666	-2.95634183162037	-1.8114789030055556
O	-12.770014383216665	-1.5456732316203703	-4.288819723005556
O	-10.072501193216665	5.18403350837963	-3.3967972030055558
O	-6.725410033216665	3.37717117837963	-3.495405823005556
O	-3.8556281232166656	5.23553441837963	-1.8870089230055556
O	-0.43863478321666527	5.4413488083796295	-3.6731421530055552
