38

O	10.619429230214159	45.324033933915864	29.05077744202218
O	13.377180091820456	37.41957975948636	26.78718523094986
O	11.441589988964436	43.607670644326085	30.782686990758787
O	9.051890580771776	42.22089828997291	27.478607509685432
O	7.236669272155667	43.04134010612136	32.55929193726696
O	15.02859406768325	36.68540078674228	27.81281997443517
O	6.139664820917238	43.624186104220584	32.67061615797023
O	12.105078424993707	45.1595697889806	29.262338726772946
O	8.203879821109485	43.35552974997336	33.56969043623477
O	8.224633595363708	42.73513031672893	26.30136036922861
O	9.934892050429289	46.12161651059304	30.111879382508075
O	10.133822216058139	43.38553747583054	27.830049629038772
O	9.01924127812856	40.82297781374523	27.459807284593168
O	9.99744048343112	43.966440755153684	29.08586071858476
O	9.200060277122525	45.12386129075508	31.005379871315064
O	7.6549265111784095	44.46827009614765	27.617549537655233
O	7.5711280396416605	43.662692066984214	28.76837845542469
O	7.864785182205785	42.22346982342478	28.828129528160957
O	6.842208991731789	46.257683068391195	28.85773256164054
O	6.165878511651311	45.32840616584306	29.639614468796672
O	7.440140292087805	45.84533094425157	27.700522979001178
O	6.473761300749727	43.98130714766872	29.49074395087197
O	10.401549685562431	43.2154290692057	30.252448719306116
O	13.219383643483438	38.287474158779276	31.354317092739993
O	13.778136456456178	37.80364791277732	30.217245146725066
O	9.810288192125492	42.098768897408156	30.79617199548288
O	9.430180544505028	42.032494603761585	32.1423917576978
O	8.412375512545157	40.9547915187706	32.36187314572432
O	7.153169007754434	41.707877887091485	31.918557251568036
O	13.171340191566896	37.9839831980878	29.025581328222636
O	11.912293222370582	38.44008736548776	29.17905171721184
O	11.348968657489632	38.97219897222259	30.33398348956344
O	12.104598433892534	39.05959304604139	31.458515587648705
O	13.747266723471103	37.213865217995576	27.95184323660775
O	10.598747001742757	41.8149200763931	32.92930368028473
O	11.51857843573088	42.56466360990426	32.65789816541417
O	11.111390489452333	40.61665856394864	33.21988228646669
O	11.913138876049402	39.58094937634092	32.79661077624289
