42

O	9.961365783062282	38.17367933195776	30.803077209725686
O	10.481724484577427	39.18969081985598	29.87874399264699
O	11.337912192698779	39.71083475093724	30.86838446965826
O	12.15973560315602	39.06812533510407	31.804859846731077
O	12.308707653548199	37.74188155963589	31.399990497020468
O	11.14815333031578	37.30243699609531	30.71296891478403
O	11.69996196548304	39.348033789028925	33.19127957420467
O	10.408536282471749	39.956075535616584	33.08744307531488
O	9.476675845972023	40.17847843984764	34.09660144136475
O	9.641304368567418	41.83207410972666	32.047185948786165
O	9.647608168769292	43.215827165463786	32.30332164089983
O	10.829849372343801	43.911424216203734	32.665086540262955
O	11.694328277097593	43.17944766681959	33.49364183743573
O	11.801930283891831	41.94536110866488	32.82816496194202
O	10.409769117315477	40.666545618539686	34.871001842260675
O	8.076898504911474	40.195070241539355	34.13306760960664
O	7.405708301393208	40.073721494689124	35.46665158943101
O	7.659934315728136	41.41910210831955	36.146538885726855
O	7.970659619523641	41.35342722307283	37.45462562046119
O	8.785783741166231	42.320651577107505	38.06213839702739
O	9.586901461962475	43.011517784849175	37.124000067385474
O	8.894298726273902	43.47906014735116	36.06342722658837
O	8.514278118302848	42.31661946151589	35.48201080187409
O	9.1912170193844	44.57414100417714	35.25293658234258
O	11.0620770776294	45.32790223033246	32.47155428286414
O	8.65802525508807	45.1623798777907	34.11839450390344
O	9.373699332888275	46.25151615140835	33.6968940301138
O	7.487901155405546	45.20065592352619	33.589744859246395
O	10.689742332320364	46.43954753836185	33.35165998853901
O	12.099013103854341	43.360234284313464	34.93630344220066
O	9.285675530615734	39.95570198344716	29.390266893921215
O	7.951743684193829	39.58140918217979	29.78275157259015
O	9.234711205809374	40.541679656007815	28.305625608627455
O	13.187842966715634	44.27467835815822	35.30779738919016
O	7.0895759878585825	41.05368143964516	33.40075902732091
O	7.511396259033841	39.944599297801176	38.311532246587234
O	6.669824655969769	40.28740339744736	39.450579761085734
O	9.081542199301122	39.419493352535405	38.99736044628126
O	9.336754954027828	40.77032733370417	39.76050765134744
O	8.69320111432118	38.47152921343705	40.07526837273156
O	6.952064025292215	38.82064780736903	37.67264012310206
O	10.785148651614767	41.190022561358276	32.32437647601341
