93

O	3.130732821568519	-4.4832481082407405	-2.4665389896296293
O	2.0408956915685192	-3.6561711282407408	-2.076436537629629
O	1.3992864415685193	-3.0612248282407406	-3.127126759629629
O	2.236496191568519	-2.666531098240741	-4.166634209629629
O	3.5590543615685193	-3.0218726482407408	-4.222623629629629
O	4.045496511568519	-4.020568178240741	-3.3687802996296297
O	1.6225311915685194	-2.3967770982407406	-5.366811259629629
O	1.4313679815685194	-3.9721796982407405	-0.8549272296296292
O	0.7561525415685192	-3.2631084082407407	0.04592163037037067
O	0.5603253235685193	-5.139783478240741	-1.0022508916296293
O	1.3224018015685193	-3.5166642282407405	1.3416445303703706
O	2.5186109615685193	-4.139237788240741	1.5277929303703706
O	3.266254461568519	-3.7211324082407407	2.578513340370371
O	3.021381431568519	-2.640561228240741	3.3514480203703707
O	1.7059688215685194	-2.296105358240741	3.2679119803703713
O	0.8068819495685192	-2.803965958240741	2.354913600370371
O	3.715259681568519	-2.1780786582407408	4.515189980370371
O	1.3620207715685193	-1.0519498282407407	-5.668601899629629
O	-0.10483850943148074	-0.9176088992407407	-5.969387449629629
O	1.1228487315685194	-5.95253931824074	-1.7954184876296293
O	0.3376698125685193	-5.72791787824074	-2.902414449629629
O	-0.9406743624314807	-5.474406308240741	-2.4036286896296293
O	-0.7269851314314808	-5.13297898824074	-1.1469593006296293
O	5.413125991568519	-4.145418668240741	-3.424456979629629
O	6.285888641568519	-3.2254623082407408	-4.0547177696296295
O	6.6015730215685196	-3.8361306882407407	-5.422521559629629
O	5.629806631568519	-1.8971289682407408	-4.425617609629629
O	0.6045555945685193	-6.750185018240741	-3.924804969629629
O	3.182177931568519	-1.4855306202407408	5.477492830370371
O	4.9226580415685195	-2.5134216082407406	5.123596080370371
O	0.7529031665685192	-6.241919618240741	-5.155953889629629
O	-0.10051075643148075	-6.8869381282407405	-6.098109159629629
O	-1.1830260884314807	-7.650158428240741	-5.629275509629629
O	-1.1296123084314806	-8.23938823824074	-4.348827079629629
O	-0.12558849043148074	-7.902443788240741	-3.4140718796296294
O	0.4945211055685193	-8.409558258240741	-2.2418593786296293
O	1.9574896715685193	-8.446156718240742	-2.102721316629629
O	0.06218983096851926	-8.560403208240741	-1.0525289556296293
O	3.6713688715685193	-5.358605698240741	-1.5509226476296292
O	-9.938295288431481	-7.055380738240741	-0.3368438896296293
O	-8.59470274843148	-4.0036667282407405	1.4601090103703707
O	-9.38942768843148	-1.3938843582407408	4.071043900370371
O	-10.525149298431481	2.1729406217592593	3.528010630370371
O	-11.52884619843148	5.3340193617592595	5.355362130370371
O	-8.76843441843148	3.7389404817592595	-0.28531046962962914
O	-5.6170416484314805	2.709615751759259	-2.2587906096296293
O	-5.7361532584314805	2.6612434617592595	-6.046355209629629
O	-3.799766818431481	-0.5910569192407408	-6.058412969629629
O	-6.670892118431481	-2.3627040682407405	-4.313114469629629
O	-5.756738038431481	-3.4342322182407408	-10.04721623962963
O	-7.7214685384314805	-6.681916548240741	-10.467627849629629
O	-1.3448549084314807	9.60736367175926	-12.90345461962963
O	-1.6918423884314806	6.168113141759259	-11.22559880962963
O	-0.3486436484314807	3.2783002317592596	-13.27984511962963
O	-1.7119993284314807	-0.1887387632407408	-12.37547711962963
O	0.9664614565685192	-2.4585865782407406	-11.09950033962963
O	3.0758342515685193	0.3334600517592593	-9.62675994962963
O	3.2119189015685192	2.353207081759259	-6.427669089629629
O	2.985671671568519	6.11746558175926	-7.254125999629629
O	-0.31372184943148074	8.00219985175926	-6.740833769629629
O	-1.7768750584314807	5.083799641759259	-4.752359129629629
O	-5.227369158431481	6.592780121759259	-3.9271282496296296
O	4.478383661568519	-11.21402622824074	7.7790439603703705
O	3.503615191568519	-14.48083852824074	5.932607800370371
O	12.48795580156852	-1.2155819222407407	-4.1420019796296295
O	10.261510901568519	1.4413806317592592	-5.762261229629629
O	11.229865701568519	5.113076961759259	-5.461288639629629
O	9.690668461568519	6.97317692175926	-2.561108219629629
O	6.898013191568519	3.0910397817592594	11.39633328037037
O	5.568535651568519	-2.7641954082407407	14.26117378037037
O	4.107475971568519	-2.0620701082407407	10.80297088037037
O	1.0212674805685193	-2.2775662482407406	8.64288988037037
O	0.8333809025685193	-5.159253358240741	6.088839450370371
O	-0.4749263994314807	-6.01567602824074	2.408437220370371
O	-3.9474209984314808	-6.8889901082407405	3.948404070370371
O	-4.177646538431481	-3.4123139782407406	5.518309530370371
O	-3.778898568431481	-1.7302766002407406	2.172766360370371
O	-6.161134188431481	1.1698927317592593	1.6458990703703706
O	-6.757285178431481	1.7142336517592596	5.375502500370371
O	-6.367628628431481	5.005857411759259	7.3151406403703705
O	-3.354297408431481	5.53167128175926	3.131802720370371
O	-1.7151422984314806	2.185746841759259	3.760298470370371
O	0.14388071386851925	1.7155844617592595	0.38438697037037084
O	3.409367101568519	-0.24366291324074074	0.30543997037037074
O	6.519420161568519	-1.6901851962407406	1.8439420903703707
O	9.277182121568519	-4.306097988240741	1.6489608903703707
O	7.519006871568519	-7.221568338240741	3.353166930370371
O	5.947121741568519	-6.18306051824074	6.583148370370371
O	7.780587271568519	-5.223540798240741	9.78723078037037
O	9.458725131568519	1.4410279317592596	7.139635940370371
O	5.884270361568519	1.3776976617592593	5.893566820370371
O	5.104111371568519	3.657198061759259	2.943082000370371
O	1.8323705615685193	5.688037801759259	2.875577920370371
