89

O	-0.7649200500925922	3.2371263950000007	-6.029494536696296
O	-0.04287769209259226	3.8494894450000006	-7.065858826696296
O	0.5641481529074077	5.068920375000001	-6.785936906696295
O	-0.0018527600925922483	5.778396735	-5.726833396696295
O	-0.17152473989259226	4.8329781050000005	-4.700072806696296
O	-1.2578264070925922	3.9497566550000007	-4.943097776696296
O	1.875878052907408	3.3453534950000003	-1.1768006856962956
O	1.7808447129074079	2.0387088670000004	-0.8941746166962956
O	1.2852543329074078	1.3440394330000005	-2.0365122665962954
O	2.287503632907408	1.5876184910000006	-3.0816814666962955
O	2.482948292907408	3.0303268320000005	-3.4033512166962954
O	1.6284005029074078	3.7760440050000006	-2.5012801956962956
O	2.428070702907408	3.5141369350000007	1.2163796333037045
O	1.5399217329074077	2.4243875650000004	1.3948306333037044
O	1.0694264429074078	1.7809599760000006	0.2660867433037044
O	2.169375752907408	4.101381235000001	-0.025326116696295475
O	3.016593162907408	3.9579324250000005	2.437354003303704
O	3.6440339129074077	5.169375155000001	2.7625418533037047
O	2.7281674329074077	3.4370627350000005	3.6127955733037043
O	2.100873692907408	5.1966347850000005	-2.4521773176962958
O	1.3288329629074078	1.2267352970000005	-4.209080666696296
O	0.030761486907407737	1.5772971160000004	-4.240460746696296
O	-0.5029845810925923	1.7960209740000006	-5.547590716696296
O	0.2662700049074077	1.1898709650000006	-6.459203686696296
O	1.5386538629074078	0.5882637050000006	-6.367793586696296
O	2.092336682907408	1.4867377920000004	-5.3864291766962955
O	1.173077022907408	6.010572505000001	-1.8681978626962956
O	0.7698551519074077	7.197245395000001	-2.4677327406962957
O	1.5799512229074077	7.700245495000001	-3.4435290766962954
O	2.5748020829074076	6.918184605	-3.9433949466962956
O	2.8320174229074078	5.649263405000001	-3.5045954166962954
O	2.376625742907408	0.48980453500000043	-7.527440046696295
O	-2.5754293170925924	3.4968258950000006	-4.623062836696295
O	-3.629158807092592	3.7314148250000008	-5.531770436696295
O	-2.659951027092592	2.2312645004000005	-4.356561606696296
O	-2.879302487092592	9.830142795	7.512140053303705
O	-12.527040907092593	-4.184811894999999	2.052664893303705
O	-12.666075407092592	0.2227926450000004	-3.7441739666962954
O	-9.602521527092591	-1.844676995	-4.5892763566962955
O	-7.551943157092593	-2.534424985	-1.4874287176962957
O	-7.831237827092592	-3.7045863849999994	2.0960989933037046
O	-7.056519707092592	-7.113370345	3.503884733303704
O	-7.0366155970925925	-9.116508315	6.720846743303705
O	-3.779520167092592	-9.003990415	1.1227191533037044
O	-0.9957667580925923	-7.508733905	-1.0579429276962955
O	-0.07384952209259225	-9.222366415	-4.336214056696296
O	0.16994556590740775	-5.6821643349999995	-5.967015136696295
O	-3.584268287092592	-5.266095535	-5.481901486696295
O	-1.6363868870925922	-6.309798405	-10.921883056696295
O	6.348705652907407	-11.952689915	-6.864266806696295
O	3.878888612907408	-7.739465555000001	-11.168289086696296
O	4.756672542907407	-4.053754455	-11.185189736696296
O	7.435750232907408	-4.486154205	-8.525204406696297
O	7.589233702907407	-4.540565165	-4.702065976696296
O	9.231415712907408	-7.6869852850000004	-3.4053886066962953
O	7.1217528729074075	-10.566278015	-2.0356703980962956
O	4.029749252907408	-8.460615715	-1.8141544196962955
O	1.4788660029074079	-10.875078315	-0.43148578669629556
O	-2.339114227092592	-0.2134030449999993	10.601814683303704
O	-7.243712007092593	4.869123405	2.062369923303704
O	-6.349316667092593	8.512187965	1.7035077633037043
O	-3.9505607070925923	12.992954685	3.0798513333037043
O	-1.4961335870925923	12.413278785	0.29356406330370444
O	-3.273524547092592	13.487420585	-2.9688523136962957
O	-6.500430747092593	13.592973685	-0.9927023066962957
O	13.029430092907408	4.0970374750000005	-4.784388256696296
O	12.880458992907409	0.2770086950000006	-4.628973176696295
O	1.454992262907408	9.726997825	10.122599583303705
O	1.4684129029074078	6.885183565	7.592913673303704
O	-0.7095377580925922	4.416108415	5.694463443303705
O	-1.4046870670925922	5.2998080850000004	2.0319712633037046
O	-2.042675687092592	3.5604586150000004	-1.0494811066962955
O	-5.697328577092593	3.0583936220000005	-0.7565943266962956
O	-4.799053907092593	1.1070236550000006	2.4474030233037043
O	-2.7174156570925923	-1.3606171549999995	0.3346176933037044
O	-3.249277727092592	-4.919547764999999	1.4433828433037044
O	-4.592080807092593	-3.9873176449999996	4.875513133303705
O	0.6291033069074077	-5.933165454999999	5.083234093303704
O	0.3467702959074077	-2.325957725	3.7305220533037042
O	2.735297132907408	-2.6559887849999995	0.8128141433037044
O	4.547835302907408	0.49166681500000053	-0.5225662666962956
O	6.044333262907408	3.9154032750000005	-0.060306196696295666
O	7.265653212907408	7.147160385000001	-1.5595307476962956
O	4.001048832907407	9.077637965000001	-1.5715133906962957
O	2.3304338229074077	8.915696405	1.7953900033037042
O	3.4422803229074077	10.615591635	4.989014263303704
O	8.584868632907408	5.5959178750000005	6.139137983303705
O	5.831400142907407	3.2183567180000003	5.079435393303704
O	6.952599242907407	-0.07721344499999949	3.6905840933037046
