80

O	-5.286055918829268	-1.9593422570512193	2.488463979
O	-2.145898431829268	3.9777470829487807	1.6108643960000002
O	-3.259748876829268	-1.5777877970512193	3.664000719
O	-6.209998258829268	-1.2048654070512193	4.547051539
O	-4.786783788829268	-6.158263317051219	3.8783265790000003
O	-0.11784404882926802	4.302004162948781	1.458777817
O	-4.325535788829268	-5.75443256705122	4.994504629
O	-7.048621018829268	-2.009671807051219	0.4795871130000001
O	-6.166800328829268	-5.968322507051219	3.6814213490000003
O	-5.4969278688292675	-0.23593372105121926	3.587702899
O	-6.773573738829269	-3.2910128170512194	1.2205431590000002
O	-6.412111218829268	-2.679355907051219	3.791759039
O	-7.515490998829268	-0.5902241650512192	4.469174519
O	-5.141102568829268	-2.8933176470512194	3.772264589
O	-3.3235936698292683	-3.2389198770512193	2.2764201490000002
O	-2.204248760829268	-3.4541875570512195	4.681175689
O	-9.026457228829267	-3.0783621770512193	1.8757705820000001
O	-0.9175867588292681	-2.5426079770512193	2.945449319
O	-7.580271978829268	-1.0805363570512194	1.389328989
O	-5.574931768829268	-1.7743854570512194	0.1978985040000002
O	-5.793664888829268	0.25335908494878073	6.710522809
O	-5.2339680788292675	-0.9418507590512192	5.940536399
O	-8.866759998829268	-1.7700285670512192	1.767806594
O	-7.890988618829269	-4.056113697051219	1.6594718400000001
O	-5.474012208829269	-3.2562677370512194	1.6467210200000002
O	-4.9436845388292685	-2.9887422770512195	0.2809238420000001
O	-3.820109528829268	-2.6489241170512194	3.5025555290000003
O	-2.343346871829268	-4.138411417051219	2.5008555890000004
O	0.12222111117073187	0.01099299594878074	1.9961483850000001
O	0.05329854117073207	1.3852523929487808	1.7513513490000001
O	-2.573498459829268	-5.464932897051219	3.045054339
O	-3.9468401788292677	-5.932934817051219	2.6981895290000004
O	-1.535697788829268	-3.5525605670512195	3.641904799
O	-0.04053684882926811	-1.7261001570512193	3.694979499
O	-1.027311338829268	2.0525102729487807	2.220536279
O	-1.912479874829268	1.2535269129487807	2.858251269
O	-1.304789008829268	0.31411186294878074	3.701875179
O	-0.2899819188292678	-0.37125055205121926	3.2085496190000002
O	-1.0778809988292681	3.4408934429487807	1.937668081
O	8.145775721170732	-4.133080977051219	7.823136129
O	7.292649261170732	-7.0633450970512195	0.16540270400000012
O	2.8972959611707316	-9.698422657051218	2.124770549
O	-4.000524348829268	-12.216519267051218	1.519479527
O	-3.643091754829268	-10.833169367051218	-2.0229455809999997
O	-1.776110509829268	-7.930813397051219	-3.665997001
O	-0.17841184882926786	-9.082974947051218	-6.9019339109999995
O	3.572873281170732	-9.942334077051218	-7.127825481
O	4.236983571170732	-8.262343427051219	-3.806235341
O	-3.970483778829268	6.517447972948781	9.556470529
O	-5.131633718829268	4.5995544029487805	12.700216169
O	-10.012718958829268	-1.9943225070512194	-5.053113831
O	-7.516558658829268	-4.630163977051219	-6.462169981
O	-6.3532635388292675	-4.324224767051219	-10.077202731
O	-3.326155616829268	-2.184584387051219	-10.452140331
O	1.1275748311707319	10.019865732948782	-3.9481555310000003
O	-1.794027149829268	12.422151332948781	-3.5458592309999997
O	0.9453009211707322	8.637343602948782	1.739730594
O	3.0840657211707323	5.751680752948781	2.9959766090000004
O	1.233992991170732	3.5016757729487806	5.3649863390000005
O	1.1447158711707321	0.05854480394878074	6.524807999
O	4.102618681170732	0.17511445294878072	8.808487629
O	6.133446191170732	1.2547944929487806	5.775453569
O	5.332143361170733	-1.9752407470512192	3.8717033290000002
O	8.344896721170732	-3.434510517051219	2.102929699
O	10.301648521170732	-0.16493256305121926	2.2428762090000003
O	8.319191021170733	-1.3362157770512193	-2.8155459009999997
O	5.743211171170733	0.023142038048780744	-0.3699744009999999
O	2.8935978511707323	-2.4966067470512194	-1.0914707209999999
O	-0.6411858388292679	-1.3569786070512193	-0.6183634509999998
O	-3.281273199829268	1.2803621029487806	-0.4606193609999998
O	-6.787770168829269	2.395666692948781	0.5579942720000002
O	-6.065312218829268	3.082753982948781	4.297540879
O	-3.560802801829268	5.448650572948781	4.2515478390000006
O	-3.707480848829268	9.106956662948782	3.030940899
O	-7.360379018829269	8.439195162948781	2.2658707590000002
O	-6.720405708829269	7.17311932294878	-3.1700449509999995
O	-3.025244706829268	6.868003562948781	-3.949490021
O	-0.3262391988292679	4.60310642294878	-2.560076841
O	0.3766008011707318	1.4832555829487808	-4.582214971
O	3.950491141170732	0.21839838194878075	-5.038942661
