83

O	-5.847692527184	-6.032677395048	-0.9461470645199985
O	0.052914662816000435	1.111047924952	-4.3416237945199985
O	-0.4124703371839997	-0.060484461047999954	-4.825739364519999
O	0.10591998281600046	-1.345583995048	-4.694574604519999
O	0.6016108528160005	-1.623900825048	-3.4259235245199986
O	1.2720718828160003	-0.5350497580479999	-2.9919640245199988
O	0.9724051428160005	0.781340954952	-3.3387352745199985
O	0.07264009281600048	2.444068814952	-4.882530634519998
O	0.7808044128160003	3.4655087649519998	-4.490334794519999
O	-0.6273064441839996	3.1054479949519997	-5.8687522745199985
O	0.9828076028160004	-3.0610315550480003	-3.2048342045199982
O	0.37856628281600035	-3.743608535048	-2.1416558185199985
O	-0.7196614791839996	-4.655843085048	-2.3334353825199985
O	-0.3434535371839995	-5.369104655048	-3.2710017645199985
O	-1.4735858206839996	-4.3481377550480005	-1.1479828675199986
O	-2.1954463191839997	-5.127286105048	-0.20102049451999848
O	-2.641647157184	-6.196043835048	-1.1434806035199987
O	-3.3779789171839996	-5.055509485048	-1.6053960395199987
O	-2.690668567184	-3.824662765048	-1.5761969575199986
O	-2.1639826231839994	-6.890708335048	-2.3496173305199983
O	-1.1242421851839997	-6.588347025048	-1.0154116235199986
O	-3.5721058271839996	-7.4607055350480005	-2.0737863045199987
O	-0.9377023611839996	-6.554207865048	0.4543592654800013
O	-4.679117557184	-4.798500685048	-0.9739458125199986
O	-5.153311037183999	-3.782645435048	-1.7621878695199986
O	-4.5129902871839995	-3.069391285048	-2.6782124645199987
O	-3.1392596071839995	-2.9452536850480002	-2.4326413035199987
O	-2.3105698571839994	-2.728921705048	-3.386533694519999
O	-4.6786811171839995	-3.509233075048	-4.102874404519999
O	-3.9157334171839997	-4.796289135048	-4.060107934519999
O	-4.220695037183999	-6.058975935048	-4.784507994519998
O	-2.9458858071839993	-6.265473445048	-5.479032404519998
O	-2.6717276871839997	-4.894647815048	-5.021430924519999
O	9.326334892816	-8.834171895048	-0.7816984145199986
O	8.916906292816002	-5.195843995048	0.2659704054800014
O	10.660175192816002	-2.058810615048	1.4290313754800015
O	10.860318692816001	-0.6750764320479999	4.924023625480001
O	3.6185901928160007	-2.576195635048	6.037682865480001
O	1.6538316228160004	-5.357345705048	7.736180005480001
O	0.37132063281600036	-6.567320345048	4.299300875480001
O	3.9285415328160003	-7.515219295048	3.3670288754800017
O	-4.822325187183999	-5.272835125048	11.388672445480001
O	-6.748117847184	-7.968451265048	9.548483345480001
O	-4.761701277184	-9.971299485048	6.976817565480001
O	-6.164658557184	-9.503965445048	3.5822038354800014
O	-7.359918187183999	-5.972170375048	4.139874985480001
O	-5.983463517184	-2.4476819850480003	4.050136775480001
O	-6.628081757184	-0.809274385048	7.4862333354800015
O	-3.8157800871839997	-0.5191997060479999	10.076471245480002
O	-1.2110100091839997	-1.4645360650480002	7.432596275480002
O	1.9451495228160005	-1.260117618048	9.668526945480002
O	2.2551091928160005	-0.41028135704799995	-13.814570754519998
O	2.4500905028160003	-4.088725325048	-15.050195054519998
O	-12.102207307183999	0.624087606952	-3.4218281845199985
O	-11.413948577183998	0.25212756595200003	0.32772265548000146
O	-12.384655907184001	3.052890834952	2.661157375480001
O	-9.698026407183999	5.601918864952	3.2584079654800018
O	0.32616325281600034	11.638405494952	-5.3361524945199985
O	3.0205966928160004	7.124095964952	-7.901808564519999
O	4.659711032816	4.4735397149519995	-5.7584938345199985
O	3.726959662816	0.8931727349520001	-6.708638194519999
O	3.3730750828160003	-2.4867914050480002	-5.2924048145199984
O	7.060739502816001	-3.3310260850480002	-5.126640524519999
O	7.4582920628160005	-0.26451647164799996	-2.973605414519999
O	5.060163482816001	-1.542735905048	-0.2915262545199986
O	6.3938377028160005	-0.9225023390479999	3.246378915480001
O	8.807918692816	1.762845814952	2.1429343654800013
O	9.119617892815999	5.290430384952	3.626401115480001
O	4.302993792816	3.811737814952	4.7528918454800015
O	3.7070890228160005	2.767815184952	1.1541644454800015
O	0.3423442428160004	0.7441623949520001	1.5661948154800016
O	-2.0632647441839995	0.586944002952	-1.2678099585199987
O	-3.7300514071839994	1.9161914949519998	-4.365440934519999
O	-5.898159597184	0.970755274952	-7.300560274519999
O	-3.1126466271839996	-0.07636986004799995	-9.741242544519999
O	-0.24538136718399972	2.326658254952	-9.869592014519998
O	-0.23053127718399957	5.7803706949519995	-11.395505344519998
O	-6.466794807184	7.5092404949519995	-8.242041944519999
O	-3.8153365171839995	8.496667714952	-5.681928484519998
O	-1.4347765239839996	6.279820264952	-3.6825047245199984
O	-2.6031428671839993	5.427215664952	-0.20601345451999853
O	-0.21613036718399958	5.460629844952	2.7516055054800015
O	-0.43575966218399964	4.300740034952	6.313108395480002
