88

O	-1.5816928055169805	-3.8256818035849056	6.512758018981131
O	-1.6252644685169806	-4.813669353584906	5.608134618981131
O	-1.6905987235169806	-4.470767323584906	4.331358008981131
O	-2.0513282545169806	-3.207588023584906	3.991754758981132
O	-2.6039781255169805	-2.395486073584906	4.941389798981131
O	-2.3511726125169807	-2.725536353584906	6.245061868981131
O	-2.2024200385169808	-2.8744405935849056	2.691100228981132
O	-2.7311706655169807	-1.6744451835849057	2.3390304989811317
O	-2.7800583375169805	-0.6773895935849057	3.268466008981132
O	-2.7480401365169804	-1.0573096535849056	4.580382688981132
O	-3.4922988115169806	0.45648460641509425	2.8620854789811316
O	-1.4959958795169808	-5.456321853584906	3.3609792289811318
O	-3.818516301516981	1.4444721554150943	3.7852707889811317
O	-2.5594341495169806	1.6968186030150942	4.422597708981131
O	-4.5884195615169805	2.7459830264150944	3.561796998981132
O	-5.030092401516981	3.1534987764150944	4.7133864089811315
O	-2.883811452516981	2.4043833074150944	5.488126718981132
O	-2.1066143485169806	3.4601567164150944	5.897713768981132
O	-1.3168822695169806	4.023988576415094	4.899081748981131
O	-0.7214802215169807	3.0830844664150945	4.050012698981131
O	-1.4503021905169806	1.9226023944150943	3.7011306989811317
O	-1.9926341126169806	5.064675236415094	4.156837718981132
O	-5.163974981516981	1.4097709074150944	1.6740669149811316
O	-5.68596726151698	2.2807927394150944	2.751117278981132
O	-4.0539655215169805	2.3661798784150943	1.2385253679811317
O	-5.0201898915169805	3.0166073164150946	0.3740541739811317
O	-5.131733131516981	4.368860986415094	-0.009090052018868255
O	-5.03004071151698	5.0271600064150945	1.2347326949811317
O	-3.7623014215169803	4.836810346415095	1.8246398849811318
O	-3.5194103315169807	3.461338556415094	1.8223843119811316
O	-2.7710353965169805	5.808677806415094	1.9950003489811317
O	-2.489393891516981	6.969055666415094	2.713460948981132
O	-3.2032324115169803	7.150121696415094	4.026237658981132
O	-1.2456176055169808	7.181683506415094	2.905958168981132
O	-3.1880516615169805	5.753514196415094	4.670053218981131
O	-10.314908821516982	2.6465470184150943	-5.998065841018868
O	-7.49754439151698	0.11818623641509429	-5.944821861018869
O	-6.20232070151698	-2.9650613535849057	-7.719390651018869
O	-3.4036835915169807	-3.2307562535849055	-10.253794171018868
O	-1.5317720605169807	-5.673308083584906	-12.447904771018868
O	-0.30036536151698057	-0.09689772358490578	-9.427302571018867
O	0.5976775984830192	1.8096763884150944	-6.198229691018868
O	1.4200160284830194	5.5201777564150944	-6.280176611018868
O	-0.6295498415169807	6.119062826415094	-3.147786601018868
O	-3.7778067515169806	5.145311226415094	-5.075442201018869
O	-2.9228194025169807	10.832443596415095	-3.674477951018868
O	-6.46321865151698	12.234179576415094	-3.9784063110188685
O	11.027193608483019	10.069571626415096	-5.379403311018868
O	7.464429358483018	9.293879746415094	-4.236991081018869
O	6.0531219084830195	11.837699276415094	-1.789656001018868
O	2.2322800284830193	11.917733076415095	-1.500544541018868
O	0.9990697184830193	10.912718876415095	1.9245588189811316
O	4.04203334848302	8.713275356415094	2.616286528981132
O	5.05833070848302	5.098023186415094	1.9083664889811316
O	8.425777608483019	4.968333326415094	0.06619976298113173
O	8.533889308483019	4.357341016415094	-3.714318661018868
O	4.84294428848302	3.2999065064150943	-3.7110347710188685
O	4.53907819848302	2.471401818415094	-7.480557331018869
O	-9.96877948151698	-5.575938663584906	9.116232968981132
O	-12.77120659151698	-2.947370573584906	9.599126238981132
O	5.26004976848302	2.742530666415094	11.843724828981133
O	7.0209674484830185	3.8930017964150947	8.648535698981132
O	10.565332308483018	2.6263081504150945	7.939189478981131
O	10.837863908483019	-0.5029174835849057	5.796104698981131
O	2.5220821184830196	-12.575366623584905	5.229643368981131
O	-2.9690399115169805	-10.512909723584904	4.8720736289811315
O	-3.9443733515169805	-8.114360583584904	2.110145188981132
O	-5.764583801516981	-4.922725273584906	3.167805378981132
O	-6.0576874715169815	-1.2155506835849057	2.3107895789811317
O	-8.807440361516981	-2.1245670335849054	-0.5025969110188683
O	-6.22949098151698	-4.363991883584906	-2.151015761018868
O	-3.7413044515169807	-1.4955825735849058	-2.509404791018868
O	-1.9886608511169808	-1.5626440135849056	-5.913468801018869
O	-2.7561594815169808	-5.207674483584906	-6.566368371018869
O	-0.23551488151698075	-7.934757503584906	-7.572178781018869
O	2.5576764084830192	-4.327167103584906	-5.161534131018868
O	0.08495881848301945	-4.168381513584906	-2.2244510710188683
O	1.3694402084830193	-1.0447026535849055	-0.4609002210188683
O	0.7406257584830191	-0.6468681535849059	3.224676588981132
O	0.5421412984830192	-2.1276925635849055	6.684427438981132
O	-0.3016590815169806	-1.8422014935849058	10.398410218981132
O	-4.063965021516981	-2.539967673584906	10.033765938981132
O	-4.6246977515169805	-5.716597723584906	8.176534968981132
O	-3.9016486215169808	-9.203112723584905	9.532295058981132
O	3.2788850584830196	-8.338987423584905	8.149204198981131
O	1.9580158884830192	-6.734759113584906	4.957409828981131
O	4.351086968483019	-4.390647073584906	3.253879158981132
O	4.845233998483019	-4.523843323584906	-0.5391622910188684
