100

O	-2.6792957925689667	-4.397604106070689	2.9011663605534475
O	-3.0751248725689666	-5.37290637607069	1.8478794005534476
O	-3.9143546125689666	-6.41077294607069	2.608522710553448
O	-2.7994203125689667	-6.77482783607069	3.5274995405534475
O	-2.3845106625689665	-5.4211247460706895	3.9216746705534478
O	-3.6939104225689667	5.01068010392931	5.559234700553447
O	-3.4645380625689666	4.26691197392931	6.636026140553447
O	-3.2280804425689666	2.93141214392931	6.400865260553448
O	-2.8016039725689668	4.60898946392931	4.605825620553448
O	-2.5236168125689664	3.3098688939293104	4.316920590553448
O	-2.9978258325689664	2.37327895392931	5.178918320553447
O	-2.4901864825689666	1.0755811739293102	5.003290850553448
O	-2.3432321525689668	0.5302853929293103	3.7272638805534477
O	-2.2892528125689666	1.5353388839293103	2.8016790805534475
O	-1.9517826625689665	2.84335980392931	3.1984433505534478
O	-1.8990680525689667	-0.7277073300706898	3.292993550553448
O	-2.3855048625689665	-2.0011644860706896	3.7119697705534476
O	-1.9430238775689666	-3.18247975607069	2.863217620553448
O	-0.6896311235689666	-3.0100321260706897	2.7729983305534476
O	-2.4448237825689665	5.62755954392931	3.7850494905534475
O	-1.7932574205689666	-5.91295539607069	1.4329154855534476
O	-0.7557526815689667	-5.41951962607069	2.2217667705534474
O	-0.09621769256896662	-6.07044161607069	3.1563380905534477
O	0.17268724743103325	-7.14046070607069	2.377597250553448
O	-0.5471103705689666	-7.94752181607069	1.5486526795534477
O	-1.7766547965689665	-7.30197239607069	1.2757143235534476
O	-2.6981972425689666	-7.69189655607069	-0.1354199194465523
O	-2.4098891425689666	-9.14686361607069	-0.35007421944655226
O	-4.1590668825689665	-7.705368206070689	-0.031070354446552373
O	-1.9855899445689666	-6.85510187607069	-1.4984949794465523
O	-3.0942523925689667	-6.564339706070689	-2.4262743694465523
O	-0.9905632285689666	-7.715183736070689	-2.214980739446552
O	0.8337028674310334	-5.72369145607069	4.120821800553448
O	0.9365841074310333	-6.63869485607069	5.232930470553447
O	-0.2194513625689667	-6.95295824607069	5.661244240553447
O	-1.6563523575689667	-2.3060600860706897	5.012264240553447
O	-0.2915628235689667	-2.7036854160706896	4.944419450553448
O	0.3248352274310333	-3.16788031607069	6.116057200553447
O	-0.4439779895689666	-3.8280124960706896	7.024835040553448
O	-1.7897720405689665	-3.8418691460706897	6.832847740553448
O	-2.3154916425689667	-3.35308325607069	5.678998350553448
O	1.8781799274310336	-6.14352287607069	6.254939230553448
O	-3.8134421925689668	-3.3985560260706897	-11.494377529446552
O	-10.094988232568966	-8.54547871607069	-9.57632442944655
O	-8.845145592568967	-5.185519236070689	-8.255158329446552
O	-5.334108832568966	-5.59260562607069	-6.852109319446552
O	-3.6674693925689668	-2.2644462560706895	-6.363113569446552
O	-3.1176247125689667	1.0602909139293102	-8.185958169446554
O	-0.0006878325689665399	2.22774458392931	-9.947943429446553
O	1.4286557774310333	5.12891930392931	-11.913674729446551
O	5.459189987431033	2.21239414392931	-10.835912229446553
O	3.5960190474310334	0.4652603799293103	-7.981709109446553
O	4.201448157431034	-0.8343794940706897	-4.442928789446552
O	6.2555160274310335	-3.96161566607069	-3.8450232694465525
O	3.7784866474310332	-5.10277361607069	-1.2425708794465522
O	1.0665947574310333	-5.490270456070689	-3.8709638594465527
O	2.9197505274310336	-8.60341727607069	-4.998702389446552
O	3.519942167431033	-10.38573453607069	-1.7199960794465525
O	0.9519884274310333	-13.02763723607069	-2.6526520394465525
O	16.25075324743103	-4.539919686070689	-0.10384974844655237
O	12.491891447431033	-5.11116639607069	0.018142835553447645
O	11.431747947431035	-7.92027585607069	2.3485726305534476
O	7.9622269574310325	-9.41197042607069	1.7136710505534478
O	5.692318017431034	-8.84213692607069	4.619411780553447
O	7.455956617431034	-5.6202140160706895	5.743571170553448
O	7.215707677431033	-1.9295167060706897	4.825608300553448
O	10.684895447431032	-0.5949547100706898	3.8571475505534476
O	11.546362247431034	-0.15209742707068974	0.1855337535534477
O	7.967800847431033	-0.46247473807068973	-0.9188502894465522
O	8.323439817431034	-0.019164128070689734	-4.684262359446552
O	-3.156619512568967	10.90417616392931	-4.088755299446552
O	-9.600599212568966	2.12400684392931	-2.6315636994465526
O	-11.926414852568968	2.30962516392931	0.33953993955344763
O	-14.148638152568967	4.86169085392931	4.410142240553448
O	-12.005765452568966	2.73348931392931	6.6894294605534474
O	-13.851416052568968	-0.6473544630706898	6.898072460553448
O	-16.000721452568968	0.4432091149293103	3.936274830553448
O	3.7716545774310335	0.6253769579293103	14.117343170553447
O	6.715420437431034	0.12743432392931026	11.686787370553446
O	9.641625047431035	2.58125795392931	11.676510570553447
O	-6.227869132568967	9.59627898392931	3.8246653605534475
O	-5.416417212568967	6.88276854392931	1.4074652295534475
O	-6.370749772568967	3.37214806392931	2.1506306205534473
O	-5.146231912568966	-0.21651429797068972	1.5610297435534477
O	-7.086440152568967	-0.44430062707068974	-1.7956085294465525
O	-5.139078542568967	2.60506009392931	-3.0498810394465523
O	-1.8389841115689667	0.7168424719293103	-2.4320317994465523
O	0.6406524974310333	1.3445903339293102	-5.211117499446552
O	-1.0947891565689667	4.47071844392931	-6.564003419446553
O	3.5379902974310333	5.65384475392931	-3.751164919446552
O	0.5683993974310333	4.6354579339293105	-1.4700662594465523
O	2.3297363574310332	2.24982348392931	0.8980334684534477
O	0.9744950474310334	1.7596956039293103	4.463642250553448
O	-0.4796612825689667	3.3108131439293103	7.489344640553448
O	-2.4184484125689667	2.88849461392931	10.552036460553449
O	-5.879298162568967	1.9552751039293104	9.316384690553448
O	-7.092452622568967	4.654737503929311	7.1063918605534475
O	-0.8256069045689667	9.969561563929311	8.705724980553448
O	-0.5677951585689667	7.908315723929309	5.542218450553448
O	2.7667985574310334	6.52519216392931	4.796946140553448
