86

O	-5.580877174555555	-0.5968334426622213	-4.281997763544445
O	0.20529399544444482	4.936918817337779	-2.5027856645444446
O	-3.237528999555555	-1.038952642662221	-1.6036614535444447
O	-6.357099274555555	0.9178863353377789	-2.2655732765444445
O	-6.159805054555555	-4.238752212662221	-1.6339165745444446
O	1.0645770354444446	4.708214437337779	-0.6991065735444446
O	-6.780246014555555	-3.7398622626622213	-0.6730931635444446
O	-5.225386154555555	-3.319776412662221	-6.584573353544445
O	-6.946370314555555	-4.907572942662221	-2.607886062544445
O	-6.852016114555555	1.8051958673377788	-3.4350895235444447
O	-6.050794334555555	-2.6024285626622214	-5.718153183544445
O	-4.682187744555556	0.8119769953377789	-2.6048018565444444
O	-7.130534784555556	-0.27888799066222114	-2.6644848395444445
O	-4.462041154555555	-0.35758014266222116	-3.355137723544445
O	-5.273277524555555	-1.7537769326622212	-1.6133743685444446
O	-5.593312934555556	-0.7300632026622211	0.9055791364555554
O	-7.840792884555555	-4.216325032662221	-6.034248973544445
O	-3.330327824555555	-0.9555314626622211	0.9851888564555555
O	-8.354343514555556	0.41234096933777886	0.08659792645555542
O	-5.744896094555555	-4.433714942662221	-7.222778083544445
O	-3.986927514555555	-2.7826629626622212	-6.432600223544445
O	-8.388972444555556	2.585637627337779	0.6659545564555553
O	-7.678052474555555	1.4824633683377788	0.1792696164555554
O	-6.582983424555556	1.701047556337779	-0.7274863335444446
O	-7.015198894555555	-4.907314872662221	-6.913142903544445
O	-7.288194824555555	-3.132573082662221	-5.362095103544445
O	-5.1987381645555555	-1.909655532662221	-4.9125702735444445
O	-3.888845154555555	-2.315055952662221	-5.189398593544444
O	-4.153396944555555	-1.3691617426622213	-2.3724060575444446
O	-4.962041414555555	-2.4387265726622216	-0.3532972235444447
O	-3.1027221705555554	2.3886448573377788	-0.2601312235444446
O	-2.1901044925555553	3.0029399373377785	-1.0743350475444446
O	-3.9557757045555553	-3.470404862662221	-0.7543870635444447
O	-4.708461414555555	-4.185959402662221	-1.8911519508444445
O	-4.585685094555555	-1.354968782662221	0.5339441464555554
O	-3.2164437535555552	0.41469132533777886	1.3627598664555556
O	-0.8737091445555552	3.266405457337779	-0.8685489255444446
O	-0.47999967455555526	2.581096127337779	0.24326427645555548
O	-1.2228348045555553	1.5779305053377788	0.7672313864555556
O	-2.531840162855555	1.3489107723377787	0.4714463264555555
O	-0.04444240455555537	4.365926007337779	-1.2876290615444446
O	-7.290799094555556	0.7524685001377789	11.716802586455556
O	-3.6569327445555553	1.0786810823377788	10.687392386455556
O	1.0828007854444448	-5.041786372662221	7.7557289264555545
O	-3.546284890555555	-6.651159702662221	5.1783487964555555
O	-4.498475044555555	-4.673269602662221	8.303251986455557
O	-3.020212386555555	-14.678397832662222	1.4438760164555553
O	-5.861376934555555	-12.300786632662222	2.4545340564555556
O	-6.937454544555555	-9.795824032662221	-0.20291166354444456
O	-3.498948977555555	-9.982406432662222	-1.8461414730444445
O	-0.1504073045555554	-8.116951532662222	-1.4975776315444447
O	2.7743742954444444	-10.488193932662222	-1.0940263975444446
O	4.270486075444445	-11.083195132662222	2.3634466364555555
O	2.472038095444445	-8.089509752662222	3.831537606455555
O	-6.409592344555556	10.697671607337778	-2.0664406935444446
O	-10.211651634555555	10.328378687337779	-1.4503834165444447
O	-1.5694613935555553	-3.842369362662221	-10.660516573544443
O	0.013817275444444999	-6.572041762662221	-8.486098903544445
O	3.552771325444445	-7.86121819266222	-9.183396693544445
O	6.359118915444444	-6.176637152662221	-7.276574633544445
O	8.068685545444444	7.900038257337779	-3.605716433544445
O	7.3303838454444445	10.086628667337779	-6.614070223544445
O	2.9925473254444452	9.411478277337778	-1.0717869275444447
O	1.7597519654444445	7.520095017337779	1.9790439364555554
O	-1.9094565535555552	6.383501177337779	1.7337434964555551
O	-4.203427874555555	3.635223287337779	2.823219756455555
O	-4.724455294555556	4.999692497337779	6.311894896455555
O	-0.9318057445555552	4.798525117337779	6.768408276455555
O	-0.9755114745555551	1.0074658623377788	6.074019056455555
O	1.294842445444445	-0.8427640026622212	8.486719486455556
O	3.3164443554444447	2.232033797337779	9.476887386455555
O	6.071819835444444	-1.1897836026622213	6.059932696455555
O	3.4142362754444444	0.9538933033377788	4.339784356455555
O	1.8926140354444452	-1.792363272662221	2.192693196455555
O	0.2215163554444448	-0.7521670226622212	-1.0932301235444446
O	-0.1771156745555551	1.377039133337779	-4.185039243544445
O	-2.447755794555555	2.415418997337779	-7.005654143544445
O	-4.544275684555555	5.015420547337779	-5.173589573544445
O	-2.325233410555555	7.455045047337779	-3.4010484135444443
O	-0.02561695455555535	10.072559427337778	-4.961530573544445
O	-1.3550604845555552	8.945146747337779	-8.352859033544444
O	2.829741125444445	5.3844365573377795	-9.648198643544445
O	4.930351925444445	4.905541677337779	-6.5434341035444445
O	4.168808775444445	3.6563911173377788	-3.0662177535444446
O	4.930656305444446	0.033094992337778795	-2.3990365355444445
O	6.523505355444444	-1.1150440526622212	0.9042142664555552
