98

O	8.14925652362	-0.15761269835999991	-1.8916986900999995
O	7.10723147362	-0.89252712836	-2.5524792470999995
O	5.95147753362	-1.3360754383599998	-2.1761398086999995
O	6.33921346362	-1.8177408883599997	-1.0034474000999996
O	7.58933489362	-1.5894745083599997	-0.36630127009999947
O	7.99341879362	-0.30963461835999984	-0.5397910900999994
O	5.13850103362	-0.7507434583599999	-3.3611772701
O	5.16310396362	0.6005231846400002	-3.0277324750999997
O	4.44060652362	0.7870181426400001	-1.7406509570999995
O	6.23657606362	1.08485107064	-3.5582244500999995
O	3.5501290036199995	-0.3837941283599997	-1.5805904270999993
O	2.9158669536199997	0.37468773164000013	-0.6550574300999994
O	3.6877742436199994	-0.17140769835999992	0.5685911199000007
O	5.01762487362	0.06949021164000024	0.7835089299000004
O	5.27000056362	0.7301541906400002	-0.4520986900999995
O	5.63271088362	-0.32719821835999974	1.9976236099000002
O	6.82376303362	-0.33655107835999987	2.388465809900001
O	5.22839947362	-0.4774927583599997	3.3274815399000004
O	3.0319246336199996	-1.10162819836	-2.7642259440999997
O	2.6234502936199995	-0.7683442083599996	-4.0147314200999995
O	1.3238499436199995	-0.5296765683599998	-4.3679493701
O	0.7935792456199996	0.5933110396400002	-3.4676387100999992
O	1.1181922786199996	1.8689338386400003	-3.8445632400999994
O	1.2311270076199996	-1.4121556983599997	-5.205431730099999
O	1.8569023206199997	1.6863877816400001	-4.939881270099999
O	1.6266769536199996	2.72237716164	-5.812042250099999
O	1.2410488876199997	3.84904479164	-5.4247545101
O	1.4646210876199997	4.02138876164	-4.0117699401
O	1.8617641966199996	2.85579347164	-3.286561400099999
O	3.4133688036199996	2.5072354916400004	-3.1208361610999997
O	2.3000615336199997	2.64762526164	-7.0810019601
O	1.7336415066199997	3.3147968716400005	-8.0868626401
O	2.3920909136199997	4.55332721164	-8.590067120099999
O	0.5510169526199996	3.0195665916400003	-8.909623930099999
O	4.00440939362	3.8147155016400003	-3.6891058600999997
O	3.8086432636199996	3.9790974516400004	-5.102997050099999
O	4.751008973619999	2.86668594164	-5.483249940099999
O	4.387486303619999	1.4698945876400002	-5.175455680099999
O	3.7778955436199997	1.6424265416400001	-4.077152680099999
O	3.9770547536199996	5.189293831640001	-5.7902567001
O	4.51863605362	0.49188275164000017	-6.214185650099999
O	3.5464716736199997	-0.3950862683599998	-6.725240360099999
O	3.0814257136199994	-0.20088595835999978	-8.1300065401
O	1.6977708996199996	-0.030773908359999824	-8.373792570099999
O	0.6878789706199996	-1.0761992083599996	-8.2021878101
O	5.37063502362	0.8134233436400002	-7.037005500099999
O	4.07224740362	0.7280142666400002	-8.7400691701
O	1.4260010426199996	0.7339031726400002	-5.673695930099999
O	-1.0981969263800004	-7.937182368359999	-8.7796600801
O	-1.7680657163800007	-7.585963178359999	-5.0554636701
O	-3.0197564363800007	-9.40944514836	-1.9326775000999994
O	-6.38072309638	-9.074220548360001	-0.2789700700999995
O	-8.47425356638	-10.345230948360001	2.6272290899000006
O	-8.02201369638	-4.96539835836	-0.9684136200999995
O	-6.33729648638	-1.6492966383599998	-1.7013328200999995
O	-7.653579776380001	0.8148291976400002	-4.2624388201
O	-4.27149417638	1.4609115816400002	-5.7001115401
O	-3.9365706463800003	-2.0515222483599995	-6.8709937501
O	-4.97541157638	2.11621285064	-10.8777925201
O	-9.89160657638	7.8062684216400005	-3.6508466700999995
O	-7.86083697638	9.48992629164	-6.3779561201
O	-5.78205121638	7.1959988716400005	-8.609999800099999
O	-2.1868783763800006	7.85412454164	-8.2078682101
O	-2.4565789263800006	8.996322341639999	-4.6490241601
O	-2.5718760263800005	7.42364869164	-1.1247748100999995
O	-5.69950691638	8.55808639164	0.8187297399000006
O	-8.71760074638	6.2208577516400005	1.0587849199000003
O	-6.64317323638	3.26445074164	-0.23574918009999957
O	-9.38807287638	0.5924540306400002	-0.05201466009999933
O	13.55935572362	-4.31491489836	-0.8345096600999995
O	14.61841722362	-4.65440468836	-4.616988300099999
O	6.29964195362	11.74916525164	1.1303397099000003
O	2.4812156836199994	11.81185185164	1.1647540099000007
O	0.6061960336199996	13.10670975164	4.2110823999
O	6.39622390362	-1.4866407183599997	11.7858069099
O	8.06567387362	-4.31251024836	6.9722050999
O	5.55348724362	-5.1963766283599995	4.3606117499
O	6.30683040362	-4.418330098359999	0.8135597499000005
O	4.47128480362	-3.39400029836	-2.6268261280999994
O	3.8652402136199995	-6.824951168359999	-3.6724771100999996
O	2.00657899362	-7.265435748359999	-0.26023531009999945
O	-0.2442522363800005	-4.28433568836	-1.1744620270999995
O	-3.91398577638	-4.95262446836	-0.4299669700999995
O	-3.1310696863800005	-7.745219508359999	2.0581525199000006
O	-4.42083048638	-8.065387878360001	5.669121259900001
O	-4.74979070638	-3.01731512836	4.581273899900001
O	-1.1398060163800006	-3.0100313183599994	3.3572645999
O	-1.0553416263800002	0.4407425406400002	1.5008541299000004
O	2.28224078362	2.3415037716400002	1.0644376499000003
O	5.62143440362	3.29984743164	2.153545569900001
O	8.89043006362	5.00504308164	1.5375092699000006
O	10.71813139362	1.9669042646400001	0.2059446499000006
O	10.31278208362	-1.20142033836	2.1904562899000006
O	11.96536472362	-1.7133009183599996	5.5605572899
O	7.28686437362	2.74050104164	8.8843596099
O	4.79868239362	0.9259204866400002	6.653184939900001
O	1.5412711226199995	2.7727083416400005	6.155866919899999
O	-1.8567268863800006	0.9204696586400002	6.4359215299
