80

O	-5.319637627945946	2.7714131659729735	2.039782293540541
O	0.7171419720540535	4.627622950972974	-1.947673056459459
O	-5.375849697945947	2.0102302173329734	-1.2218047664594593
O	-5.605952217945946	5.1878601209729736	0.13269301244054077
O	-7.528320377945947	0.15504535097297345	1.6806056435405408
O	1.9531778320540538	3.5231945609729736	-3.344034386459459
O	-7.870525997945947	0.0691061409729734	0.4667827475405407
O	-2.7114643532259466	2.4165814509729735	1.1056252805405409
O	-8.154310017945946	1.1637029329729733	2.442519373540541
O	-4.582731247945946	6.125918790972974	0.8131872635405407
O	-3.7997252479459465	2.7256753639729734	2.056700803540541
O	-4.896286637945947	3.790011200972973	0.2078064355405408
O	-6.531861637945946	5.242739160972974	1.2043229735405407
O	-5.915214837945946	2.8734587659729733	0.7315938295405408
O	-5.3037033279459465	0.7966551609729735	0.6526501205405407
O	-5.719635957945947	0.08867731097297349	-1.7487016964594593
O	-2.6151471489459466	4.115724300972973	3.099407983540541
O	-3.6378774709459467	-0.4238223890270265	-1.0541275564594592
O	-2.7470502957459466	3.243703090972973	4.199256883540541
O	-3.8686113779459466	3.131565740972974	5.025449743540541
O	-2.7903950516459464	0.9863177109729735	1.3814089835405408
O	-5.624949797945947	7.237410870972973	-1.5168423764594592
O	-5.504976937945946	5.715180900972973	-1.4969900564594592
O	-3.9663312079459465	4.145832710972973	6.127776413540541
O	-4.878318487945947	5.260617100972974	5.629353873540541
O	-2.0232445949459468	3.2836903309729735	0.34206813954054077
O	-2.1734390179459466	4.212908680972974	1.7620492535405408
O	-5.0150576179459465	1.8624058589729735	-0.054328076459459224
O	-5.470436527945946	-0.48318476902702656	0.3318606395405408
O	-2.4760116269459465	2.0469444691729737	-2.257440176459459
O	-1.4610314579459465	2.9578455759729736	-2.420946756459459
O	-5.814409777945947	-1.5044140090270264	1.2788059835405408
O	-6.630467427945947	-0.7837797190270264	2.360870133540541
O	-4.981560197945947	-0.5143237790270265	-0.9677672264594592
O	-3.1352611239459467	-0.21600890902702652	-2.418232346459459
O	-0.16781368794594664	2.6171303789729734	-2.174173086459459
O	0.14515148205405337	1.3235590019729735	-2.199307536459459
O	-0.8623632679459465	0.4188006409729734	-2.189978636459459
O	-2.1171784829459463	0.7945410509729736	-1.9537740364594594
O	0.9313905720540534	3.4918192109729738	-2.416542386459459
O	-3.9427364179459463	4.1779328009729735	2.601183473540541
O	-4.483400847945947	1.6914237289729734	2.382360543540541
O	-3.5534386229459467	0.6114388909729735	2.423818783540541
O	-4.789548837945946	-6.455510259027027	-9.51255077645946
O	-2.9058729339459464	-9.696524439027026	-2.120936736459459
O	-7.3774432979459466	-7.057319939027027	-0.27715761645945924
O	-10.994899847945947	-3.2196234790270264	4.796131803540541
O	-7.730771637945946	-3.422905919027026	6.766079033540541
O	-4.0600700379459465	-4.0592586690270265	5.950469733540541
O	-2.5881764659459465	-6.832105439027026	8.008578573540541
O	-2.0392420389459467	-10.281763539027025	6.518072773540541
O	-2.4666925879459467	-9.027426639027027	2.992280833540541
O	-1.7347984549459465	9.355432310972972	-8.104428606459459
O	-5.331546367945947	10.147927190972972	-9.195094576459459
O	-1.4661789779459466	5.414780920972973	9.04459913354054
O	-1.9383193869459465	1.6601578219729736	9.690918983540541
O	0.7219179020540536	-0.045290219027026346	11.713468433540541
O	3.634223292054054	-1.5694168090270266	9.84895277354054
O	10.548150432054053	3.2253221909729737	-2.329681546459459
O	11.205764532054053	6.9627209109729735	-1.9760287964594594
O	-0.23787622794594654	2.5389111599729732	-6.335216566459459
O	-3.2709727519459464	0.8457837709729734	-6.012182216459459
O	-3.5027614779459464	-0.6007703090270264	-9.46372823645946
O	-1.7897675949459466	-4.159919639027026	-5.644045356459459
O	-0.9754434479459466	-7.930671959027026	-5.514667806459459
O	3.4435841620540537	-8.280349339027026	-2.538305996459459
O	2.3095790120540536	-4.795017749027027	-3.534602766459459
O	0.08284901205405326	-4.233567249027026	-0.4323860854594592
O	-0.31569772794594675	-0.7150191390270266	0.7609560575405407
O	0.8280628420540537	2.8913712119729738	1.0978037025405407
O	-0.5872888479459464	6.564316800972973	1.7220650135405406
O	-1.8716463319459464	7.516924450972973	-1.6809085064594593
O	0.7807057520540535	6.925997460972973	-4.071019986459459
O	4.186024952054053	8.571735660972973	-4.436055786459459
O	3.0728947020540534	10.839789050972975	-1.6241803964594592
O	5.709808422054053	8.067138800972973	2.502731173540541
O	7.024042852054054	4.785459600972974	1.1110628365405408
O	5.281440732054053	1.8268605339729735	-0.5276359054594593
O	4.436738162054054	-1.0472079090270263	1.8864645635405408
O	4.709228522054053	-4.710961209027026	0.9201788445405408
