91

O	1.7281463110725488	1.2190532190196077	6.0081136608431365
O	1.064135919072549	0.19296858901960778	6.377574220843137
O	1.264848871072549	2.0524497890196076	4.947387960843137
O	2.490596361072549	1.4999098890196076	7.135611040843137
O	1.798757641072549	3.123022389719608	4.350781840843137
O	-0.23990878992745113	4.323194569019607	1.7977235208431368
O	2.558506721072549	3.508356676019608	-2.815972029156863
O	1.5584329910725487	3.6272886310196077	3.0422344508431367
O	-0.3576912359274511	7.266739589019608	-0.28909790345686326
O	4.626226451072548	2.795527328019608	-0.9674495091568633
O	0.2601565458725489	3.4718982780196077	2.722060400843137
O	-0.1750063589274511	2.247686967019608	2.955140500843137
O	0.3025614020725489	1.5914755390196078	4.119389140843137
O	0.5619632600725488	5.341024729019608	1.2523606508431366
O	1.710557471072549	4.7001280290196075	0.6015927988431367
O	2.931291651072549	5.198490099019608	0.9682794408431368
O	3.920020281072549	4.459959159019608	0.37575484484313676
O	3.800486781072549	4.028717324019608	-1.0115252601568632
O	2.559429681072549	3.679361525019608	-1.4154227191568634
O	1.499103661072549	4.0731284350196075	-0.6498356331568633
O	2.002701701072549	4.6544722890196075	-3.376003819156863
O	5.955790811072548	3.324500611019608	-0.7476048931568633
O	6.080568751072549	4.170805066019608	-1.9983588891568633
O	5.908489661072548	5.528390579019607	-1.9717555391568633
O	5.818068501072548	6.088413589019607	-3.215181449156863
O	5.377913251072549	5.469986149019608	-4.353746119156863
O	5.586712721072549	4.116145850019608	-4.357948449156863
O	5.758818471072549	3.5087191950196077	-3.147949289156863
O	-0.5882776259274511	7.428598379019608	-1.6925588991568634
O	0.7850600590725489	7.582025399019608	-2.152504529156863
O	0.9885446770725489	8.484793529019608	-3.159702069156863
O	1.9725124410725488	7.943048599019608	-4.054751779156863
O	3.160417191072549	7.835086349019608	-3.410075609156863
O	3.163497421072549	7.5154238690196085	-2.0817530691568633
O	1.9713029410725489	7.397221159019608	-1.4222471491568633
O	-1.521223618927451	8.538999839019608	-1.8896589091568634
O	-2.712042308927451	8.285153429019608	-1.5073175591568633
O	-0.17753248992745113	5.909210859019607	0.13645855284313674
O	-0.5240383899274511	5.050395749019607	-0.6828852511568633
O	-1.025711508927451	9.763193029019607	-1.5009021591568634
O	-11.07163335892745	5.601725299019607	-1.2433458791568632
O	-9.646369568927451	2.272963753019608	-0.08762666615686326
O	-10.50268925892745	-1.1381855009803927	1.2958660108431366
O	-10.693161058927451	-4.453103280980391	-0.5221618761568633
O	-7.748742078927451	-4.450098730980391	-3.897426099156863
O	-4.500516288927451	-2.4953813709803927	-4.4713285891568635
O	-3.625495898927451	-1.1176418109803925	-7.894792919156863
O	-2.447275068927451	2.1581135690196076	-6.319929589156863
O	-5.9412909789274515	2.9432378030196076	-5.132013419156863
O	-3.864691398927451	5.844843339019608	-9.765299959156863
O	3.612065271072549	-4.894569230980391	-14.780639129156864
O	2.173632491072549	-2.2909630109803927	-12.373374329156864
O	3.437290281072549	1.2506859390196077	-12.949086729156862
O	1.259323721072549	4.037007213019608	-11.557566029156863
O	3.018974011072549	6.018978089019608	-8.835733539156863
O	5.166898201072549	3.0754069510196076	-7.841978829156863
O	4.902762881072548	0.10844072901960766	-5.460111069156863
O	5.587431091072548	-3.159770040980392	-7.3164425391568635
O	2.687840581072549	-5.440487680980391	-8.410988029156863
O	0.2535211408725489	-3.448543160980392	-6.2237764791568635
O	-2.928142538927451	-5.501021570980392	-6.9478123191568635
O	-0.3463442669274511	8.379779349019607	11.840009870843136
O	-1.5191409289274511	11.935443619019608	10.839231370843137
O	12.41412274107255	3.5914386870196076	0.5350368288431366
O	11.39536924107255	1.2744996590196078	-2.375000019156863
O	12.758900041072549	-2.1650736509803923	-2.875149859156863
O	10.851133041072549	-4.918426030980392	-1.1611632201568634
O	3.997383091072549	-5.696061310980392	11.672810670843138
O	0.4526081330725489	-1.0347910509803921	11.742806670843137
O	-1.958111638927451	-0.5360144209803921	8.911563890843137
O	-2.131525528927451	2.927928272019608	7.336226560843137
O	-2.794117868927451	4.632606599019608	4.010236430843137
O	-6.623393768927452	4.604103349019608	4.553909670843137
O	-6.416259548927451	0.8213088990196078	4.847477160843137
O	-4.817988108927452	0.5130201590196077	1.3772345708431366
O	-6.316155878927451	-2.3838989909803927	-0.6232336621568633
O	-7.680348078927452	-4.159172540980393	2.448825380843137
O	-7.1051931589274515	-7.809081660980391	3.446972770843137
O	-3.109459978927451	-6.537555280980392	0.4305542678431367
O	-2.399677888927451	-3.282630760980392	2.392620070843137
O	0.0791502925725489	-1.7059335809803922	0.04247498084313672
O	2.603672021072549	0.7957292190196079	1.4263814808431368
O	4.937907191072549	1.8254732490196077	4.1543445508431365
O	6.932766731072548	4.710829839019608	5.318878710843137
O	4.3038230210725485	6.567356349019608	7.251166310843137
O	2.394874301072549	4.376872549019607	9.510561480843137
O	3.562298571072549	2.6966338240196075	12.751721070843137
O	7.1115652110725485	-2.4517183109803926	9.031024700843137
O	4.002591041072549	-2.3435442009803924	6.8272703208431365
O	4.451970831072549	-3.636439080980392	3.326013800843137
O	1.8378489710725487	-5.914320040980392	1.7447611708431368
