87

O	3.7051860554565224	2.1697827940869563	-6.111122526393478
O	-1.376569394543478	4.001770715086956	2.795274783606522
O	4.151742715456522	-0.34863959491304386	-4.344885016393478
O	5.470430515456522	3.9956154250869558	-3.4967540263934778
O	2.118095997456522	3.7700125550869563	0.7823217936065223
O	-0.711954844543478	5.214427585086956	1.4579967936065223
O	9.384804215456523	-1.004117074913044	-0.3221007863934777
O	2.281517711456522	1.6914833444869561	-6.288910496393478
O	2.675714635456522	4.215352715086956	1.8945795536065222
O	6.715002165456522	4.712499905086956	-3.750561956393478
O	4.631628215456522	1.2236986370869563	-6.8308354163934775
O	5.452226425456522	2.675347100086956	-4.553857996393478
O	4.317664065456522	4.703475055086956	-3.794486926393478
O	4.129289685456522	2.155106663086956	-4.688552726393478
O	1.647944492456522	5.027832945086956	0.6843876436065224
O	8.015751995456522	-0.07939760491304382	1.1568825536065224
O	5.843586785456522	1.0175856310869562	-5.978333836393478
O	7.907008435456522	2.135993504086956	-1.1805882203934779
O	6.880538925456523	2.559828979086956	-2.011100749393478
O	5.886478095456522	3.618735815086956	-1.7912143353934777
O	8.171625605456521	0.2275406150869561	-2.483740163393478
O	6.907890615456522	0.5121801550869562	-3.0345870263934778
O	7.975318355456523	0.7170766970869562	-1.1275168303934777
O	7.099497645456522	1.9213769270869563	-3.255265216393478
O	8.741081205456522	0.05667084508695619	-0.03713249639347782
O	3.8823755254565215	0.8322996510869562	-4.1382161763934775
O	1.727165229456522	0.9088112940869563	1.9879583336065223
O	0.696035217456522	1.8188451500869562	2.2779924436065224
O	3.500620715456522	0.7083128360869562	-2.828287456393478
O	4.153511355456522	0.7825723950869562	-1.6699737890934778
O	3.835350525456522	1.6008294030869563	-0.4714474963934778
O	2.8493567854565223	2.745767505086956	0.049727643606522154
O	0.05075497545652197	2.6712436180869563	1.5250014236065224
O	0.08437441545652202	1.9591400590869563	0.44589129360652224
O	0.9290714904565219	0.8668314060869562	0.08666424360652214
O	1.802491279456522	0.26392993508695617	0.851655843606522
O	-0.551695854543478	3.8954476050869564	1.8997182336065221
O	4.272166805456522	-0.6025777149130438	-1.2399948383934778
O	5.255516375456522	-1.3039680849130437	-1.1003684453934777
O	3.114164145456522	-1.2055682749130436	-0.7699067563934778
O	2.785132415456522	-0.8756397149130437	0.6517729236065222
O	6.9800985554565225	-7.995073254913043	7.993924883606523
O	3.3831403054565223	-6.923810224913044	7.523750663606522
O	0.0008882154565219569	-6.889209394913044	9.110185713606523
O	-1.2543924945434781	-8.783369094913043	0.9878164136065224
O	3.3561825354565222	-7.861522744913044	-1.955590379393478
O	4.325471615456522	-8.901032294913044	1.580245713606522
O	2.879163685456522	-10.527872794913044	-10.381925366393478
O	5.721662675456522	-9.565120494913044	-7.959061036393478
O	6.712386845456522	-5.919044854913044	-7.9549456863934775
O	3.186909715456522	-4.985073854913044	-9.158666596393477
O	-0.1970099445434781	-4.085621834913044	-7.514464776393478
O	-3.0596689545434774	-5.931516024913044	-8.985392196393477
O	-4.468962014543478	-8.891780994913043	-7.069702026393478
O	-2.653501564543478	-7.929999554913044	-3.892381316393478
O	-3.9435935545434777	-10.640030294913045	-1.5795932232934777
O	6.484036305456522	9.126392995086956	5.949329743606522
O	10.253501595456521	8.348116865086956	6.153021183606522
O	1.084874868456522	5.6190352050869565	-10.495450416393478
O	-0.570694564543478	2.1985514980869563	-11.064663916393478
O	-4.146392194543478	1.8366325300869561	-12.408823086393477
O	-7.325255014543478	12.021311605086956	2.8893317436065225
O	-3.722444564543478	10.685273995086956	7.666300643606522
O	-2.5884789345434784	7.530821815086956	5.676262523606522
O	-1.278888094543478	4.085154815086956	6.132420003606522
O	2.091196565456522	3.3566788450869565	5.258280603606522
O	4.264200385456522	0.5356074650869562	4.0282445236065225
O	4.601007795456522	-1.0708207749130436	7.524707613606521
O	0.847607897456522	-1.4443479849130438	7.605991713606523
O	0.7299014964565219	-3.566522874913044	4.417634513606522
O	-1.565898384543478	-6.562836404913044	4.606081083606522
O	-3.514186304543478	-5.072989394913044	7.530466873606523
O	-6.312527654543477	-4.915718804913044	2.7207684736065225
O	-3.598548964543478	-2.1919937049130436	3.1347564536065224
O	-2.147700124543478	-2.5204720449130438	-0.3792415363934778
O	-0.545965374543478	0.6475616350869562	-2.0211143513934777
O	-0.07235673454347813	4.410761265086956	-2.216025789393478
O	2.0382283714565217	7.295539695086956	-3.467825326393478
O	4.466234225456522	7.795426975086956	-0.4509348663934778
O	2.2646173054565217	7.944794995086956	2.6673110436065226
O	0.06856844545652185	10.850640305086957	3.6479101436065218
O	1.191558882456522	12.646226005086955	0.5523884336065223
O	-3.143943274543478	11.258338535086956	-2.798254876393478
O	-5.0473819845434775	8.566626235086957	-1.0362666043934778
O	-3.9876773845434776	5.179525665086956	0.15669379360652225
O	-5.052734784543478	2.2447564130869564	-2.030361088393478
O	-6.733235424543478	-1.0079956549130438	-0.6931400343934778
