47

O	10.75891169690784	38.81540781744911	31.51870475192515
O	10.880961197729244	41.20064862785034	30.598416782289334
O	11.702548929856738	40.9051117585172	31.73571854404939
O	11.770808131121573	39.54130780439428	32.198103171905736
O	11.362023375487498	40.211215405361756	29.67155819420942
O	11.043086435859198	38.93176409147755	30.18508048771416
O	10.40460359924889	38.12160123436201	29.13109933299129
O	11.424004494234936	37.72087699141579	28.15884338132883
O	12.646129118039243	38.54546057548402	28.272195350897
O	12.033258594665119	39.93144143283729	28.399484762353417
O	9.456076533040576	37.41947183448254	29.60385107988347
O	11.119848856491263	39.7034938267865	33.51728573792655
O	10.087633426209443	40.66251725614882	33.48886343644786
O	10.437131617103251	42.090145556096786	33.158336204320655
O	8.736080568623816	40.654575114368214	33.841253293360616
O	7.9896363031728574	41.52555094637763	33.26952624854631
O	8.781135004569022	40.72690836248401	35.235826980342445
O	7.455962427712455	41.00278468708399	35.81989013609633
O	7.927700528482509	40.22804093190708	37.02527957264313
O	9.105810506719434	41.0467372610156	37.42726656260532
O	9.646740851462955	41.50568141950793	36.14580005895364
O	7.501018753703211	42.45357926044737	35.90020816498895
O	11.351221036364084	42.820346830049985	33.845309456211645
O	11.566128546230102	44.192459913964846	33.646232130737005
O	11.139340382151136	44.642405986462805	32.400000141525574
O	10.116882303324847	43.95087836364308	31.81604368486752
O	9.515519782589283	42.88651529681395	32.42998567053341
O	11.38304357724381	46.02137720567154	32.25348515988154
O	12.689071295269041	46.282965435713024	31.82857749302656
O	11.801405650520536	45.086905805828025	34.70886871217879
O	11.59818436046896	46.4224042509822	34.46655337528352
O	8.461665740414766	43.27635801589889	35.320283952674004
O	8.21426895287361	44.619531082296845	35.41353047323386
O	8.689387855706043	44.57171129664108	36.73679555871669
O	7.810477380164468	44.006224628632744	37.723308426953196
O	7.377019978183248	42.74665417922496	37.300249256210044
O	6.251998574016783	41.613744800658104	37.978489073136195
O	6.65878703755309	40.42937211920145	39.174573326133526
O	5.283344894141923	42.492058841863795	38.66152687716042
O	5.393479204381503	40.934859666165856	36.97793923284896
O	7.365434927176349	41.015845817681516	40.27379045070213
O	5.684289533925993	39.3580250558165	39.23686578182931
O	8.724983184693214	45.43989321223683	34.40890611682577
O	8.16268952013942	45.99153881720063	33.251078026388484
O	8.45665056992979	46.373209213532164	31.989496749744447
O	6.91894484660901	46.19185785951076	33.41909676854254
O	8.631691171976996	47.7367676826738	31.712464700659247
