10

O	12.152703198253795	38.73070603042782	31.118007641646134
O	13.288261717956262	38.12596313481213	31.50595200382258
O	11.633067577212115	38.44529649598563	29.894567916856985
O	12.52803912228252	37.92479129083242	28.991828139581298
O	14.145525341946112	37.71002978826457	30.54845401576786
O	13.879107839381852	38.13779220861129	29.282885648045834
O	11.580654971431114	39.67216719457484	31.98227161982393
O	10.644570631867333	39.322258298890006	29.52710826014226
O	11.38739078120847	40.892186202425485	31.31540224101898
O	15.937695787425008	37.5233496041106	30.51957289109232
