87

O	1.8779662054905661	2.345232374150943	-6.03100053526415
O	1.1886746254905662	3.173283861150943	-5.12390723526415
O	2.115108385490566	6.1329635481509435	-3.12723315526415
O	2.748442645490566	4.700426048150943	0.1007857647358501
O	1.9536086754905662	3.956014438150943	-4.11016244526415
O	1.5351855654905662	3.6546066781509428	-2.94271324526415
O	0.019737605490566246	3.7672441981509426	-5.74131097526415
O	1.6121444854905662	7.474666138150943	-3.16842531526415
O	3.5674847954905657	3.613030318150943	-0.5014344152641499
O	-0.7042956885094338	4.893231398150943	-5.0440236852641505
O	0.10339552349056624	7.4497452481509425	-3.02404719526415
O	3.2579970754905663	2.198659322150943	-0.6984009572641499
O	3.947058555490566	1.3624096981509428	-1.73259177226415
O	-1.5596458725094338	4.758578518150943	-3.95606600526415
O	-0.3080788215094338	8.237236288150942	-1.91625148426415
O	-1.2634524165094339	5.727285418150943	-5.9581398252641495
O	-0.4466975485094338	8.080051158150944	-4.137864635264149
O	-2.767067184509434	5.381814758150943	-3.8376798652641497
O	-1.6654374945094337	8.318877378150944	-1.7879467782641498
O	-2.614116934509434	6.017984798150943	-6.07809447526415
O	-1.7408204945094337	8.511719688150944	-4.11163806526415
O	4.023038565490567	-0.0033576118490570295	-1.75284148426415
O	-3.425216124509434	5.741891618150943	-4.9817861452641505
O	-2.390691824509434	8.529174388150942	-2.9171618652641502
O	4.602361375490567	-1.104014101849057	-2.3397755882641498
O	5.583060075490566	-0.8039621518490572	-3.05784547526415
O	4.7964661954905665	-2.4284926918490575	-1.88839585426415
O	1.754441265490566	5.495721048150942	-1.87322195626415
O	1.5576096254905663	5.367896938150943	-4.19361322526415
O	0.5492594654905661	5.730549628150943	-1.7393673912641499
O	3.080426065490566	6.132368538150943	0.3690379247358502
O	1.6290207554905662	4.727230338150942	-0.71238777226415
O	3.6167315654905665	6.967979588150943	-0.6814523002641499
O	1.858271865490566	7.086662528150943	0.17976234473585007
O	3.354090935490566	8.843782358150943	8.57913342473585
O	2.501222685490566	5.164235278150943	8.261987244735849
O	2.312645745490566	1.889458878150943	10.10907862473585
O	-0.7203460245094337	0.13936067815094288	11.48138042473585
O	-1.7943463745094337	-2.960019131849057	13.40506922473585
O	-4.264365214509434	1.0416706781509428	8.965631924735849
O	-4.6221565445094335	2.113754928150943	5.31207964473585
O	-7.232217994509433	4.704623978150943	4.34527380473585
O	-4.671529584509433	6.353767708150943	2.04427917473585
O	-2.527769224509434	7.298017398150943	5.08041910473585
O	-12.849946534509433	4.498024508150943	-0.47917948526415
O	-12.062148034509434	7.392205318150943	-2.80180292526415
O	-9.132157204509433	9.585785738150943	-1.7801603852641499
O	-6.263037944509433	9.408197838150944	-4.29054200526415
O	-7.245948464509434	5.884302558150942	-5.44383003526415
O	-6.405172594509433	2.3072056841509427	-4.34088347526415
O	-9.653816664509433	0.33079396815094286	-3.75342399526415
O	-10.960533534509434	-0.19953556184905707	-0.20121867526414983
O	-7.649522334509434	0.9435463681509428	1.3175828847358502
O	-8.485544154509434	0.4244428481509428	5.03535861473585
O	13.463161565490566	1.838869927150943	-3.38489643526415
O	14.495437165490566	5.574181208150943	-3.4035972852641496
O	-1.3350197655094338	0.16059304815094277	-13.01166097526415
O	-4.577281734509434	0.09968330815094273	-10.950889295264151
O	-6.879944604509434	-2.8604389718490575	-11.107529405264149
O	-6.336620784509433	-5.6100911618490565	-8.54717807526415
O	5.888527335490567	-10.791902021849058	-2.69254829526415
O	11.904730565490567	-8.470557221849056	-1.40273651526415
O	8.887398115490566	-6.160882031849057	-0.9040075862641499
O	7.221716995490566	-3.6847848518490567	1.41534001473585
O	7.546533555490566	-0.049705131849056894	0.5054421647358502
O	5.939156725490567	3.2113021351509428	1.11163311473585
O	7.015484845490566	3.824220168150943	4.56431581473585
O	5.364128365490567	0.5500117581509429	5.44466130473585
O	1.8999701654905663	1.736373984150943	4.22810775473585
O	-0.8134885985094338	0.804950608150943	6.62804358473585
O	1.272810875490566	-1.8871664618490573	8.38599620473585
O	0.3629952984905662	-5.555327091849057	8.991366424735851
O	-2.582934214509434	-4.017464641849057	5.02581543473585
O	0.4140164094905662	-2.558446141849057	3.1990711847358497
O	-1.4028469835094337	-0.680289091849057	0.4945065847358503
O	0.4106412204905662	-0.15403917184905724	-2.83466542526415
O	2.770003095490566	-1.1670436918490572	-5.62182161526415
O	4.6615732054905665	-0.03490791184905717	-8.71693715526415
O	7.769278045490566	1.3204221781509429	-6.91833767526415
O	9.091241605490566	-1.205698921849057	-4.4144451752641505
O	10.836340765490567	-4.4978044018490575	-5.13901884526415
O	5.811070265490566	-6.527700301849056	-9.850690345264152
O	4.400526105490567	-7.654065921849058	-6.51800322526415
O	3.281968185490566	-5.5495489018490565	-3.50363334526415
O	-0.41248153350943384	-5.035625921849057	-3.24197149526415
O	-2.2431035245094337	-5.466219541849058	0.08054263473585
O	-5.752389674509433	-4.664520831849057	1.24349283473585
