85

O	3.142845162352942	-4.3881084541176465	6.30770264272353
O	2.573667382352942	-5.037721834117647	5.1825361827235294
O	-0.2735124216470582	-3.9305467841176465	3.18170625272353
O	-2.263645937647058	-1.1980972391176465	3.89891196272353
O	1.3496304523529417	-4.3471706441176465	4.77224867272353
O	1.0298153423529417	-3.2961714741176467	5.357760802723529
O	3.454931462352942	-5.000554974117646	4.04965422272353
O	-1.0287323256470582	-4.999757424117647	3.9656078027235298
O	-1.5169949376470582	0.02788130488235352	3.7454951927235296
O	3.000350242352942	-6.0231861641176465	3.06600735272353
O	-0.061873386647058215	-6.074154954117647	3.75229027272353
O	-0.07292815284705821	0.2693373358823534	4.02849861272353
O	0.6688752563529418	1.4757113558823534	3.60858393272353
O	3.301267852352942	-7.252184874117647	3.4329918227235297
O	-0.031241629647058206	-6.370800364117647	2.4348737027235297
O	3.100686112352942	-5.696998554117647	1.7532978327235296
O	0.1532251073529418	-7.010942734117647	4.668986892723529
O	3.543387252352942	-8.223770004117647	2.5119437727235296
O	0.3305213393529418	-7.609548404117646	2.0437960827235298
O	3.9278396723529423	-6.521080604117646	0.9943928246235297
O	0.5293414103529418	-8.245959934117646	4.24081548272353
O	1.7708419323529418	2.1067525158823535	4.222751632723529
O	3.833478732352942	-7.859327304117647	1.2385895837235297
O	0.2735291893529418	-8.615024794117646	2.9621435127235296
O	2.532489432352942	3.1037249858823537	3.9992737827235296
O	3.592269932352942	3.3893038258823536	4.925655782723529
O	2.413322422352942	4.404917615882354	3.4598894027235296
O	-0.6698900136470582	-2.9113424041176463	4.23263743272353
O	1.1384641623529417	-3.9863134741176465	3.3712029527235297
O	-1.2831691276470583	-3.2241310241176464	5.305582642723529
O	-3.631377957647058	-1.6545354541176465	3.9323854827235296
O	-1.5933370876470583	-2.3146584941176465	3.3339201927235296
O	-4.401698357647058	-1.6381816741176465	4.90950497272353
O	-4.076297037647058	-2.9346340741176467	3.1997003227235297
O	-11.822835247647058	-1.9499127041176465	4.78711036272353
O	-9.829396827647058	0.35962430788235344	2.5399261027235296
O	-10.184201047647058	3.5052221758823534	0.43048961172352973
O	-10.598202147647058	3.7943072858823537	-3.29144675727647
O	-8.554739407647059	0.37011380488235346	-5.2648787372764705
O	-5.6469853676470585	-1.8661552541176465	-4.20912303727647
O	-5.737155297647059	-5.5719975641176465	-4.95260250727647
O	-4.418561237647059	-6.316523524117647	-1.5072753972764703
O	-7.525420187647058	-4.974826304117647	0.15135220272352967
O	-1.1673152376470581	-9.849958114117648	-8.965001337276469
O	-0.2606517196470582	-12.533960924117647	-6.4382803372764705
O	-2.286325197647058	-12.467708324117647	-3.2255992572764707
O	0.021636191352941786	-11.907834224117646	-0.35409891727647036
O	2.505570522352942	-9.817773334117646	-2.2568501672764705
O	3.023452382352942	-6.208478714117646	-3.41651264727647
O	3.445809242352942	-6.1039819341176464	-7.26693241727647
O	0.48021297435294175	-5.091042804117647	-9.49081812727647
O	-1.4405475376470582	-3.8270897341176466	-6.41195309727647
O	-4.611024777647058	-2.6114747941176466	-8.21997609727647
O	1.7238526723529417	4.660987725882354	13.23218347272353
O	0.0864252913529418	2.2751992958823535	15.81356227272353
O	11.66557935235294	-4.921319814117647	2.04834433272353
O	10.043765152352941	-5.777974184117646	-1.3218527672764702
O	11.347035052352942	-4.760911734117647	-4.563887617276471
O	10.147224752352942	-1.4300835251176465	-5.86986934727647
O	6.700216682352941	10.929366975882353	0.8586469368235297
O	2.999485562352942	9.456149685882353	5.05470051272353
O	-0.10140516824705821	7.468688205882353	4.18456761272353
O	-0.8346110586470582	4.459407215882354	6.33494898272353
O	-2.551062957647058	1.2293974558823535	6.367778282723529
O	-6.107775597647058	2.4964670158823536	6.7013245827235295
O	-5.470296757647058	4.502035935882354	3.55964086272353
O	-4.707942327647059	1.3462483158823535	1.4540005237235296
O	-6.439960237647059	1.6028638458823536	-1.9099258772764705
O	-7.012285987647059	5.393339465882354	-1.7812389372764703
O	-6.029369937647059	8.029979865882353	-4.40177105727647
O	-2.920650267647058	3.9754652758823537	-5.27911083727647
O	-1.9418455276470583	3.8319361858823533	-1.6604085972764704
O	-0.19108601404705822	0.4075694078823535	-1.61202939727647
O	2.453709102352942	-0.33388360711764653	1.0226760307235296
O	5.261347072352941	0.6739704358823535	3.27310063272353
O	7.642764672352942	-0.15064862311764654	6.14221088272353
O	5.309731352352942	1.0023340958823534	8.96794628272353
O	4.011105272352942	4.428581035882354	8.307473852723529
O	6.013919442352941	7.671041495882353	8.52994704272353
O	11.307764152352942	4.991425695882354	4.471511642723529
O	8.822046492352941	6.286536395882354	1.9549611127235298
O	5.277237172352941	5.212284875882354	1.1514418017235297
O	4.968058092352941	2.9865191258823534	-1.8355891072764705
O	2.221005662352942	3.5712642558823533	-4.44921305727647
O	0.9126987623529417	1.5552128758823534	-7.38360049727647
