12

O	12.088348497656948	39.944078576004124	32.02308922467651
O	12.672673470959012	38.054539142429746	27.356144530928276
O	13.170341807908734	38.395868588851	28.713011693308374
O	13.53672925766858	37.043999828607	26.760382379641232
O	14.341198201288282	37.99179603343867	29.256560128732392
O	12.349892138621307	38.906339597685694	29.624961540262316
O	11.41530062963825	38.05254452487949	27.19018553937987
O	14.310993256649688	37.33462305110393	30.44828654031292
O	12.871482298238561	39.09875186658819	30.850365316289924
O	14.408828112112845	36.49563079136013	27.807104368797617
O	13.64323316417651	38.09401264834963	31.368942898290825
O	15.271688273794398	37.54815138930124	28.301746194165126
