21

O	5.691202783724603	6.7834082792711605	17.805509724213675
O	6.43713002504526	6.913673779913138	18.830811341392984
O	6.844967556736169	6.026301037623585	19.893447734104825
O	5.400330037707178	5.75597098257097	19.99880870475856
O	4.93714164451983	7.235233383451414	19.945279737781718
O	4.6618174723173835	7.314038276390019	18.73272755051139
O	7.311216384983176	5.265079647650721	18.90969889237451
O	5.36218972415806	7.93133382169479	16.371486723347864
O	6.1077416042454065	9.294787868131067	17.358849467277626
O	6.372112574850716	9.118178857448939	18.736238085070404
O	7.820989220915077	9.064905253746746	18.88024456899388
O	8.219240444880915	9.678473345554067	17.587666471705198
O	8.04630727386709	8.77172622682302	16.498085270596324
O	8.367760452411067	7.3250465103554685	16.642580099375056
O	9.160548887929302	7.498263251500738	17.881579749016478
O	8.737049407820123	8.084232026599668	19.049596608616344
O	6.345613078579181	10.099593797217839	19.500206151608154
O	5.79576121325043	7.618969016327449	20.982648098629387
O	5.366802541037586	6.894617025843647	22.201150720984955
O	7.052939372805918	7.588946422696921	21.40391558221219
O	5.475936849824707	8.765874937025007	21.73173392569244
