15

O	5.922959583451145	6.04561578559797	15.271559095972712
O	5.362674292920255	6.785983761914014	14.460196315870746
O	5.595329483006042	7.949100045383533	21.334534961936015
O	5.172184801683213	4.9980959945714325	15.685313288139714
O	6.808351430819623	7.3255569604681385	22.060996254688572
O	6.444320533081156	7.641083719101601	23.450320449824417
O	6.454386286271703	5.847771270235129	21.843106220109224
O	6.9039233908976785	6.738266612449501	16.080360497135857
O	7.517951485081364	7.9540910308778265	15.5238646667979
O	6.283807285581329	7.06917878510079	17.359975507665276
O	5.855229933550032	8.316765109895954	17.72475014796222
O	6.180759118418721	8.666665356976209	19.000076650970424
O	6.076293671171053	7.709226462579039	19.965372331131064
O	6.524674346847154	6.48667458096978	19.559078102324644
O	6.063330806255921	6.1130805428522725	18.29998826975118
