15

O	5.7046995719567555	5.83409821479399	15.045414551203237
O	5.152819173460848	4.823143329007436	15.47108879918791
O	4.73964185671054	8.064403310616658	20.831716348012183
O	4.932882083499361	6.65657383652704	14.287695676284526
O	4.553022521284467	6.6875893154585295	21.227861196669483
O	5.410942994284786	5.8418477721318185	20.359904786685192
O	3.2673901496502533	6.207187943573849	20.505318003904847
O	6.7089658240591845	6.507779582993232	15.846200867994657
O	7.0770626364437454	7.843382089449371	15.316312114423447
O	6.161596049516805	6.706265231682432	17.19237185202338
O	4.8201967589933075	6.948862341168922	17.30917110126087
O	4.339995198889785	7.588103754674386	18.39891120322189
O	5.15274774384927	8.06113266562683	19.387220115421115
O	6.4771624426453975	7.611346920550359	19.25930648395189
O	6.9032618963980354	7.602517982364406	17.97417198777019
