20

O	6.455314682220754	5.260130203655103	15.060842237567666
O	6.898987275013461	5.931604437209036	14.072820000228472
O	6.717678668494818	5.8367555776044355	16.38957049459862
O	6.435739312065277	3.883642461212267	14.791184333133668
O	5.792645900022149	5.408342173643847	17.45342125264817
O	5.729178700426511	6.207260491750111	18.704703986777567
O	5.555590256522951	5.543020340966967	20.015760865775402
O	4.626617504053947	6.244973948835926	21.016108692202526
O	5.192979457331905	6.697237421629037	22.26491320726179
O	4.830364993521356	5.722793861044838	23.33302494392786
O	3.9701400862057747	6.320201496419284	24.323989435027904
O	2.9038138245687994	5.649279306100438	24.680447577146975
O	2.5371467266134635	4.415271408283147	23.997033409708465
O	3.563811187437074	4.109257764584674	22.96924216787835
O	3.0755761673706297	3.9155031104428195	21.608738161500632
O	2.48761816050751	5.286290026885179	21.190967715462715
O	1.5416613760295186	5.748385818346234	22.233817169068608
O	0.45558656119123775	4.740478455087068	22.09861758024535
O	0.8437195760450376	3.821619777676467	21.004388066570463
O	1.1759604706562978	4.301720714642015	19.66715089318913
