80

O	1.4314662440985082	-0.5804101682537306	-4.253090725686567
O	0.5792996040985081	-1.5161501612537307	-3.6417081356865673
O	-0.28492957590149204	-1.1373881012537306	-2.6377161056865672
O	-2.992900855901492	-0.9955229712537306	3.573560004313433
O	-1.5426930519014919	-1.6906979012537307	-2.425964885686567
O	-1.5233837490014919	-2.5824491412537305	3.0812259143134324
O	-2.146740230901492	-1.6363947012537305	-1.1997885956865675
O	-0.07501972590149197	-0.05414570925373058	-1.7909112056865675
O	-0.692601142901492	0.045538597746269394	-0.5760270406865673
O	-1.358316756401492	-1.1267751512537307	-0.16305581168656733
O	-2.223367115901492	-0.7701935612537307	1.0175301743134326
O	-1.3302451909014918	-0.36729406625373057	2.1216559243134325
O	-1.784855386901492	-1.2429873012537307	3.2579412743134326
O	-6.979797605901492	-4.989515931253731	9.238020254313431
O	-3.177485055901492	-5.005015561253731	8.567856764313433
O	-1.247796587901492	-6.076141581253731	11.705462704313431
O	2.3911604540985083	-5.280462541253731	10.642580004313432
O	4.487555594098508	-4.223039521253731	7.606752584313433
O	8.09374617409851	-2.8894150912537304	7.374468514313433
O	10.202182564098509	-2.1913788512537304	4.199570724313433
O	7.179707004098508	-2.5211943512537305	1.8121082943134326
O	9.176668064098509	-4.682579911253731	-0.6890305596865672
O	11.84037186409851	-1.8821307212537308	-0.7521476176865672
O	9.13819126409851	0.8126059787462694	-1.2713020756865674
O	7.628596324098507	-1.2302282012537307	-4.178008785686567
O	11.152893064098508	-1.5891235912537307	-5.750403435686567
O	11.577612664098508	2.2348710087462695	-5.532052905686567
O	8.098829824098509	2.7548913787462697	-7.137913285686567
O	3.610114544098508	-8.34574682125373	-8.277257405686568
O	5.790923394098508	-7.500713921253731	-5.190313785686567
O	5.801603044098508	-11.17475575125373	-4.013339025686567
O	1.9684660640985079	-11.56547295125373	-4.086970575686567
O	1.285260814098508	-7.98092282125373	-2.6851682756865674
O	3.799636094098508	-8.53611711125373	0.18822944031343267
O	2.1885409540985084	-11.94920385125373	1.0574722443134326
O	-1.3386156769014919	-10.38264965125373	1.0796320343134327
O	-2.932333175901492	-8.93593146125373	4.274092344313433
O	-5.400169225901492	-6.209630231253731	3.0293175343134324
O	-8.267808775901491	-4.620755511253731	4.975404154313433
O	-9.302657135901491	-0.9586017112537306	4.601489654313433
O	-13.987667935901491	6.547897688746269	0.13780510631343268
O	-11.078588975901491	4.17741320874627	0.8844830883134327
O	-11.967721535901491	0.6515646857462694	-0.31217294168656734
O	-9.676264745901491	-2.38242000125373	0.20669818231343268
O	-10.167475925901492	-6.147270621253731	-0.24503306468656733
O	-7.267914695901492	-8.64443774125373	-0.44959248368656735
O	-3.8238908359014916	-9.75617065125373	-4.303769955686567
O	-6.524299155901492	-7.342914701253731	-5.627620005686567
O	-9.812076795901492	-5.6456366612537305	-4.625554335686567
O	-9.277178515901491	-1.8685053212537308	-5.194538345686567
O	-11.21845145590149	1.3457039087462694	-4.333044865686567
O	-10.81998415590149	5.146350608746269	-4.5773982756865665
O	-5.4810182659014925	3.1203646687462694	-11.054622995686568
O	-3.240714295901492	1.8691582887462694	-8.185953735686567
O	-3.210641895901492	-1.7791268212537308	-6.924067495686567
O	0.06949146409850804	-2.5488095412537306	-8.836417965686568
O	-1.5379115865014918	-0.9845847912537307	-12.014013395686568
O	-0.05944920590149194	2.5532713887462695	-12.378264695686568
O	-4.510052655901492	12.36016434874627	5.344859204313433
O	-1.616139278901492	13.28755984874627	2.9832903743134325
O	-2.0230672929014917	11.48089144874627	-0.3859652186865673
O	0.3746268440985081	12.50817394874627	-3.1927633356865672
O	0.472740064098508	10.49445534874627	-6.487190155686567
O	7.845765444098508	10.68354724874627	-10.519480495686567
O	6.151271594098508	11.21953034874627	-7.126957165686567
O	5.238194904098508	9.26860885874627	-3.9718626456865676
O	3.5304235140985076	10.61561704874627	-0.8028059826865672
O	1.465574844098508	8.33670786874627	1.4972606243134325
O	0.5583651340985081	9.73436655874627	4.958495354313433
O	-2.267192511901492	8.07775283874627	6.942376484313433
O	-0.49224275090149194	4.035628238746269	10.718100004313433
O	0.15725858409850813	4.380209368746269	6.933204794313433
O	3.6041443940985074	5.831192528746269	5.957200414313433
O	4.428999594098507	5.297858798746269	2.240986344313433
O	7.453155164098507	7.382011238746269	1.1226235243134326
O	7.629420944098508	1.8594349887462693	4.480506514313433
O	5.367914774098508	1.7448875287462693	7.576140604313433
O	2.1206650940985083	-0.29698704625373057	7.304161314313433
O	0.281270054098508	-0.4252682992537306	10.668712704313432
O	-3.454734465901492	-1.2698313712537306	10.803635404313432
