21

O	1.6748784288116685	5.358043703500311	22.19261560700102
O	5.168380619135525	6.566843127264857	18.42466283437063
O	4.122016831443307	6.665095039488316	19.35795221663472
O	4.282403548584369	7.1354243484298125	20.678882377504124
O	6.468785829630022	7.402696210320934	20.434428512638842
O	6.377630194892386	7.039298734368213	19.074511238580833
O	5.503458662175282	7.346212192848688	21.31932086431933
O	5.094316969469737	5.945671223442396	17.135816833958952
O	3.2630505464353883	7.27084603606705	21.616560650867974
O	2.89708428540559	5.914570817810661	19.42820487084776
O	5.409090559318233	4.837453353637175	16.512116773364323
O	5.58377712176335	7.414774281028741	22.726246467088014
O	3.2239123117189274	6.40955965414566	22.748718153614192
O	5.582647816382745	6.5159900812178435	15.88245227465172
O	4.496115570395091	6.590591834652543	23.259393379717
O	7.041665415695926	7.990219193442159	18.07916086950913
O	1.5561469707167435	6.1225843150833335	19.305549553192957
O	2.9165484533960813	4.550066449664571	19.36067030337926
O	1.9551048247883434	3.6120401953118257	19.218913774919013
O	0.4635006891171285	5.354202531450114	19.140445320966492
O	0.7336039878439875	4.054918377743675	18.816301153391333
