99

O	4.972885344709524	-1.0000303267904762	-0.1406561295238098
O	1.5429572647095235	-2.939709706790476	-1.7140459375238097
O	-2.915806125290476	1.8556863522095237	-1.5871615395238097
O	2.875649964709524	2.461640043209524	-2.8392097935238096
O	2.178960884709524	-2.679485576790476	-0.6849235935238098
O	-1.2048348052904765	2.940349553209524	-1.0283259530238098
O	-2.300977145290476	-1.669000036790476	-4.01756748352381
O	-0.8997628842904764	1.4571268712095238	0.9495759464761901
O	3.993667664709524	1.757852417209524	-2.53722311352381
O	2.002010184709524	1.8486335942095238	-3.68585364352381
O	-2.176829805290476	-2.497432536790476	-2.8942581035238097
O	-1.3097043922904763	-0.743061976790476	-4.328844523523809
O	-1.1541685332904763	-2.149097126790476	1.45913994647619
O	-1.1766107462904762	-2.837336116790476	0.2925143164761903
O	2.5813109447095237	1.5265434712095238	0.4416697564761902
O	3.8157470047095234	0.4324199822095238	-2.30257717352381
O	1.9297649047095238	0.4936344032095239	-3.6456191935238094
O	-0.8319595902904764	-2.860222306790476	-2.8597172635238097
O	-0.39427198139047637	-0.6947510467904761	-3.2429384235238095
O	0.09097493470952367	-1.652260346790476	1.7295134364761904
O	0.046302159709523616	-3.4862239267904758	0.04554954647619014
O	2.6915755947095237	0.2277941732095239	0.9528916564761902
O	1.3470854347095238	1.912972796209524	-0.10666194952380981
O	0.7173681047095236	-0.03768783679047605	-0.18451039952380976
O	4.351240154709524	-1.9397078567904762	-1.0140101641238097
O	-1.9947273552904763	0.8827558982095238	0.23080557647619027
O	2.7137223847095235	-0.1232499067904762	-2.8001655435238098
O	0.12071217570952364	-1.915104666790476	-3.1182526435238094
O	1.7595055047095238	-0.606710116790476	0.6078930264761901
O	0.2882713187095236	1.139118047609524	0.19380860647619014
O	1.3773347047095235	-1.9404154167904761	1.2206756364761902
O	1.3935830247095238	-2.973114916790476	0.39112771647619016
O	2.9447174447095237	-1.746258916790476	-1.1314017683238098
O	1.9031644947095239	-0.985636976790476	-1.8294537165238096
O	1.4905170547095237	-2.042159946790476	-2.6714617335238096
O	-1.8126599052904764	1.658462997209524	-1.0565341079238098
O	-1.8100434152904765	6.278549783209524	-10.31390898352381
O	-1.2506355362904764	7.776604063209524	-6.79276553352381
O	-1.0037083172904764	10.695460933209525	0.5005022464761901
O	-0.43385096599047634	9.969798253209524	7.36179048647619
O	1.0255370047095238	6.930631283209523	5.59069725647619
O	4.297030574709524	7.070490063209524	7.61178947647619
O	2.121647864709524	6.986895873209523	10.78261567647619
O	0.08872030370952366	4.007016843209524	9.43358937647619
O	3.334080544709524	2.132390213209524	8.72293172647619
O	1.7095654847095236	-1.6250354467904762	11.56225667647619
O	11.284419164709524	0.45579744720952386	4.61969623647619
O	9.008193334709524	3.420828903209524	5.57637561647619
O	11.379928164709524	6.000398833209523	3.97525263647619
O	11.567111664709524	4.237237633209524	0.5624995264761903
O	7.776506374709523	3.306022733209524	0.5515700964761903
O	6.825798744709524	6.962668303209524	1.4572162264761903
O	9.063998504709524	8.318757403209524	-1.4015119215238099
O	7.5163020747095235	5.795149103209523	-3.94416859352381
O	4.483023804709524	6.690441263209523	-6.18415972352381
O	2.896536774709524	3.2463854532095238	-7.10080452352381
O	0.16430245970952362	2.266916503209524	-9.33812861352381
O	-2.635727395290476	-0.17473168679047602	-9.06787507352381
O	-3.3908529252904764	-2.4033641767904763	-12.08826372352381
O	-6.537608125290476	-9.273544576790476	-9.18148719352381
O	-4.849988975290477	-6.174138556790476	-7.67542271352381
O	-1.2965277022904762	-5.802622876790476	-9.03845302352381
O	1.0154029147095236	-2.871007206790476	-8.211121493523809
O	4.326323424709524	-1.6902437467904763	-9.56010762352381
O	6.654056234709524	0.7595739022095238	-7.82414577352381
O	10.333462264709524	1.703856890209524	-7.25849966352381
O	9.870114564709525	0.2550769352095239	-3.7079101435238098
O	8.481896594709523	-3.178342406790476	-4.74395107352381
O	6.3804636947095235	-4.882311686790477	-7.39146296352381
O	3.6654489247095237	-6.898450996790476	-5.66388858352381
O	0.4273126447095237	-8.746598436790476	-6.66974096352381
O	-2.5759668852904762	-10.440768376790476	-4.98247876352381
O	2.944510694709524	-11.468769376790476	1.54618710647619
O	2.5467462947095236	-7.768708116790476	1.97527702647619
O	4.828828134709524	-5.2212540467904756	0.31425527647619034
O	6.519442344709524	-4.3793613667904765	3.6118376364761904
O	7.029750044709524	-8.209214336790476	3.9965307064761904
O	4.469549674709524	-9.454835276790476	6.59347594647619
O	2.913496434709524	-12.900403176790476	6.12410374647619
O	-13.753101035290475	-3.3053020067904764	-1.2252527515238099
O	-9.690723465290477	-5.806857376790477	2.8746043364761906
O	-8.849325235290475	-7.111099116790475	6.34967236647619
O	-5.435856975290476	-8.595554686790475	7.20811032647619
O	-4.629513675290476	-10.784732176790476	10.26227017647619
O	-1.1948382452904762	-11.718915076790475	11.78773517647619
O	-5.620931875290476	-3.7627757567904765	9.93545087647619
O	-8.034538185290476	-1.2269386767904762	4.16821163647619
O	-11.143939135290477	0.1770207932095239	2.47500113647619
O	-11.145989635290476	1.028253699009524	-1.2188048655238097
O	-14.018805635290477	3.026830833209524	-2.7232822135238095
O	-9.815674475290477	6.591102523209523	-2.4063854935238096
O	-7.955930565290476	4.007973613209524	-0.2604553875238098
O	-8.276364325290476	4.186341953209524	3.48375075647619
O	-5.762413625290476	2.1773478332095237	5.50495421647619
O	-4.077352685290476	7.031711683209524	6.35760536647619
O	-5.822874615290476	8.201433963209524	3.16084826647619
O	-4.261877435290477	7.560994653209525	-0.16545217952380975
O	-6.083875855290477	9.042703583209525	-3.1755956835238095
O	-5.590670805290476	7.577217003209524	-6.72318010352381
