82

O	-0.5260305092096775	1.686317994951613	-3.7580336392258067
O	-1.3314345022096776	2.501255604951613	-3.3046423492258064
O	-0.4787751782096775	0.3457267049516128	-3.1615961192258064
O	-0.1433320242096775	1.806211844951613	-5.057910239225807
O	0.6899155627903224	0.37874724695161277	-2.2264506092258065
O	0.20454835379032243	-0.05575204604838724	-0.8770714782258064
O	0.36496017279032245	1.1553886469516128	0.03763985177419349
O	1.6553868627903223	0.8810744449516128	0.8091262507741934
O	1.5706964127903222	-0.6061908250483873	1.1651338707741936
O	2.8143257527903223	-0.8170334750483873	1.9499675807741936
O	2.7126845827903225	-1.1052755750483874	3.3629795207741937
O	1.6501638927903226	-1.1401071350483871	4.130689540774193
O	0.36125507279032254	-1.1618069750483873	3.4504757807741937
O	-0.2958498442096775	0.1887720949516128	3.1874497507741935
O	0.0833108517903225	1.0207840719516128	4.420818200774193
O	1.5351741927903224	1.185647027951613	4.244305590774193
O	2.0999064827903227	2.3561463149516126	3.6014753007741933
O	1.1333251227903225	3.493008594951613	3.7163610307741934
O	0.5957470027903224	3.697988104951613	2.3363665907741935
O	-0.8578386172096776	3.406754454951613	2.3604644307741935
O	-2.3109211672096777	9.181709864951612	-7.304504499225807
O	-4.553806727209677	6.858172734951612	-5.214738499225807
O	-8.257534927209678	7.441038834951613	-6.019452759225807
O	-9.900388457209678	4.439347214951613	-4.215446119225807
O	-9.097324847209677	1.591295814951613	-1.7792744392258064
O	-11.023159387209677	-1.5901445550483873	-0.8415368702258066
O	-10.241996297209678	-4.199766245048387	1.9200688107741937
O	-6.672530907209677	-2.846800815048387	2.5428547507741937
O	-7.117689067209677	-3.035705515048387	6.399881390774193
O	-8.087311417209676	-6.744660785048388	5.959107730774193
O	-5.050099707209678	-7.382821285048387	3.6714948407741934
O	-2.7280450172096775	-5.768021845048388	6.277992490774193
O	-4.274885377209678	-7.946412675048387	9.063226380774195
O	-3.5773427172096777	-11.064876165048387	6.906473910774193
O	0.059921960790322415	-9.894692865048388	6.293754300774193
O	0.8459671827903223	-5.628389455048388	10.242897470774194
O	0.6947365627903224	0.9318461039516128	11.464057870774194
O	-2.5863469272096777	-0.1408060110483872	9.713986070774194
O	-4.389114067209677	3.010906644951613	10.905892870774194
O	-1.7757908272096776	5.471911954951612	9.571379770774193
O	-1.1997682492096775	3.499511804951613	6.305049860774193
O	-5.0077714172096774	3.2779651849516127	5.646585550774193
O	-5.435356777209678	7.076304024951613	6.283575360774193
O	-2.5128118372096777	7.863550714951613	3.8756876107741935
O	-3.0724517172096775	8.563237814951613	0.13631275477419347
O	0.27338402279032237	7.612440674951612	-1.5634502792258065
O	1.4653846327903226	8.539802664951612	-5.061010779225807
O	3.5022157027903225	6.201895154951613	-7.292813929225807
O	11.887319012790323	1.9052972449516128	-10.349508129225805
O	8.669991342790322	2.2634320149516127	-8.316739069225806
O	9.039804662790322	5.1540534649516125	-5.834471319225807
O	6.199830072790323	6.305436974951612	-3.5243057092258065
O	5.754210142790322	9.388978484951613	-1.2937136492258066
O	3.1305970627903226	9.620499264951613	1.4914118107741936
O	2.4013724327903225	10.996567534951613	4.9955098607741935
O	2.9111575227903224	7.4116808149516125	6.313827200774193
O	6.351358022790323	6.727975304951612	4.732284310774193
O	8.502865492790322	7.599330514951612	1.6817067307741935
O	9.585452812790322	4.212192114951613	0.18119556277419346
O	11.319352312790322	3.081735454951613	-3.0593993092258063
O	12.194423612790322	-3.370891395048387	3.1267036807741935
O	8.410542852790323	-2.951207585048387	2.7610534607741934
O	6.504043742790323	0.18268293395161278	3.9280951607741934
O	5.251844462790323	-1.6387283350483872	7.129241020774193
O	8.889687442790322	-2.785143675048387	7.785663350774192
O	9.172805392790323	-6.4772864850483876	6.702192390774193
O	3.5721437127903224	-6.605826105048387	-13.294789629225805
O	5.308345442790323	-8.921740075048387	-7.694310799225807
O	5.7699667727903226	-11.875506065048388	-5.282087809225807
O	7.259138292790322	-11.297935965048387	-1.7573945292258064
O	1.9163132127903224	-12.393147565048388	-0.8490925822258064
O	0.7454238227903225	-7.964866155048387	-5.756644589225807
O	-0.27472977620967753	-4.1671855650483876	-11.046587829225807
O	-5.187047647209678	-1.0734060150483873	-10.732490129225805
O	-3.0742064172096777	-2.725662855048387	-7.965469929225807
O	-4.3806137572096775	-6.086291725048388	-6.601171049225807
O	-2.6758411472096775	-7.110171025048388	-3.3067676092258065
O	-7.386030737209677	-5.733558955048387	-1.6334835092258064
O	-7.887293337209678	-3.5289259650483875	-4.724727909225807
O	-6.086476927209677	-0.15193162404838723	-4.776718639225807
O	-7.010820937209678	1.9175187449516127	-7.859749839225807
O	-4.754091197209678	4.774193274951612	-9.057312599225806
