86

O	-2.172604438433333	-2.9609672069500004	-4.157499577148333
O	-1.5666363474333331	-3.9661836869500005	-1.4899098301483336
O	-2.6133910684333332	-4.7975157069500005	-1.2909786541483335
O	-3.721075158433333	-4.044689516950001	-1.2123054571483334
O	-3.338368658433333	-2.8507297669500002	-0.6854423531483335
O	-2.1801958484333332	-2.0538816569500007	-0.8303453221483335
O	-1.1501491179333332	-2.9227994569500004	-0.6528594901483334
O	0.08787659156666683	-2.2448585069500004	-0.7752651951483334
O	0.6914652215666668	-1.8974653869500004	-4.713668357148333
O	-0.17766971343333327	-2.8468270269500007	-4.3839481871483335
O	-0.0006142584333332923	-3.2551204569500003	-3.0433293171483333
O	1.9610696415666666	-1.7237812869500004	-3.968398307148333
O	1.617364681566667	-1.7834275469500005	-2.6346873171483334
O	0.5908732915666668	-2.4580882669500004	-2.0703613971483334
O	0.3307363515666668	-1.1277502319500003	0.017356732851666612
O	1.5404876515666666	-0.5759035979500005	-0.5210958391483335
O	1.9331557515666669	-0.8189429479500004	-1.8880046311483334
O	2.813998181566667	-0.6896855979500005	0.11121334285166662
O	-0.24390176043333323	-0.6244008129500005	1.2316885628516665
O	0.1488926615666668	-0.46992347995000044	2.4699818228516666
O	-1.3217213434333333	0.20161911204999955	1.7415735828516665
O	4.024640181566667	-0.29823985085000043	-0.5281911791483335
O	3.042587061566667	-1.8400836269500005	1.0279186728516667
O	-4.683178498433334	-2.1416104969500003	-0.6329289541483334
O	-4.611679448433334	-1.6900126269500004	-2.0260743401483334
O	-4.261329258433333	-1.1551839749500004	0.32008675285166666
O	-7.805799978433333	4.0329513730499995	5.1531289728516665
O	-9.476793098433333	7.557890383049999	5.325428142851667
O	-4.460215428433333	8.94649169305	0.18128497285166656
O	-2.0944315074333333	11.326773523049999	-1.6127181401483335
O	0.4208454615666668	10.608044023049999	-4.451938787148333
O	0.15850209156666684	6.7658675730499995	-4.073288487148333
O	-0.10020503843333328	6.36181581305	-7.961088597148334
O	3.1898868815666668	8.32957646305	-8.246679477148334
O	4.871201551566667	6.24352025305	-5.474490797148333
O	3.7939940415666666	2.9783524930499996	-7.278344307148333
O	5.232491751566666	4.37329679305	-10.638382447148334
O	8.560377601566666	5.04257074305	-8.824231357148333
O	8.534747661566666	1.4825261530499996	-7.287723147148333
O	4.469988851566667	-1.3454292569500004	-10.180286277148333
O	-1.8588548284333333	-3.2651756569500003	-10.508463857148334
O	-1.7588895124333332	0.4913056820499996	-9.712508637148334
O	-5.406341458433333	1.0102903130499996	-10.866720917148335
O	-6.857674308433333	-1.7373484569500004	-8.620153537148333
O	-4.586701088433333	-0.9964681979500004	-5.522012577148333
O	-5.4694625384333335	2.7747931930499994	-5.817351097148333
O	-9.261014918433334	2.0218949130499997	-6.006913597148333
O	-8.922393048433333	-0.3432951149500005	-2.950958637148333
O	-9.303151578433333	0.9428607230499995	0.6261979828516666
O	-7.419788948433332	-1.5065617569500005	2.8245750028516667
O	-7.716321778433333	-2.0166485269500005	6.520657462851667
O	-4.785266888433333	-2.7366597769500003	8.826219672851666
O	1.9058636615666669	-8.62403021695	12.896963622851667
O	0.5160301115666668	-6.20901216695	10.248456322851666
O	-2.259104418433333	-7.89897683695	8.272253912851665
O	-4.359681188433333	-6.184135026950001	5.7206273528516665
O	-7.5293708684333325	-7.12380652695	3.8708415128516664
O	-8.733270128433333	-5.4410591869500005	0.7129183928516665
O	-10.583289688433334	-5.990904506950001	-2.5966204171483334
O	-7.104038968433333	-5.81707169695	-4.246858877148333
O	-5.3849093284333325	-8.557499086950001	-2.1395119071483335
O	-5.296837068433334	-9.97831651695	1.3891312028516667
O	-1.6344659604333334	-9.72881936695	2.5885273228516663
O	0.17766075156666683	-10.23849798695	5.928269822851667
O	3.6400987315666664	-9.83590211695	7.460812112851667
O	6.174398381566666	-10.788625176950001	-0.7309005821483334
O	4.566596031566666	-7.329537316950001	-1.1306816512483335
O	0.9684936015666668	-6.78000272695	-2.2513191671483335
O	2.323520481566667	-5.752172416950001	-5.735798167148333
O	4.320882531566667	-8.964987616950001	-5.839037987148333
O	8.008689551566667	-7.996367916950001	-5.2217387671483335
O	7.856872831566667	2.1795732730499995	13.017878622851667
O	10.246641611566666	-0.15131065195000046	7.646105452851667
O	12.876863511566667	-0.4551489149500004	4.867450792851667
O	12.584928411566667	-2.8446980369500006	1.8770167328516665
O	12.005027111566667	2.2022520230499993	-0.3114017821483335
O	7.874806901566666	3.4389466530499995	4.909737792851667
O	4.264647731566667	4.649455993049999	10.371312822851666
O	-0.18031075443333322	8.240575343049999	9.347666722851667
O	1.8539268015666668	6.05581450305	6.919589662851667
O	4.586026231566667	7.908366013049999	4.8573804428516665
O	5.8243969315666675	5.708506433049999	1.8543373728516668
O	2.993437821566667	9.359794973049999	-0.6076652911483335
O	0.9645996615666665	9.94190332305	2.594196972851667
O	-1.6799072914333333	7.27621648305	3.482420672851667
O	-3.737953678433333	8.386241643049999	6.554401422851667
