79

O	-1.4878740477538464	-0.16950300891384595	4.221332568918462
O	-1.3988303101538464	-2.814686426913846	3.0191240389184615
O	-1.6695973687538466	-0.37196086791384597	2.7452701789184615
O	-2.0409344897538464	2.359607733086154	-3.7164411010815384
O	-1.7807495257538464	0.6954348370861541	1.8413340589184615
O	-0.4188718937538465	0.969614976086154	-4.086973481081538
O	-1.2645436842538464	-1.6499696069138459	2.3147293789184618
O	-1.8756128527538465	-3.9960375969138457	2.4077257989184617
O	-1.0301413977538465	-1.6719718369138459	0.9861756429184617
O	-0.5890193137538464	-0.542400356913846	0.2898419919184617
O	-1.3715861615538465	0.581940754486154	0.5274686489184617
O	-1.2739238481538464	1.578539743086154	-0.5642126980815383
O	-1.5857622387538464	1.000653044086154	-1.8924596110815384
O	-1.1683988667538465	1.651700263086154	-3.1167946110815383
O	-0.8866810697538465	-0.10918275391384602	-11.126725311081538
O	1.8444006452461534	-0.5122893869138461	-13.806601211081539
O	5.8767901452461535	-2.069711216913846	-7.957711591081537
O	9.302678465246153	-2.061791266913846	-6.217053641081538
O	10.200409165246153	-3.223226586913846	-2.6298591910815383
O	6.499691055246154	-3.460789726913846	-1.5333528210815381
O	7.072397415246153	-6.874953276913846	0.1951910652184617
O	9.939071265246154	-5.221695956913846	2.1906365689184617
O	7.716301915246154	-2.214538586913846	3.1036507889184617
O	4.933969745246153	-4.608265176913846	4.297522218918462
O	7.520099745246153	-6.549321896913846	6.425453778918462
O	8.611636265246153	-3.221930196913846	8.034056968918462
O	4.914268945246153	-2.293588416913846	8.706862338918462
O	2.024746595246153	-7.320850156913846	7.855826828918462
O	-1.4232882987538464	-11.140881366913845	3.6288323289184614
O	1.8451322552461533	-9.938570366913847	1.9342101089184616
O	1.6843081452461537	-12.776064966913847	-0.6796214650815383
O	-1.9096345177538465	-11.977587166913846	-1.811725131081538
O	-1.4326538497538466	-8.071574076913848	-1.5588684610815382
O	1.8334329552461537	-8.355095136913846	-3.6645070210815383
O	0.11464148524615347	-10.562086766913847	-6.339383431081538
O	-2.8234192847538466	-8.063217256913845	-6.594005011081538
O	-2.8732103847538464	-5.185961356913846	-9.134498241081538
O	-5.177352544753846	-2.506953546913846	-7.570595701081538
O	-6.802635304753847	0.473574893486154	-9.277073831081537
O	-7.302362694753847	3.882389543086154	-7.636699041081538
O	-9.467310404753846	7.618479963086154	-2.6821571810815383
O	-11.291695034753847	4.336896213086154	-3.4393734510815386
O	-9.459766584753847	1.152332720086154	-4.582387351081538
O	-10.726421994753847	-2.182369806913846	-5.999863631081538
O	-8.562371924753846	-5.349539676913846	-6.152240761081538
O	-6.999431384753847	-8.746388696913847	-2.4005931010815384
O	-9.566490014753846	-6.270208556913846	-0.9307472710815382
O	-11.936106134753846	-3.423141326913846	-1.9254598610815385
O	-11.031580444753846	-0.452442553913846	0.36589501491846166
O	-11.958189434753846	3.281878453086154	0.5160337939184616
O	-11.045439234753847	6.4171220030861535	2.5033433889184615
O	-8.898501414753847	0.702357682086154	8.589305258918461
O	-5.985079184753847	-0.055525344913845975	6.165903408918462
O	-6.1071065247538465	-2.826594756913846	3.5119362989184615
O	-3.9296955147538464	-5.168456076913846	5.700442158918462
O	-6.326161334753847	-4.455041256913846	8.687773878918462
O	-4.512991524753846	-1.8959453669138462	10.915766388918462
O	-0.4954714367538464	14.437427433086153	-1.1397726310815384
O	1.4312090852461534	13.555664733086154	2.0781851989184617
O	-0.47181511275384647	10.818192133086153	4.025825068918461
O	0.8516694452461537	10.023224343086152	7.538788908918462
O	-0.5823153987538464	6.990587283086154	9.477761628918461
O	4.6997535352461535	3.558016523086154	15.014217088918462
O	4.510064805246153	5.777363813086154	11.900558588918463
O	4.521169485246153	5.452115213086154	8.089504438918462
O	4.353159515246153	8.310181093086154	5.514210518918462
O	2.9325023752461536	7.729289233086154	1.9753039289184615
O	3.6240815452461534	10.509607633086155	-0.6079369220815383
O	1.4929156252461537	10.601322033086156	-3.799098961081538
O	3.846528465246153	7.849008043086154	-8.342314011081537
O	3.0933377552461536	6.596953963086154	-4.769101221081538
O	6.119201365246154	6.480682973086154	-2.3681142010815384
O	5.414478105246153	4.421951563086154	0.8008291469184616
O	8.135381055246153	4.966790743086154	3.4850115789184617
O	8.701315265246153	3.396611313086154	6.955466168918462
O	8.599179575246154	1.227118108086154	-1.7708682010815382
O	7.667701375246153	2.924906523086154	-5.083420991081538
O	4.263540215246153	2.003763823086154	-6.610030991081538
O	3.794013185246153	3.649970043086154	-10.042543011081538
