90

O	-3.0483043992812497	-0.17431878420312552	5.210381740617188
O	-1.50036588098125	2.2137192567968746	0.9332637706171875
O	-1.2786820942812498	1.0681627627968744	0.08054730661718756
O	-1.31371622428125	-0.24719257820312557	0.3612683826171875
O	-2.49911020228125	-0.19187079120312556	1.1555506306171877
O	-2.5030398302812498	2.2227903967968743	1.6831737506171875
O	-2.9633497792812498	0.9273101007968745	1.8907307406171876
O	-3.54697711928125	1.0301988417968744	3.1161673906171874
O	-3.04919200928125	1.4833529467968742	4.333021870617188
O	-2.3838130542812497	2.6066980767968744	4.029250000617188
O	-2.42263221528125	3.202202846796874	2.7288313406171874
O	-2.5331295992812497	-1.2213343232031257	2.1334903106171876
O	-1.3537799582812498	-1.6806683332031258	2.7280633106171877
O	-3.50251996928125	-2.1664645232031257	2.1083762406171873
O	-3.02935286928125	-3.4747270332031257	1.9989010906171876
O	-1.4778423084812498	-2.821915683203126	3.5411194706171876
O	-1.8772413102812497	-3.8225976932031256	2.6396823306171875
O	-0.6333203922812498	-1.3328013632031257	-0.27689431998281244
O	0.4784807507187503	-2.0052388732031257	-0.22004809108281245
O	-0.3707079492812497	-1.6790356332031258	-1.6600412793828125
O	-0.7260534932812498	1.4372276567968743	-1.1053573513828123
O	-1.1807648342812498	0.8022775717968744	-2.2546995693828125
O	0.6352643307187502	1.4660501767968745	-0.6504667113828124
O	1.0441123507187504	2.3352635567968743	-1.8994353293828126
O	-0.26708948928124987	1.4940059467968743	-3.2922242493828127
O	1.0888732707187503	1.0193754277968745	-2.7224364393828124
O	4.87165493071875	-8.810613693203125	-1.2362249823828124
O	8.57250128071875	-9.872294083203125	-0.8420453363828124
O	10.14650208071875	-6.525528283203125	0.34157095861718756
O	9.19688018071875	-3.0188066532031255	1.5499574106171874
O	11.21632768071875	0.20061074979687443	1.9937450906171876
O	10.11819088071875	3.5847897267968745	3.5159994506171874
O	6.32271231071875	2.670269996796874	3.4968256206171873
O	5.91553694071875	4.079178536796874	7.091169960617188
O	7.435381750718751	7.408081316796875	5.853984390617188
O	5.12426611071875	7.398980416796875	2.7578232306171873
O	2.0029865507187505	6.745829836796875	4.9807517706171875
O	3.20882709071875	9.729423706796874	7.3219546606171875
O	3.40957978071875	12.001188016796874	4.2332402906171875
O	-0.1333749892812497	10.776394916796875	3.0907196706171876
O	-2.32554922328125	8.060203346796873	7.644375640617188
O	-3.30479625928125	2.3594507367968744	10.792753000617187
O	0.4094227307187501	2.6306773167968744	9.795539600617188
O	1.49193717071875	-0.014056593203125578	12.408030600617186
O	-1.0099279412812496	-2.6754757732031256	11.215260000617187
O	-0.5295974962812497	-1.9288004532031255	7.488881890617188
O	3.3069485807187506	-2.0610352632031255	7.8195967906171875
O	3.11080154071875	-5.478581333203125	9.639756890617187
O	0.7421992607187502	-6.8652980632031255	6.897142160617188
O	2.0415112807187503	-8.707756433203125	3.793616400617187
O	-0.6832571342812498	-8.173906783203126	1.1188945406171875
O	-1.1480988942812498	-10.048644183203125	-2.1241435993828124
O	-2.28891855328125	-8.485289373203125	-5.385717329382812
O	-9.13128713928125	-5.1079089432031255	-11.655647899382814
O	-6.53211779928125	-4.8764193932031255	-8.823429319382813
O	-7.80998656928125	-6.759606963203125	-5.779420039382812
O	-5.79493042928125	-7.301421803203125	-2.6299340193828127
O	-6.27888009928125	-9.497979213203125	0.4527267726171875
O	-4.43137191928125	-9.025637423203126	3.7602624706171874
O	-4.71552621928125	-9.146804733203124	7.564321150617188
O	-5.02034710928125	-5.300430423203125	7.517856530617188
O	-7.9064208492812496	-5.016034873203125	4.976993820617188
O	-9.43613526928125	-6.742914863203125	1.8907194606171873
O	-9.63871133928125	-3.919664173203126	-0.7686142773828124
O	-10.40230281928125	-3.817827693203126	-4.509411079382812
O	-10.55195468928125	-1.3466855332031256	-7.376050129382812
O	-11.86467141928125	4.375623206796875	-1.1202939993828125
O	-8.18514436928125	3.652521826796874	-0.33254338388281246
O	-7.06214968928125	0.9615365757968745	2.1354591006171875
O	-6.35189171928125	3.6869511867968745	4.775482550617188
O	-9.76614895928125	5.136592706796875	4.1617763306171875
O	-9.34250478928125	8.290049026796874	1.9789529006171875
O	0.73193583071875	1.5478078767968744	-14.854408899382813
O	-1.9120472982812498	5.708638426796875	-10.931695699382812
O	-2.5406671992812497	9.299126646796875	-9.711008959382813
O	-4.89147742928125	9.995905486796875	-6.7107751793828125
O	-3.10467556928125	16.91745861679687	-2.2987208993828125
O	0.2107766507187503	11.048994216796874	-4.775150649382812
O	2.08042270071875	5.3679222667968745	-7.798626559382812
O	3.9691059907187505	3.6130839867968745	-10.600780299382812
O	3.6653303007187503	-0.17706389620312557	-11.079761399382813
O	7.891430430718751	-3.2557088832031256	-8.515178549382814
O	5.4671036907187505	-0.6670942132031256	-7.069812209382812
O	6.892269180718751	2.8986059967968743	-6.507265719382812
O	4.626997290718751	5.091173526796875	-4.273424449382812
O	8.53707678071875	4.0466327867968745	-0.9800535363828125
O	9.41525568071875	0.9124639927968744	-3.0251615493828123
O	7.211589530718751	-2.224082233203126	-2.5267339893828127
O	8.54323088071875	-5.213983863203125	-4.489105139382812
O	6.208178110718751	-8.132810893203125	-5.325002029382812
