18

O	5.518613629391272	6.960346091420369	23.26512640260984
O	5.566784982355356	5.844001323101017	22.25619750933065
O	3.278230574789094	3.8119713666395216	20.56414130051857
O	3.2932617579376715	6.510113223940164	21.390941624668024
O	3.054052419527646	6.110578996385088	19.9330697992183
O	5.7681418515119445	5.3562803156024	14.527433132478356
O	6.089275204860165	5.7548402560357435	13.391043580635316
O	6.78817695164512	5.681763618295001	15.574392566103024
O	5.3525760268465845	4.048725295384845	14.579096721702758
O	6.031249256714523	6.233236602672473	16.723779998859932
O	6.854654491247354	7.303933440276683	17.381165443983583
O	7.348300347538994	6.955868034637144	18.757442419710372
O	6.196728537423795	7.038315207733305	19.70942488276933
O	6.470002974511167	7.573502746172609	21.057448800533226
O	5.318764304773897	8.478912430515965	21.395561891616953
O	4.660614321622986	8.00300564347763	22.624408222485993
O	4.1866267166540805	5.458559727169852	21.9401055593847
O	2.3535218223672754	4.800090512266385	19.946761553786473
