13

O	5.61766194748947	7.484042669738651	22.258128038712865
O	4.623686007521897	6.924223557031179	21.437030979896647
O	4.691030393242902	7.037350237110062	20.065528206319932
O	5.162424544496614	4.976613081077366	13.62624757794369
O	3.588791364993919	7.1545966490491475	19.226313288078316
O	4.7730884586596884	3.4706014983786915	15.207561771177076
O	3.657778680961503	6.7991163925267	17.907145116993
O	5.873288032157794	7.193526185146564	19.349685547560902
O	5.96265414961827	6.881490392472417	18.02230667806139
O	4.849419537481712	6.182708816129309	17.511958711436172
O	4.958436430475045	6.1827255895705155	16.009507001097923
O	6.160549216367388	5.406109587813171	15.647732370134651
O	5.627370074775261	4.401514534823821	14.66225672292821
