22

O	6.035282886094503	4.890289090699443	14.37975922789129
O	5.9055551952342995	5.729242768649632	13.486058313789183
O	5.959272815971563	5.055052216389026	15.820088783798106
O	5.841924218837552	3.5870604329251705	14.006183136829096
O	6.040914668557284	6.418552325888336	16.347572613415274
O	4.874438413905952	6.587146796603612	17.32691502709518
O	5.167484689746854	6.098211699788445	18.691321310454793
O	4.639683901921438	6.713017372185069	19.80074457085493
O	3.2570674086482225	7.123796156508532	19.56206235585537
O	2.70658676176898	6.423187838709227	18.356114036750647
O	1.4211596718994093	6.450061500169811	18.23385693605617
O	0.5988164298139038	6.621576981520987	19.43277089315299
O	1.496261375885413	6.856620511092181	20.575987701232247
O	0.9563439025879079	6.527558948064396	21.714502521094904
O	0.8369477676616377	5.087015860227967	21.932237080276593
O	1.9371575332358848	4.9587695661605125	22.962570831447994
O	3.127366739817056	5.285363192679595	22.412584072898227
O	3.649984344817429	4.129416978370609	21.728493546629814
O	3.4153724698656376	3.83228774815693	20.327781397313203
O	2.033592977489546	3.6630835701061883	19.969253947943688
O	1.5408535722012657	3.255777201809673	18.665043208844732
O	0.047628107386376684	3.382977149006855	18.97856896376224
