86

O	-2.5225199390104476	2.0858415782686572	-1.5621181010029854
O	-1.3189516940104475	1.6952529782686572	-0.8714770458029855
O	-0.3815507840104475	0.643915984268657	-1.4583447720029854
O	0.7744157809895525	0.5069451772686571	-0.4542981710029854
O	1.2282718009895524	-0.8186524717313429	-0.47059520400298543
O	0.6049322409895524	-1.8874543217313429	0.14319449899701464
O	1.0621384909895526	-2.924451451731343	-0.6835158430029854
O	2.283089510989553	-2.431993761731343	-1.2656589200029855
O	2.5312562409895527	-1.1373361017313428	-0.8735893234029855
O	3.7364740909895526	-1.0775940217313429	-0.10324788400298546
O	4.2652489609895525	-2.089841051731343	0.7635432539970146
O	4.311023000989552	-3.252193271731343	0.060095073997014636
O	3.373993800989553	-3.295712241731343	-1.0357845450029854
O	0.7551492309895526	-4.184444121731343	-0.025676973002985437
O	1.4718315009895524	-4.426452411731343	1.2358604539970146
O	1.6556206809895526	-3.294489311731343	2.0487170739970146
O	0.7862990909895525	-2.277574541731343	1.5329102939970147
O	-2.6648113290104476	3.316640858268657	-1.9108428760029854
O	-3.7075395990104476	1.827547298268657	-0.8159548569029854
O	-10.454446559010448	4.871916778268657	-5.035427746002985
O	-9.555797669010447	3.816606818268657	-1.4337323460029854
O	-12.175542339010448	5.208524388268657	1.0223773639970146
O	-10.466790529010447	4.432111978268657	4.405300983997015
O	-7.481632979010448	2.550899918268657	5.904729513997014
O	-5.8655051090104475	2.718434658268657	9.402663393997015
O	-3.0397451690104473	0.4768658042686571	10.870299593997014
O	-2.1983800190104477	-1.0880651517313429	7.482564063997016
O	-1.9550008890104476	-4.660770671731343	8.913840873997016
O	0.5629533609895524	-3.282070591731343	11.509997493997014
O	2.5928690409895525	-1.535676231731343	8.738955503997015
O	2.6760228909895525	-4.818032621731343	6.6912315739970145
O	3.867121410989552	-6.729655051731343	9.846195393997014
O	6.697666160989552	-4.156072661731343	10.265575093997015
O	7.655617440989552	-4.502398401731343	6.533442763997015
O	4.7800443109895525	-9.333994721731342	4.845161623997015
O	-0.7192224003104475	-11.969772601731343	2.0709635739970143
O	-1.7910640390104473	-9.447561991731343	4.8346179439970145
O	-5.363192519010448	-10.925387601731343	5.062236683997015
O	-6.057063069010447	-10.653734301731342	1.2590738339970147
O	-4.306875879010447	-7.216891221731343	0.8788698339970147
O	-6.377680789010448	-5.805216821731343	3.937896103997015
O	-9.685280819010448	-7.086105781731343	2.4141568439970147
O	-8.831830839010447	-5.522957711731343	-1.0441446890029855
O	-9.865692019010448	-1.9435606017313432	-2.0056405160029853
O	-7.258391629010448	-0.7945632217313429	-4.638921726002986
O	-7.642095409010448	2.106450498268657	-7.085889216002985
O	-4.744505069010448	4.341550388268657	-8.157701426002985
O	3.1393191909895526	6.576164038268657	-13.666703106002986
O	1.2566897109895523	5.171170268268657	-10.671470696002984
O	-0.7631867610104475	2.099420258268657	-11.709746306002986
O	-3.0773020990104474	0.1883337202686571	-9.309835466002985
O	-5.756669479010448	-2.501244851731343	-9.955144586002985
O	-7.176731679010448	-4.694307491731343	-7.142721346002985
O	-5.193909439010448	-8.801774741731341	-4.487208686002986
O	-2.8496296690104472	-7.848849881731343	-7.412562986002985
O	-2.5634344790104473	-5.514248251731343	-10.446008156002986
O	0.7460859009895525	-3.556138651731343	-10.003039446002985
O	2.4105506009895525	-0.5498415177313429	-11.757631806002985
O	5.496230120989552	1.708926338268657	-11.569637206002986
O	8.815037410989552	-5.284067721731343	-7.563049076002986
O	6.344419710989552	-4.384328701731343	-4.952931526002986
O	2.694101140989553	-5.866272861731343	-4.558025946002985
O	3.7230152309895526	-8.229759251731343	-1.6173946530029855
O	6.760610590989552	-9.288609191731343	-3.7954380460029853
O	9.943881160989552	-7.505565801731343	-2.4817177360029854
O	5.446785730989552	12.964489498268659	-3.3906379260029853
O	8.016078320989552	11.352265298268659	-1.0058081740029854
O	8.771975980989552	7.754258058268657	-2.0460902560029854
O	11.663271860989552	5.998733588268657	-0.2119356860029854
O	12.352073760989553	2.240680288268657	-0.7739980898029855
O	15.836702660989554	-1.833386151731343	5.716096703997015
O	13.915065960989551	1.3338683422686572	4.722225003997015
O	10.300017060989552	2.545478738268657	4.408003343997015
O	9.050206770989552	6.002169798268657	3.311470433997015
O	5.614395980989552	6.657041808268657	1.7961995839970146
O	4.326746120989553	10.245918318268657	1.5346499239970146
O	1.4428286609895524	11.034520598268658	-0.8750994150029854
O	-3.8014367690104476	10.940870698268657	1.6042660939970148
O	-1.0536248640104475	8.302753988268657	1.5362465139970147
O	1.1075384809895525	7.928804628268657	4.686473713997015
O	3.1898232709895527	4.745711948268657	4.842101943997015
O	-0.4594466570104475	3.692383088268657	8.403937263997015
O	-2.8010255390104475	6.265401148268657	6.770473813997015
O	-4.591136949010448	5.212821838268657	3.5386903639970146
O	-7.050270859010448	7.886081778268657	2.347133693997015
O	-8.222205029010448	7.959253728268657	-1.3028244630029855
