88

O	0.061263221374626475	-1.0729818457313438	-0.4944634702880598
O	0.5664029423746264	-0.3813565517313438	0.4495218427119402
O	0.010840577374626403	0.40207824476865617	1.5268046827119401
O	-0.7861587023253735	-0.8115220357313437	1.7780482727119402
O	0.38636580237462637	-1.8210736757313437	1.67026209271194
O	0.23737758237462647	-2.173606365731344	0.48458944371194024
O	-0.6000381086253735	1.0732975152686561	0.5568048477119402
O	0.8511735823746265	-1.9075785757313437	-1.9648017072880597
O	2.4836957323746263	-1.7031486557313438	-1.1384727362880598
O	2.5543334723746263	-1.3128640457313439	0.21835090371194021
O	3.0797492823746264	0.045981605268656134	0.23556145671194018
O	3.674335062374626	0.09690167926865617	-1.1244763642880597
O	2.6726255323746266	0.23268896126865615	-2.1331503672880596
O	1.4837484823746263	1.1045218472686562	-1.9244115772880597
O	2.0666377623746266	1.8344116342686563	-0.7750036162880598
O	2.5507471223746263	1.2817748932686561	0.3856881427119402
O	3.5165490523746263	-1.679526845731344	0.9163654327119403
O	1.1687448423746263	-1.1249625957313438	2.5997383527119404
O	0.4536532523746264	-1.1647297457313437	3.8960803527119405
O	1.6675423723746263	0.06455964226865613	2.9081251927119403
O	2.1678412123746265	-1.8267187957313438	3.2984193027119404
O	-7.902682197625374	-0.3781312597313438	-7.13228607728806
O	-10.599414747625374	2.2125457042686563	-8.08166544728806
O	-9.961020787625374	4.879651714268656	-5.34898184728806
O	-8.027609907625374	5.595777434268656	-2.15369229728806
O	-7.275070437625374	8.849088654268657	-0.2229910399880598
O	-5.480019747625374	9.250292454268656	3.2164400927119403
O	-4.274852807625374	5.636738234268656	3.29568136271194
O	-5.189394327625374	5.050884774268656	6.9498761927119395
O	-3.1491372476253736	8.255295754268657	7.79528635271194
O	-0.1470258136253736	6.848729674268656	5.76083883271194
O	-0.42218661462537355	3.538856814268656	7.73804936271194
O	-0.5249118676253736	5.450174854268656	11.087744832711941
O	2.6733322123746266	7.327301534268656	10.03292583271194
O	4.381919832374626	4.016949324268656	9.10230502271194
O	0.8741252423746264	-0.11790045873134386	11.386345132711941
O	-4.333806427625373	-4.368283555731344	10.633131132711942
O	-5.277006327625374	-0.8083968557313439	9.31569976271194
O	-9.016769817625374	-1.6079967157313437	9.436997692711941
O	-8.838404667625374	-4.891945475731344	7.38432292271194
O	-6.4614889976253735	-3.530375115731344	4.9963070527119395
O	-8.375127997625373	-0.20889340473134382	4.34257718271194
O	-11.457617147625374	-2.373572815731344	3.6488177727119404
O	-9.556503087625375	-4.570457485731344	1.10293237271194
O	-9.476303857625375	-3.7238463957313437	-2.64934564728806
O	-6.287511777625374	-5.340729305731344	-4.02552339728806
O	-5.281407297625373	-6.023816125731344	-7.64015420728806
O	-1.7354097946253737	-5.629500385731344	-9.01905253728806
O	7.599154362374627	-8.665731475731343	-10.726502767288059
O	4.745734302374627	-6.924916045731344	-8.839491137288059
O	2.3123401523746265	-9.489153695731343	-7.37607572728806
O	-0.9019068877253735	-8.496892085731343	-5.43906815728806
O	-3.9525925476253736	-10.598050215731343	-4.37257224728806
O	-6.519243507625374	-9.389551715731344	-1.77714923728806
O	-6.359791237625373	-9.039632085731343	3.5295620827119403
O	-3.1934903176253737	-10.913232115731343	2.1885800227119403
O	-1.5855576046253734	-12.278676715731343	-1.0285217402880598
O	1.9249369023746263	-10.653614815731343	-1.3665766072880596
O	4.6643375823746265	-10.509369815731343	-4.11254375728806
O	8.117132952374625	-9.011239985731343	-4.89597084728806
O	8.583067592374626	-8.641168985731342	3.85325211271194
O	5.835016292374627	-6.066342545731344	3.4524225627119405
O	1.9582205723746267	-6.947685275731344	3.6814413927119403
O	1.6589605823746263	-5.357249895731344	7.25797119271194
O	4.794813712374626	-7.475439205731344	8.175506002711941
O	7.899239612374625	-5.142948585731344	8.28387347271194
O	8.949639732374626	3.632596474268656	-10.660202767288059
O	10.450916952374627	5.202069544268656	-7.47167680728806
O	10.559771552374626	2.671314294268656	-4.62594597728806
O	12.402811952374625	3.620895004268656	-1.3832634872880596
O	12.262863752374626	1.3329788242686562	1.7562455027119404
O	12.935622052374626	5.206578154268656	9.15791698271194
O	12.125637252374625	5.719339254268656	5.44925006271194
O	9.140517662374625	5.803219604268656	3.07833996271194
O	9.134804292374627	6.499805974268656	-0.6971132042880598
O	6.541900372374627	5.583505094268656	-3.17191447728806
O	6.124123262374626	6.640434654268656	-6.68814014728806
O	4.139441462374627	4.578603324268656	-9.25808146728806
O	-1.4641640226253736	6.267734754268656	-9.92484827728806
O	0.5157965423746265	5.363899764268656	-6.9087685472880604
O	1.7445543023746266	8.101351284268656	-4.46204661728806
O	2.9134763823746264	6.907470024268656	-1.0194379332880597
O	4.799291102374626	9.343863384268657	1.1355082927119402
O	-1.7037082246253736	9.070512294268656	0.2547267697119402
O	-2.9010993376253738	8.649268214268657	-3.4071898372880596
O	-4.069297987625374	5.097268404268656	-4.46910920728806
O	-5.422649387625373	5.101161824268656	-8.04116297728806
O	-5.639315767625373	1.8685835442686562	-10.08380886728806
