88

O	-0.7455518720923072	-0.0029562129830768002	0.8431502368153857
O	-0.9903041140923072	1.8860318300169232	-0.7823995781846144
O	-1.1125573930923072	-1.242730948983077	-1.1163646461846144
O	-0.8754185840923072	0.6103842660169232	2.213350266815386
O	-1.8174691290923073	-2.3444781289830767	0.4540819358153856
O	-0.9629904240923073	2.042552211016923	2.7036090768153858
O	0.2195095059076928	2.5109636510169233	2.2882171868153858
O	0.4381719459076927	2.1473255810169234	0.9342742468153856
O	-0.46978982609230724	1.2353919790169232	0.2915948588153856
O	-1.3278400420923073	-1.0685995689830765	0.14559985381538565
O	0.8843305859076926	2.657494991016923	-0.27664027318461437
O	-0.33604123009230724	3.0729513510169233	-0.7969320671846144
O	-0.3960603070923072	4.508688001016923	-1.0233748111846144
O	0.8858907459076926	5.069633631016924	-0.22206885018461436
O	2.1164987859076927	4.5714193810169235	-0.9977423611846143
O	2.232346575907693	3.1515984910169235	-0.5630830551846144
O	-3.5542459440923073	1.5273662920169233	1.1707375068153856
O	-4.074858354092307	0.8575312107169232	2.274732146815386
O	-4.0900932740923075	-0.5272895589830767	2.1210536868153858
O	-4.552053234092307	-0.8829133089830768	0.8459181968153856
O	-3.9252059340923076	-0.14223651898307688	-0.16578119318461437
O	-3.1105708340923073	0.9260165038169232	0.07557506381538559
O	-2.4481791040923073	1.791377939016923	-0.8775760241846144
O	-7.502387714092308	-9.569979198983077	-1.2619653851846144
O	-4.103105994092307	-9.149952098983077	0.5181678618153857
O	-2.7214759540923072	-12.585670098983076	1.6001009668153858
O	0.8791298459076928	-11.606996098983076	2.6699093768153856
O	3.1257993259076926	-8.558487668983076	3.2919763768153856
O	6.921819095907692	-8.218623328983076	3.6871156768153854
O	8.997709835907692	-5.092012608983077	4.641857016815385
O	6.056037985907692	-2.633995998983077	4.155304516815386
O	6.846048195907693	-0.7704560989830768	7.446769606815386
O	10.457236235907693	-0.3017228089830767	6.146602646815386
O	9.128719135907692	0.9299360526169232	2.7340523268153856
O	6.819846315907693	3.4592245610169234	4.521173956815386
O	9.798523535907693	4.697152031016923	6.672184716815385
O	11.800082535907693	5.248589441016923	3.4245744068153856
O	8.804103535907693	7.138319341016923	1.8486357068153856
O	5.240933305907692	8.188084241016924	6.369930376815386
O	-0.028049364092307183	6.199551101016923	9.884860776815385
O	2.422513915907693	3.242731191016923	9.461448086815384
O	0.8937759959076927	1.3379966280169233	12.445701976815386
O	-2.7379602440923074	1.5421695140169231	11.176254576815385
O	-1.7974371870923074	0.9402765353169232	7.478104546815386
O	0.38519655590769286	-2.186391608983077	8.518596856815385
O	-2.534017544092307	-3.6360343289830768	10.620901176815385
O	-5.064347194092307	-3.136988758983077	7.711480956815385
O	-5.751882414092307	-5.839538678983077	5.025983526815386
O	-6.841313374092308	-3.873016058983077	1.8452635668153858
O	-8.660441114092308	-5.263441168983077	-1.2075602731846145
O	-8.044048154092307	-4.080752468983077	-4.778686353184614
O	-9.263048754092306	2.090011951016923	-12.422074723184615
O	-7.6251758640923075	0.6793198160169232	-9.279277003184616
O	-9.871492064092308	1.2040907010169233	-6.249928973184614
O	-9.111031614092306	-0.07136294898307682	-2.7402210631846144
O	-11.225697774092307	-0.36696892898307676	0.44274600781538564
O	-9.754619224092307	-0.8780963989830769	3.9448967168153857
O	-10.108263594092307	-0.021171173983076774	7.651814966815386
O	-7.201162044092308	2.4633717610169232	7.189161066815386
O	-8.656991864092307	4.417712511016923	4.200150336815386
O	-10.844496364092308	3.992721191016923	1.0817550968153857
O	-8.729058044092307	5.284841851016924	-1.8770570031846145
O	-9.090447124092307	5.233318411016923	-5.7172745231846145
O	-7.171188104092307	6.231653791016924	-8.875843273184616
O	-3.4489040440923073	11.841139001016924	-3.3893305631846142
O	-1.9008063310923071	8.755432521016923	-1.9561572931846145
O	-3.3425546240923074	6.681233491016923	0.9948860068153856
O	-0.7572842410923073	8.183088631016924	3.4669753168153856
O	-1.6493668410923072	11.673827801016923	2.1010549368153857
O	1.1671690559076928	12.762055801016924	-0.28433299318461436
O	1.9407004759076927	-2.3539169089830767	-14.633604623184615
O	3.657466925907692	2.9140065510169233	-11.580904823184616
O	6.180996115907693	5.728740671016923	-10.891546323184615
O	5.311893555907693	8.548077031016923	-8.387329083184614
O	11.892195035907692	12.091014601016923	-4.5382318031846145
O	9.212851635907693	5.543333241016923	-5.825010593184614
O	5.565198645907692	0.19548603901692319	-7.775245503184614
O	5.431674125907692	-2.843062938983077	-10.123394803184615
O	2.239948605907693	-4.965341688983076	-10.287021563184615
O	2.228889415907693	-9.555827398983077	-6.741895313184615
O	2.8416546559076927	-5.851335478983077	-5.985839533184614
O	6.552086485907693	-4.795285148983076	-5.596845153184614
O	6.875546585907692	-1.3104069889830767	-3.967633593184614
O	8.443341165907693	-4.406313958983077	-0.07423044918461436
O	6.467542645907693	-7.340478948983076	-1.5932341631846145
O	2.6142151459076928	-7.204490008983077	-1.0972098541846145
O	1.0322232059076926	-10.445019298983077	-2.4760485931846143
O	-2.695014074092307	-10.525370698983076	-3.3554568431846143
