27

O	3.1392473564021937	7.630383301432412	16.835032814731978
O	2.4291281930225916	8.245818584048394	17.941647813516287
O	3.3609894204838433	8.76513268921582	18.7375419701774
O	4.401342975073986	6.826659507510316	16.774586770167772
O	5.037645075971023	6.0646170870947556	19.007241496258683
O	4.645185210280947	6.904358784460512	18.078254763897945
O	4.631861238961581	8.146658030361715	18.718235332251915
O	5.0368229057075276	6.789329299376168	20.148596424694645
O	5.6990958722725775	7.915821108083229	19.548294194930474
O	6.255390844437599	9.185657893584422	20.11441258479767
O	4.262388066215134	6.809434811931028	21.443486117533073
O	5.569147152080849	8.943540784000003	21.465619879375517
O	5.273858853196203	6.8909131790703055	22.543239473116287
O	6.40487427739934	7.7220743633538405	21.93403495063505
O	4.370853096262858	4.8147418346754565	19.067034000566192
O	2.997343474091955	5.19986978236531	19.25484544978073
O	2.555284891849845	5.044158180174587	18.038286072137254
O	1.217900112661214	4.97712332377322	17.629151108561178
O	0.4941021896363793	5.6842984527718095	18.529415551840867
O	0.9958601067170019	6.037387738145105	19.805163857796376
O	2.3341768226035597	5.949444366531388	20.04932724623084
O	1.1921428845189332	4.697030702072576	16.212551701288433
O	1.246667165947243	5.611740615200453	15.372799016557098
O	2.030401211916784	3.5668104392980364	15.83543099307606
O	4.428313025668782	5.66509404379454	15.944387307021369
O	4.424620653080362	5.981268646129588	14.701708345610744
O	5.0035685014197195	4.446002332807595	16.092538212250144
