13

O	6.670664665678457	6.607377349188477	14.913286432710272
O	6.670359759462898	5.716122532912308	14.008544712100669
O	7.295006187544656	6.532564719681694	16.234858931196158
O	6.187589740289404	7.727045308844472	14.279689671325126
O	6.531735223463794	7.053845868680359	17.37241416140443
O	4.122788158089556	5.970657401464539	15.68914137427541
O	5.440694767788182	6.087596618007847	17.61814500667349
O	5.334851629632242	4.145415177930625	16.00095805716428
O	5.072488937236626	5.462019735096267	16.309503099082328
O	5.000791951391418	8.319593852281548	16.405594577465685
O	6.072666952879539	8.422069832552811	16.94362450964537
O	6.993737216781563	9.1919219238386	16.308141570711076
O	7.176461615042548	7.418510063631812	18.49303157502619
