82

O	0.888460384065574	-3.7562987341311476	-3.293220757770492
O	-0.48789518593442605	-0.7347377911311477	0.8103187522295081
O	-0.2729145659344261	-1.8539586441311477	-0.012291544770491825
O	0.889368594065574	-2.6534764541311477	0.02844143022950818
O	1.839407194065574	-1.3853845841311476	1.5779023322295083
O	0.6738546440655739	-0.5962346581311477	1.6699442522295083
O	2.0684083040655743	-2.3322632441311475	0.7009412422295083
O	-1.5659684249344261	0.20188428886885224	0.6964717422295081
O	1.1198715840655737	-3.782509904131148	-0.7518226027704918
O	-0.817942345934426	-2.1413280041311475	-1.311924321770492
O	-1.841098103934426	1.3977872158688522	0.2378314972295082
O	3.2888841040655743	-2.9559805041311478	0.3662666722295082
O	2.1122721840655743	-3.747746274131148	-1.7711651277704918
O	-2.397910438934426	0.6857656358688522	1.795737252229508
O	3.2118950240655746	-3.317939134131148	-1.051332924770492
O	0.12570586406557394	-0.3694597470981477	3.078497022229508
O	-1.656468138934426	-3.0409240941311477	-1.8984634877704918
O	-0.7659168159344261	-1.2060049111311477	-2.306547867770492
O	-1.3340197899344262	-1.1152494451311479	-3.528588977770492
O	-2.326907625934426	-3.1308631541311476	-3.062064677770492
O	-2.360549411934426	-1.9708040741311477	-3.782686427770492
O	-7.371820835934426	6.561628445868852	-2.778738497770492
O	-7.243302805934426	10.16956865586885	-4.182490397770492
O	-3.407417125934426	10.808601255868851	-4.1200691977704915
O	-0.05030284593442613	9.029042965868854	-3.501078137770492
O	3.4963623540655737	10.357166955868852	-2.899194977770492
O	6.819024624065575	8.388587025868851	-2.653035137770492
O	5.0886420240655745	4.943214045868852	-2.393075587770492
O	7.545261994065575	3.360229055868852	-4.946412437770492
O	10.446979784065574	4.632300465868853	-2.722804317770492
O	8.765223784065574	3.2441668258688523	0.4622905822295082
O	8.347487444065575	-0.18480254913114774	-1.2997426157704919
O	12.072374784065573	-0.14606375813114772	-2.3578724477704918
O	13.027647184065573	0.5160599208688522	1.3221851122295083
O	10.738258084065574	-2.3752893341311476	2.502015882229508
O	9.341097384065574	-5.2551790641311475	-2.3565385277704918
O	7.105810374065575	-6.187718724131147	-10.683550207770493
O	5.088344434065574	-6.089201684131147	-7.380867357770492
O	5.806255524065574	-2.3611618141311475	-6.961223627770492
O	4.721578924065574	-1.5716079541311476	-10.622941407770492
O	1.283321704065574	-3.232694714131148	-10.293050457770493
O	0.7274249640655739	-1.9617593141311478	-6.687923337770492
O	1.605740984065574	1.6343123758688525	-7.659657717770492
O	-0.7738607309344261	1.5139698858688522	-10.712329707770492
O	-3.5982372859344265	0.15683706286885224	-8.448497127770493
O	-6.073651655934426	2.5015909358688524	-6.683392677770492
O	-7.217896575934426	0.5042180418688522	-3.601473347770492
O	-10.302917685934426	1.2196690258688523	-1.4574789277704918
O	-10.461042935934426	0.7534365258688522	2.333506452229508
O	-9.589777935934427	-2.9621795441311476	7.708830242229508
O	-10.372996355934426	-4.670847964131148	4.378205592229508
O	-9.122911825934427	-3.489245934131148	0.9829033322295082
O	-10.015632795934426	-4.416369644131148	-2.612007677770492
O	-7.841290235934426	-3.598366874131148	-5.6228540877704924
O	-6.723424575934426	-4.8213345441311475	-9.066214007770492
O	-3.389717225934426	-5.7014947041311475	-7.384212497770492
O	-4.821151385934426	-7.900723714131148	-4.550475337770492
O	-7.790479555934426	-8.187960184131148	-2.2013069277704918
O	-6.407586295934426	-8.170716154131147	1.3975912322295083
O	-7.917288635934426	-7.948270824131148	4.915140552229508
O	-6.791179005934426	-7.706282444131148	8.555639992229509
O	0.3328938340655738	-11.575814844131148	5.529718362229508
O	0.9031972440655738	-8.173996524131148	3.8691272222295083
O	-0.32881514593442596	-7.364994034131148	0.2681147492295081
O	3.2671386340655744	-7.799260684131148	-1.1193023627704919
O	3.509816794065574	-11.083119344131148	0.7403397622295083
O	5.6445767140655745	-10.609678144131149	3.922237022229508
O	-4.131278405934426	4.460464635868853	14.474576592229509
O	0.35347097406557393	0.22679667486885224	13.060862392229508
O	3.8606936540655745	-1.2375101381311477	13.606861892229508
O	5.043872744065574	-4.346656804131148	11.638747892229508
O	7.958486354065574	-0.15811683613114774	9.502068112229509
O	2.1076007240655743	3.1906060158688523	9.378616822229509
O	-3.5801234559344257	6.5453446758688525	9.866203292229509
O	-4.334934695934426	10.432182155868851	5.576053052229508
O	-2.1008822589344263	7.341151825868852	5.784130562229508
O	1.6600616340655738	7.891024595868852	6.510471822229508
O	3.876398414065574	4.828814215868852	5.812908542229508
O	5.150861644065574	7.911918325868853	1.8205042022295082
O	1.813410964065574	9.801118855868854	2.182099562229508
O	-1.333654945934426	8.034182485868854	0.8125830622295083
O	-4.415741455934426	10.330214855868853	1.0452771922295083
