77

O	3.5514183784894735	-2.7141932039649124	-1.451011824736842
O	4.386780378489473	-3.6390720439649127	-1.1851539347368418
O	3.0744288084894738	-1.9377570239649122	-0.29495028973684184
O	3.7578720384894737	-2.1744843139649124	-2.7292560447368417
O	1.7701849984894733	-1.2770375739649125	-0.47770694573684186
O	1.0367020884894735	-0.8064339639649124	0.7258470032631582
O	0.27186994848947355	0.46019305053508763	0.6957493372631582
O	-1.0762629695105264	0.4582244541350876	1.4298874552631582
O	-1.2429324735105265	1.3618652750350875	2.543653755263158
O	-2.0291422355105264	2.5425294160350878	2.0856160052631583
O	-3.3065659015105267	2.6172929160350877	2.7500650952631585
O	-4.362388441510527	2.8289966360350878	2.0053027252631583
O	-4.256981621510526	2.848104126035088	0.5517555182631582
O	-2.8361396815105264	2.652874936035088	0.16817652126315819
O	-2.5625856515105268	1.5564428260350875	-0.7537184147368418
O	-2.9480351715105266	0.27138143703508766	0.02044528096315818
O	-4.316788041510526	0.42461461863508765	0.5671965172631582
O	-5.121484861510527	0.44644395883508764	-0.6840833047368418
O	-4.178992661510526	0.28475120903508766	-1.8145038647368419
O	-3.2523675215105268	-0.8391884839649123	-1.899413204736842
O	3.9480080784894733	-4.062730723964913	-9.022381084736843
O	5.928337118489473	-2.419202823964912	-11.894394554736841
O	6.659091208489473	1.0674987020350877	-10.361972754736842
O	5.7410979584894735	3.263747386035088	-7.338714534736842
O	7.395367068489474	6.472626046035088	-5.9768566147368425
O	6.132526828489474	8.762863066035088	-3.1214109047368415
O	3.473970088489473	6.2414450360350875	-1.8881876647368419
O	0.7964693284894735	9.017576136035089	-1.5432520547368418
O	3.298055558489473	10.978731436035089	0.6604987782631582
O	4.048820188489474	7.842467656035088	2.7653644252631584
O	0.25597974848947347	7.263717816035087	3.2670379652631585
O	-0.17710156151052647	10.948918136035088	4.337258455263158
O	2.6341752184894736	10.447249676035089	6.918332635263158
O	0.9761982684894734	7.224151836035087	8.217735025263158
O	-2.3377058855105264	9.131825506035089	8.626178605263158
O	-4.447390891510526	7.452857116035087	5.892821385263158
O	-10.290776301510526	8.499384826035088	-0.3747868587368418
O	-8.358477171510525	5.429303306035087	0.8023543552631582
O	-5.054695561510527	6.892881626035087	-0.5804116657368418
O	-6.688158061510526	7.659538266035088	-4.000641714736842
O	-8.036376041510525	4.0842057960350875	-4.5517607747368425
O	-5.027591741510527	2.7175704560350877	-3.507467634736842
O	-2.4887032615105262	4.6108452760350875	-5.340608554736842
O	-4.581165441510526	3.6720941160350877	-8.463940034736842
O	-4.436252701510527	-0.1054414479649124	-7.700379094736842
O	-1.5982645205105266	-2.394966373964912	-8.835659084736841
O	-1.3266306184105265	-5.243199963964913	-6.2526926047368425
O	0.43431133848947345	-8.629312183964911	-6.652128504736842
O	2.698373478489474	-12.748937563964912	2.283980205263158
O	-0.7210034395105265	-12.667943263964911	0.5554176632631582
O	-1.7860327445105264	-9.817110763964912	-1.8087555347368418
O	-4.747385301510526	-9.454242193964912	-4.235240274736842
O	-5.8630641315105265	-6.086494343964913	-5.710852724736842
O	-8.837157761510525	-3.9354206839649124	-6.759620574736842
O	-8.514191411510527	-1.965308983964912	-3.5546690647368417
O	-8.508216081510525	-4.975308563964913	-1.0728141747368418
O	-7.374450821510527	-8.574717423964913	-0.7716738477368418
O	-5.133104911510527	-8.818978233964911	2.347992115263158
O	-2.8892922415105264	-11.536340163964912	3.9084135952631582
O	-0.42035721451052643	-11.945021063964912	6.800601215263158
O	-4.9332791615105265	-5.481186493964913	10.236156245263158
O	-3.2052037015105266	-3.4039454639649125	7.487599635263158
O	-4.819604961510526	-2.8049185039649123	4.124547835263158
O	-5.894862691510527	0.8024717800350876	5.136339655263158
O	-7.3954442615105265	-0.6438907839649123	8.334579425263158
O	-4.896998411510527	0.048233073035087615	11.170772245263159
O	8.989073538489473	-5.476708153964912	8.963052915263157
O	8.298915358489474	-3.0160318739649123	11.832980045263158
O	4.663412738489473	-2.0114616339649123	12.701667445263158
O	9.143841438489474	-1.6444365839649122	5.656202795263158
O	11.774685738489474	-5.920418243964913	1.3917315252631581
O	9.956618738489473	-2.7407824739649125	-1.0589510247368419
O	8.292979438489473	1.7843985560350877	3.1742754552631585
O	8.342739918489473	5.3183668460350875	-0.6101188577368418
O	9.942227538489474	2.794082736035088	-3.018174634736842
O	7.585464948489474	0.15005669903508762	-4.510879204736842
O	9.378198138489473	-2.0546519339649123	-7.0744950347368425
