15

O	12.232369330992444	2.496077926900725	5.620514401951837
O	12.093110346312907	4.083104689180035	6.462777238807024
O	13.505196998322928	4.525674548508812	6.564145437660457
O	14.356904790769415	3.779062639502616	6.013755277514546
O	13.46811290760357	3.3102844793503783	4.842878613332483
O	13.117208651707532	5.758997911598652	7.264178293423654
O	11.883650274534762	6.096255764596556	6.94574031892547
O	11.35526026063109	5.030624591413979	5.943867941990219
O	9.890216773023504	4.994175005405826	5.889996562072223
O	9.412381986883862	3.570060656388513	5.607817395881574
O	8.369364759467597	3.3437972395181297	6.269867995155666
O	7.537282596243919	3.964831666189883	7.329622468589658
O	7.777444603963909	5.497253910348952	7.184028651056433
O	6.167721559693694	3.5263323322780744	7.224058815176551
O	8.044404449979526	3.995654957511122	8.674434292263943
