30

O	6.689667434665579	5.377512490838295	8.679803023934912
O	8.379440932842328	0.24299327626647393	6.157679626860746
O	10.403162038381275	1.4632200714655408	3.1907637711520462
O	8.155775510707759	0.03199861351924227	3.6085185021446233
O	8.375913553575229	3.5980923432315453	5.013212362311367
O	7.6033287972811925	3.406466246084002	6.283758828586687
O	15.159261151880884	4.322186752576391	6.7178375519421785
O	9.830046051695211	3.595904134837237	5.20260415506734
O	8.666761436481446	3.145142647151192	7.349187318354166
O	11.920728981018815	0.24845160067130667	5.185638550197096
O	12.7958821048436	-0.006401494239177907	3.1918013889853074
O	8.600571704037273	5.27563948688793	7.392889526128471
O	12.82179223091008	1.026461363292975	4.321586628089884
O	14.344150637350198	2.6595859332840375	5.046649165833173
O	13.088213750682336	3.235121585557671	6.422730878217909
O	10.578453377103036	3.6797186043144072	6.450012227143038
O	15.281480548150133	3.1285774324101463	5.867225111127257
O	13.926896840442506	3.9880979567124637	7.090901224809864
O	13.124224796195312	3.309866757538275	5.060097113229786
O	8.146233238612776	5.704973307694467	8.685535676230351
O	14.162796250987933	1.279158521264676	4.870825703821632
O	11.818203359149281	2.6744201666094876	6.407296579566659
O	9.065744316148962	6.450087258034227	6.763110806462862
O	9.493593437148165	0.6667847850245385	5.577321794476025
O	10.534479532404657	0.3984311549129633	2.34774959297551
O	9.111842496634104	-0.9408556384209916	3.538641729802564
O	10.498099360978824	0.12353006559413515	4.98725568069502
O	11.439660752054348	-0.4729580294134026	2.8377123796140244
O	9.747027087505224	4.329182982258187	7.408121299567237
O	10.424609312710064	-0.7979062035679396	3.831052303650922
