37

O	6.460201030135715	1.8550478655930238	5.971391627020707
O	9.471833079925108	3.912705594853074	6.766986654155176
O	12.365822923709954	-0.019895948368019667	3.977731452688839
O	7.316926361878718	1.0604083906148523	6.724816475782026
O	8.692126203588913	3.1094472892778997	5.889183081776002
O	9.06282898671593	4.700280471942451	7.91054861021701
O	11.063422632356664	0.14876953639109392	4.581991151786509
O	12.296311226792607	-0.7961222056506445	2.767651624138777
O	11.036954447163206	0.9661522325296819	2.3944082893736454
O	8.590872515387499	1.4752545559587924	7.285528533128252
O	7.73991835378415	4.225748651714616	5.365151863148853
O	7.537904680209816	4.59588766634825	7.943803583566277
O	10.548307546284601	4.468580852502858	6.065572110215725
O	13.110237886843892	1.0709886543069937	4.4052363358740365
O	8.169847752867824	0.21554517292180897	5.819671369644631
O	8.480299127968864	1.6034706643752497	4.014408475774766
O	11.839045061828767	0.03587677617351481	1.7948793004851407
O	8.472889688532408	1.6135330685869267	4.00466897008957
O	8.587549932575454	1.8993022777917217	4.833618837262881
O	10.120684630983536	-0.8203520731465641	4.173539562703938
O	11.019993290045397	-1.58428685574847	2.4328272499566017
O	7.132667783637064	4.796927741011085	6.554753296441306
O	9.784524179467729	-0.9265792357891245	2.6900937600677484
O	7.904470751792354	-1.067991859453226	1.4774925802897076
O	7.852987100315819	-1.3749446393527656	3.625384323230207
O	6.860775518050875	-0.24588946154949998	2.067037356660447
O	6.562029494526045	-0.770064114006261	3.370031009106589
O	5.096935630963054	-1.046026586021048	4.9311834841693605
O	8.650627558892701	-1.6792916147462584	2.4829118194995967
O	5.772688325414137	-0.001588519144459788	4.1059829995012
O	12.760884553784765	5.28515689108481	7.0568116109831225
O	12.766325016068519	3.3244364963993447	4.573595752638699
O	12.146164397223627	2.0975583207923676	4.592845666550346
O	11.234611627024806	2.1340371707603247	5.6555867745599375
O	11.344413876882497	3.3198373406285047	6.4095792479602265
O	12.708933138295242	3.7642692932883186	6.424951635626811
O	13.521073579258918	2.86015340396812	5.762085166933542
