78

O	-0.6589076264918032	0.24854802029508186	1.1117814448442633
O	-0.16467852949180317	0.11692386129508184	-0.23404519515573668
O	1.0613611435081967	0.7911616732950819	-0.16441246115573666
O	-1.0101142959918032	-0.8218961867049182	2.0339426178442634
O	1.614311543508197	-1.3153166867049182	-0.6682194821557368
O	-0.6010232374918032	1.527675313295082	1.4366809078442633
O	1.0669032835081969	2.060938543295082	-0.0653824041557367
O	1.645039213508197	-0.4779781297049181	0.4361361728442633
O	-1.7693088894918032	-0.16167879470491814	3.0909903178442635
O	-0.09279041949180311	2.638748763295082	0.6385321598442633
O	0.3753562135081969	-1.2806093967049181	-0.3920085271557367
O	-3.103361876491803	-0.5779310757049181	3.0551611678442634
O	-1.4062684844918032	0.9565459712950819	3.7848077478442637
O	-3.666427226491803	-0.6175164447049182	4.3015266478442635
O	-2.202686136491803	1.2280547852950818	4.904102667844263
O	-3.3872335864918033	0.5169237192950819	5.088547187844264
O	-3.6473403064918033	-0.6017233087049181	1.8272868578442634
O	-4.6116387564918035	1.078148084295082	-14.474432102155738
O	-7.187128256491803	3.546226773295082	-13.254317202155738
O	-8.416155416491804	2.343478643295082	-9.863942102155738
O	-8.820625716491804	5.025098053295081	-7.180742522155737
O	-10.260689956491802	5.026967463295081	-3.6761490321557364
O	-9.882495886491803	2.2346868332950818	-1.1290483721557367
O	-6.922035546491803	2.658517183295082	1.2290838578442633
O	-7.371107456491803	-0.47365007270491816	3.3374451178442635
O	-8.471547116491802	-4.083422606704919	3.5853838878442637
O	-6.162289966491803	-6.975221866704919	2.8369015378442635
O	-6.425378226491803	-10.607290526704917	3.7872616678442634
O	-7.6875521864918035	-11.305385126704918	0.24223333934426333
O	-9.621115626491804	-8.096072856704918	-0.4475245661557367
O	-9.614723546491803	-4.310041906704918	-0.6392416771557368
O	-6.496068716491803	-2.3453279267049183	-1.4023628621557367
O	-6.855263636491803	0.7528415992950819	-3.5216073021557364
O	-4.631566546491803	3.564638003295082	-4.539979062155736
O	-4.642392296491803	4.420188903295082	-8.265148632155737
O	-2.652768266491803	5.473255633295081	-11.319256302155738
O	0.8750933235081968	6.456445383295081	-8.389185822155737
O	0.2962491135081968	2.849555183295082	-7.376183992155736
O	-1.370681365491803	0.6255249772950818	-4.901957912155736
O	-3.5784372164918032	-2.200517136704918	-6.066927042155736
O	-4.155582996491804	-5.314264046704919	-3.9792525021557363
O	-7.343240756491803	-6.963665186704919	-5.147403332155736
O	8.157641453508198	-8.805891006704918	-2.9435616421557365
O	7.770365773508197	-1.0266277267049182	-1.2086040421557367
O	8.449645243508197	-2.172867066704918	-4.754695212155736
O	6.376420023508197	-4.586159536704918	-6.851759732155736
O	5.437570933508197	-2.8481585667049183	-10.099418902155737
O	0.30101449350819687	-3.614688986704918	-8.567603612155738
O	2.599330063508197	-2.131037746704918	-5.933550232155737
O	4.385865283508197	1.1653086002950819	-5.376032642155737
O	2.226971173508197	3.788822093295082	-3.6575889821557364
O	3.3984886635081972	5.376643133295081	-0.45174640615573664
O	1.489655563508197	8.626402333295083	-1.0138084421557367
O	1.1315665135081967	9.784597263295082	2.6065524778442635
O	-0.28084722249180316	6.435591803295082	3.8747020578442637
O	0.09407834350819688	4.763161573295082	7.231938907844263
O	2.8306803235081968	5.752746273295082	9.637315067844263
O	0.7936482035081969	5.466125553295082	12.843750297844263
O	5.417622303508197	-3.024639866704918	13.709057097844262
O	4.494799713508197	0.5876732662950819	12.993059097844263
O	1.2168909935081968	-0.6386009397049182	11.424500997844262
O	3.356880843508197	-2.162872696704918	8.673977067844262
O	5.226011133508197	1.022648110295082	7.8802296478442635
O	4.098991313508197	3.566123193295082	5.310695907844264
O	5.062634763508197	7.139931903295081	4.435073907844264
O	6.152379773508197	7.999843153295082	0.8939218508442632
O	6.9304231735081965	11.603291673295082	1.9198160078442632
O	10.890836843508197	8.819472213295082	3.7950006778442633
O	9.229585143508196	5.792205843295082	5.365920727844263
O	9.125936243508196	2.286342273295082	3.9193944378442636
O	8.287696513508198	-1.234303386704918	5.017003727844264
O	4.847423113508197	-2.133517646704918	3.6634701578442637
O	3.706066613508197	-5.083953796704918	1.6247495278442632
O	4.839521003508197	-8.353062286704917	3.3269163678442637
O	1.6215585835081967	-10.205903226704917	2.5044518578442636
O	-0.4695292054918031	-7.338146996704919	3.8751888178442635
O	1.8288336835081966	-7.210891806704918	6.897529507844263
O	0.9824856435081968	-10.786320426704918	7.990506577844264
