74

O	-2.274850374405084	2.213045386966102	0.6343122505769494
O	-0.9459177174050841	1.0984047909661019	0.14546868637694937
O	-1.6245551534050842	0.16973620196610195	-0.7910985494230506
O	-2.831994914405084	0.4252116959661019	-1.0412711504230507
O	-2.720956664405084	1.961845096966102	-0.9571020604230507
O	-0.38618199340508413	-0.5932502230338982	-1.0054606404230506
O	0.6649310655949159	0.17230933396610193	-0.7912369844230507
O	0.13960080559491583	1.582992927966102	-0.4007066024230507
O	1.1424050955949159	2.370395046966102	0.3238377905769494
O	0.4558921055949159	3.290583356966102	1.3328007395769494
O	1.1497422455949158	3.351040846966102	2.3779361095769493
O	2.3424822155949157	2.7156342769661017	2.9901075595769493
O	3.199835985594916	2.224188396966102	1.7856912095769493
O	2.9931136155949156	3.625124016966102	3.9003987095769492
O	2.230140035594916	1.3693893389661018	3.481681859576949
O	-1.2953594774050843	0.8595528209661019	-15.770919150423051
O	-1.386994790405084	6.044692846966102	-12.531148450423052
O	-0.32167503040508416	9.934168356966103	-4.5941718304230506
O	-1.153325622405084	7.969109316966102	-1.4373941704230506
O	2.1805062455949162	8.422837476966102	0.3179581385769494
O	6.021630785594916	8.691102396966102	0.13098777137694936
O	8.286380145594917	5.582057226966102	0.16154528273694937
O	11.938798095594915	5.203866866966102	0.9700084665769494
O	12.542119495594916	5.150653696966102	-2.8025697704230508
O	9.786138095594916	7.483254206966102	-4.021440760423051
O	6.087296915594916	8.321346076966103	-4.181182960423051
O	3.4277952955949162	5.714263466966102	-3.9235711004230507
O	0.31682877559491573	6.1422433869661015	-6.06454800042305
O	-3.002081854405084	4.413802496966102	-6.388052010423051
O	-4.100562754405084	3.462930086966102	-9.86040835042305
O	-5.768202724405084	0.952013941966102	-12.15864685042305
O	-7.268571944405084	-1.2653204130338982	-8.30624116042305
O	-3.565145224405084	-1.226416943033898	-7.52928477042305
O	-0.8839637984050841	0.5715478449661019	-5.65779663042305
O	2.272195985594916	1.6528446669661019	-7.48581319042305
O	5.570681285594916	2.070622376966102	-5.6097686404230505
O	7.807038815594916	4.261041556966102	-7.770318790423051
O	6.474377745594916	-9.956194063033898	-1.0681858704230507
O	-0.9746228694050841	-9.501199963033898	3.6333219795769494
O	-0.9105621554050841	-7.221476253033898	0.5496300675769494
O	-0.19436845740508413	-9.187436703033898	-2.6349113604230507
O	2.437782465594916	-8.416018713033898	-5.28793480042305
O	0.7047087155949159	-8.042205493033897	-8.62685489042305
O	2.635189475594916	-3.008423353033898	-8.673709850423052
O	0.9033018755949158	-3.9927041030338986	-5.407539290423051
O	-2.631214824405084	-4.8591141330338985	-4.4206845904230505
O	-4.599970844405084	-1.779256903033898	-3.3889271104230505
O	-6.190066614405084	-1.5854565130338982	0.04002618557694937
O	-8.936724394405084	0.7658375259661019	-1.0299917104230507
O	-9.746423794405084	2.372713016966102	2.3239407195769495
O	-6.189634504405084	3.353723536966102	3.1629022295769493
O	-4.442635244405084	3.595175286966102	6.487564149576949
O	-5.662456974405084	1.896395286966102	9.573817169576948
O	-4.690984844405084	4.666689966966102	12.026062849576949
O	2.7012826155949154	-1.2607378930338982	14.10787344957695
O	-0.6902177555050841	0.18592464496610195	13.184972149576948
O	1.0744540855949158	2.510900286966102	10.720593249576948
O	1.885770705594916	-0.690875343033898	8.771169429576949
O	-1.6743545784050842	-1.8548018130338981	8.51254439957695
O	-4.170704304405084	-1.013012563033898	5.78134542957695
O	-7.875697704405084	-1.3504354830338983	5.232039669576949
O	-9.208202284405084	-3.188198633033898	2.1710299695769493
O	-12.790871004405084	-2.813139733033898	3.4125013595769493
O	-10.764397454405083	-6.597165743033898	6.341273489576949
O	-7.350485014405084	-5.275026303033898	7.326140579576949
O	-4.0090764644050845	-6.340134463033898	5.87056753957695
O	-0.33198150340508414	-6.041488283033898	6.65404213957695
O	1.1785967455949158	-3.370958183033898	4.3378086595769485
O	4.128725375594916	-3.722853743033898	1.9881722295769493
O	7.218747735594916	-4.924475243033898	3.9518698695769494
O	9.670146195594915	-2.6046725330338982	2.1844170495769495
O	7.549183285594916	0.3471152719661019	2.9168615895769494
O	7.1174834555949165	-0.8948315030338981	6.544843119576949
O	10.864376395594917	-0.6143949330338981	7.244185679576949
