31

O	5.98065996745768	5.619995658401688	6.870243525176175
O	3.471969476394995	6.344946621483988	7.281150871029087
O	2.0760210490468456	7.088410859291059	9.332404751358615
O	5.974932278755786	3.862102015922363	5.119144469796673
O	6.544820941725455	5.057464552066567	5.437571803002344
O	7.172365172058077	2.907449695007244	5.066572820693417
O	8.37529156666375	3.5876598986850947	4.813635830083584
O	7.368958485963452	2.578922594142761	6.559553465681049
O	6.354215288924965	1.6946362703401752	6.863312286643444
O	8.765107554148589	2.0308218956597113	6.467601268340807
O	8.593534835024217	0.7218915685649261	6.062161374980786
O	9.407074958369508	2.967132825569303	5.473358111570034
O	14.453634625599625	4.206560265789566	6.342783270472136
O	5.364138221929685	4.528911680726906	7.599482607882836
O	2.144653968096371	6.24757216480898	6.6451050040298085
O	1.0257916630206037	6.817854165565765	8.346287261937633
O	13.904548752235083	3.2871714647110055	5.56947458240629
O	7.238925879451573	6.296617321251649	7.617769704882812
O	3.356985793179586	4.859480592964679	8.004362174320056
O	1.720871404194611	8.452592898955796	10.080152496317758
O	12.59812325742866	3.020771705190667	5.452791982297447
O	3.385331793533748	7.695705659275113	8.313550968882328
O	4.850534142401303	6.75410120175931	6.560989796240943
O	2.427871968670214	5.544116713920722	9.756361619559655
O	11.7495524226271	3.857257226101807	6.0188937528583
O	12.292845121763897	4.81563127427369	6.871974618503165
O	13.658005527274735	4.985246921848039	7.055580092272165
O	14.286084337850369	5.968979773308943	7.830255844980902
O	11.2731070844215	5.5550097889155206	7.249099085091132
O	10.138525728886838	4.9259766633311575	6.794227459074021
O	10.413167064428377	3.860497923910715	6.041228921799788
