93

O	0.4879172900448272	0.15518141387448292	2.965298816206897
O	-3.751106059955173	0.9530260528744829	-0.6032378737931031
O	1.6845106500448273	-0.23591665612551704	4.835358716206897
O	0.22966192004482733	-0.4003993061255171	4.367227886206897
O	-0.8266525799551727	0.955298044874483	2.676031266206897
O	-4.877265579955173	0.513121372874483	-1.5400995737931031
O	-4.545385149955173	1.950176584874483	0.043660791206896865
O	-4.647195299955173	2.1396060698744828	2.420915746206897
O	1.4183968300448275	1.248240154874483	6.545746516206897
O	-5.904101049955172	0.46686911787448304	-0.3778259267931031
O	-5.750317639955172	2.621172163874483	-0.5185589347931031
O	0.41090586004482743	1.730315857874483	4.523980876206897
O	-0.49451240995517276	0.708893096874483	5.0691335362068966
O	-2.0230739609551724	0.3204363738744831	3.4019779062068967
O	0.6665608300448271	-0.990254626125517	2.321807496206897
O	-2.4386588959551725	0.827473734874483	-1.0073258027931031
O	1.6662233600448273	1.163609137874483	5.1045477362068965
O	2.587002790044827	-0.6726617961255168	3.884931646206897
O	-5.201377689955173	1.681128336874483	1.274690796206897
O	-6.805610299955172	1.632369925874483	-0.7927728007931031
O	-1.8930299409551727	1.036361491874483	4.752894376206897
O	-7.7145450699551725	3.126656933874483	0.7416415002068969
O	-8.841900049955171	2.521264813874483	-1.176210445793103
O	-8.896597489955173	3.248854073874483	1.6447341662068968
O	-9.706643769955173	3.579289403874483	-0.5854066467931032
O	-10.662642459955173	4.680287263874483	1.2318151562068969
O	-7.945601649955172	2.021027073874483	-0.13110402629310314
O	-10.037948149955172	3.436873533874483	0.7978179062068969
O	2.4342628800448276	-1.0869907761255169	0.4500392952068969
O	-0.6648453169551727	-0.912534516125517	-1.1215866937931032
O	-1.7227955159551727	-0.2325762561255169	-0.44750117879310314
O	-1.2069799859551726	-0.17187415612551704	0.8770276962068968
O	0.01629509004482732	-0.894852256125517	1.0852240662068968
O	1.0474154100448274	-0.12335053612551694	0.28684230320689685
O	0.2597029400448274	0.12823738387448302	-0.9480549057931031
O	-6.140514889955172	-14.278112326125518	-4.738585313793103
O	-6.437574259955173	-12.283642926125518	-1.5112011237931031
O	-8.701832119955172	-9.238952326125517	-1.653144963793103
O	-9.999122119955173	-6.808702086125518	0.944630536206897
O	-8.078090219955172	-5.410186936125516	3.869225616206897
O	-6.347566749955172	-2.142384716125517	3.225909196206897
O	-4.672437439955173	-1.6639296961255172	6.628674486206897
O	-3.1213276699551726	-3.210913466125517	9.759066336206898
O	0.6349008500448274	-4.051027076125518	10.073013336206897
O	2.8162705600448277	-4.616719766125517	13.048999636206897
O	-1.0322071789551726	-8.521528456125518	10.851324936206897
O	-3.5380749099551725	-7.267529376125518	8.260277856206898
O	-2.457891477955173	-5.980327956125517	4.897743436206897
O	-4.671382579955173	-6.829118066125517	1.978077386206897
O	-4.814886499955173	-6.0054025461255165	-1.654754023793103
O	-5.113358319955173	-8.772910526125518	-4.128698563793103
O	-4.147084349955173	-10.239238226125517	-7.496183083793103
O	-2.4459560499551727	-5.972771316125517	-8.539195093793102
O	-0.4319737099551726	-6.696787076125517	-5.391162993793103
O	-0.37120453995517266	-5.882116316125517	-1.6902586337931031
O	-0.08002424995517265	-8.713843926125518	0.7801591782068968
O	1.4025352300448275	-8.329726586125517	4.233658306206896
O	7.316894700044827	0.1534632538744829	-3.6832440137931033
O	8.835219490044828	-3.0197943361255173	-5.130363473793103
O	8.994701090044828	-6.447387256125516	-3.4495701437931032
O	4.4773254700448275	-6.218517306125516	-2.553989903793103
O	3.647042870044827	-4.0285392861255165	-5.605189133793103
O	0.18255254004482735	-2.415511346125517	-5.1970030937931035
O	-0.30999698995517266	1.394775775654483	-5.277928673793103
O	-3.9490074299551727	1.330889910374483	-6.3466078437931035
O	-5.100955829955172	4.688634783874483	-5.188961313793103
O	-3.8377788499551726	4.221757913874483	-1.7067661537931031
O	-2.7782991299551725	6.463245043874483	1.1414690462068968
O	-1.5978007115551727	9.870881673874482	0.23186684520689688
O	-3.1278026399551724	11.689334773874483	3.2136062362068967
O	-6.619271059955173	10.462673923874483	2.3982740562068967
O	-6.029195209955173	11.027026233874482	-1.3164706337931031
O	2.873201330044827	11.521714373874483	4.474792766206897
O	1.3540228100448273	8.517707383874482	6.276194246206897
O	4.0051943100448275	6.357953203874484	4.675213806206897
O	3.4360654600448273	7.587118803874484	1.1466950762068968
O	1.0112081300448272	5.888559543874482	-1.2503144537931032
O	-0.5065975399551728	6.793599603874483	-4.605781793793103
O	-0.06141475995517265	4.533201143874483	-7.6379719537931035
O	-1.9446788639551726	6.969685653874484	-9.851202553793103
O	-2.7100256299551724	10.688091883874483	-9.767353333793103
O	0.6561012800448274	11.453996573874482	-11.363316363793103
O	2.7591400100448276	9.115307143874483	-9.207789033793103
O	3.4388963600448275	8.754294663874482	-5.499028423793103
O	5.798572530044828	6.2467163838744835	-3.901140593793103
O	7.386366240044827	5.566486553874483	-0.5312004447931031
O	5.634677770044827	2.810154573874483	1.233102876206897
O	6.716517260044828	-0.4521528461255171	2.7296583962068968
O	9.612568290044827	0.26543058387448304	5.147667726206897
O	8.553934190044828	-2.331499646125517	7.705299346206897
O	5.0270930700448275	-0.9787940761255172	7.669802886206897
O	6.498204740044827	2.5647151838744833	7.959427036206897
O	8.106127400044826	1.870651250874483	11.320546536206896
