31

O	14.442453012255418	3.83814960868862	6.469094689973902
O	14.188712131975269	4.991141737220569	7.179270355674061
O	12.922163250275464	5.429536190579567	7.3610150690996345
O	11.856269760775158	4.697444145572133	6.940587930999291
O	10.466637642163299	4.935835805349107	7.284702631917062
O	9.662364137923248	3.7133017339960546	7.230682291516579
O	8.258046794364468	3.7567886799429946	6.861704391126869
O	7.7418189084470015	3.0992109721420857	5.738880317179774
O	6.45458950003893	2.5603139882942667	5.714106444872286
O	5.496596758663526	3.475845077587187	6.142367342153901
O	5.901404990892441	4.265769715659987	7.170223173594633
O	7.206988592891806	4.20389154647741	7.602745829621186
O	7.611538945914069	4.2290120888773295	8.950770340367306
O	6.416633747206273	3.201378522593666	9.698743443802888
O	5.060717909387073	3.6229991686330085	9.087799815460237
O	6.359459958139806	3.827604529462726	10.9171388742861
O	6.638502338665572	1.6213296434527695	9.08586500548138
O	8.254133838500788	5.402019458310149	9.45045145610052
O	12.23641089025038	3.6400280800951847	6.106383278341405
O	13.45704903899509	3.0586379048475165	5.949953339306335
O	13.14614420405936	1.7998953865052254	5.520210533404608
O	11.852653372215457	1.5944449751602146	5.3005420977741595
O	11.357890666052223	2.8651020138685777	5.414271932865763
O	10.786114832993926	0.6647582712395663	4.957752749016323
O	9.585919004033109	0.5864528014244961	5.678942384655222
O	8.430248689399942	-0.018972478946947646	5.189458396902476
O	8.343419608224895	-0.1391731317074889	3.8307063370522947
O	9.584769582619433	-0.49430470867559606	3.3157646633744466
O	10.621619700876517	0.32227459694545724	3.661276982349011
O	12.713506490571394	6.625097564491106	8.07415048569001
O	12.533130416177857	7.786178873111964	8.178852816260271
