19

O	12.83871092708793	5.472770705891001	5.366204024544267
O	8.246165868197998	3.0309843179495566	7.129712268287844
O	9.58200651155125	2.7427262716051075	7.579433579694716
O	8.030027140579712	2.453151896487387	5.861058636927871
O	10.119310388300953	3.3467173594805253	5.5820758388158165
O	12.897838225329629	4.8697559099787355	6.654363901135213
O	10.574576193004548	2.454450644075272	6.686238985998315
O	9.066123790115778	2.6977099938409044	5.003268626131006
O	12.080458005867124	3.9644124772695877	6.9316162224761175
O	11.143465597630133	5.436767362340879	8.433217127807302
O	9.57822608083564	1.7218634225828593	3.9322404676453324
O	13.557682378849272	5.388484497973025	7.686660989862285
O	10.848801149402867	4.535784789099369	7.355042095236017
O	12.038187948686252	2.648418836586347	6.5411152516869695
O	12.401064777900155	5.843020394327324	8.498766045575154
O	10.249512219796138	6.290476124802705	8.746635586380997
O	8.561528959139963	0.9442597767918777	3.8799359673456184
O	10.350659430496414	2.491278679135941	3.177204096647328
O	10.579867589161625	0.8121060499407786	4.095760420945622
