31

O	6.257358761183838	4.332680850751986	7.374728725148388
O	6.085452140306115	6.822741160645622	7.78949651188862
O	3.941728284308998	6.474050879655861	9.143537420153155
O	6.33686733129422	3.5525461157536475	5.19999014955149
O	7.168153223949796	4.318169681298613	6.0354103361687175
O	7.233052713030136	2.30844819684976	5.181712833944003
O	8.450731323565172	2.850809159937729	4.702759352640353
O	7.454431546970127	1.946034694134584	6.625222849733759
O	6.7579169833003085	0.8074680753139178	6.954324961813898
O	8.940495976657926	1.7777339835269963	6.719488677331395
O	9.121697622612574	0.39998133215749654	6.50551662796133
O	9.469428882602774	2.4802042412234533	5.508381195236312
O	14.471508819395417	3.810736029789876	6.043288843854548
O	5.193726159145024	3.347734463323364	7.54678322558826
O	7.434553224814385	6.732185518806152	8.176785589769294
O	3.649769167445333	6.716471594296863	7.654181114846998
O	13.938294672804584	2.8397542204077078	5.33885026141483
O	7.254967543910982	4.663816247949582	8.614543467443115
O	5.256139583880068	8.135916221100512	7.437305100645986
O	3.2419814399577565	7.879598995638027	9.491887660335387
O	12.642516977215003	2.5619666840245663	5.301349453463251
O	5.346379762177988	5.621312768454791	6.944452000609875
O	5.538975235878116	6.169204402243995	9.29202120052395
O	3.4373516314490047	4.999700018000324	9.351099279309253
O	11.807373747937305	3.4003093873083836	5.891339812610346
O	12.342593219169686	4.424644463575731	6.642756721675121
O	13.700160833218389	4.595471305134658	6.784020352300197
O	14.336606957558033	5.643622703329276	7.468840875783297
O	11.32419931005651	5.143992647310568	7.072649036749625
O	10.204782091354577	4.4782691438070685	6.673896298757957
O	10.467049789378152	3.4350779740371413	5.890651398204355
