89

O	1.180745931926316	1.6373416511403511	-0.7575098359228069
O	3.131581730926316	-2.528998048859649	-0.01932732912280688
O	1.7175839409263163	5.941142261140351	-2.678725003122807
O	0.6027723769263162	3.9152247811403513	-1.8681237031228068
O	0.6443029009263161	2.9520938811403514	-0.6211816271228069
O	2.535235950926316	1.657555321140351	-1.399092293122807
O	3.797011840926316	-3.796978988859649	0.544729136877193
O	4.085165870926316	-2.2231447988596487	-1.0565383261228067
O	5.174909440926315	-0.3294148688596489	-1.8453770131228069
O	1.8812049809263163	3.6537682711403514	0.009955350877193125
O	3.001477340926316	2.9421145511403513	-1.9989772631228067
O	5.1862033409263155	-3.1380730688596485	0.42572824687719313
O	5.055040550926316	-3.1588292088596486	-1.7151367661228067
O	2.948291890926316	4.013972201140351	-0.9631592901228069
O	1.0727096859263163	0.03418924214035113	-0.5035673291228069
O	1.7559981609263162	-2.480047958859649	-0.02771184112280689
O	0.9620420199263162	5.264151391140351	-1.611509641122807
O	-1.0290082490736838	-0.8963096088596488	0.5865208668771932
O	-0.8434650490736837	4.0372457111403515	-1.8662857531228068
O	5.117761990926317	-1.2875710288596487	-0.8207854037228068
O	5.821261080926316	-3.948712868859649	-0.7086176226228069
O	7.654057820926317	-2.503611508859649	-1.3838276581228068
O	7.649985990926316	-4.846998368859649	-1.7862876931228069
O	8.418816760926315	-2.602614538859649	-2.693007303122807
O	9.052513830926316	-4.709667998859649	-2.270443833122807
O	7.178679080926317	-3.783564428859649	-0.9621011261228068
O	9.520075120926316	-3.4206137888596486	-2.3968162931228068
O	-0.20220755707368382	-2.4855117888596485	1.454036886877193
O	0.9934470589263162	-2.0331273688596485	1.036470976877193
O	1.1227896069263164	-0.6906963788596489	1.268059606877193
O	0.11715827662631621	-0.21396623685964888	0.5088278368771931
O	-1.3390011490736837	-1.5867994188596488	1.717492806877193
O	2.850744150926316	-3.2711390288596487	15.845821476877193
O	4.711458150926315	-1.1881755988596487	13.270265176877192
O	6.695847410926316	-3.1344500988596486	10.682811776877193
O	9.133293520926316	-2.102078938859649	7.975626896877194
O	8.860032370926316	0.9131461481403511	5.711427216877193
O	7.140791400926316	0.2858326801403512	2.463026956877193
O	7.219622390926316	3.7851690511403513	0.9113445768771932
O	7.277770070926316	7.546506031140351	1.4530587668771928
O	4.153606820926316	9.690888001140351	1.644670616877193
O	3.701259690926316	13.413706371140352	1.251235586877193
O	5.936523940926316	10.856726871140351	6.046380456877193
O	6.907753270926316	7.186808291140351	5.789962026877194
O	4.4092902509263165	4.473088851140351	5.254005966877194
O	4.937420710926316	1.1782094401403511	6.998212126877194
O	3.3310578609263164	-2.1745524088596486	6.999476116877194
O	2.3719635109263164	-3.7263774788596487	10.233159576877192
O	-0.10747649507368379	-5.766871158859649	12.246567276877192
O	-2.3141050090736837	-3.1761598188596487	7.881411516877194
O	-0.5940364430736838	-0.2104034728596489	6.3147570968771936
O	0.2874790091263162	2.7634573411403514	8.479122126877192
O	0.6167471689263162	6.265296271140351	7.079228706877194
O	-8.170227769073684	0.03730559214035112	-0.15906270412280687
O	-10.241827499073684	0.3672343351403512	2.994173196877193
O	-9.646034069073684	2.7559962411403514	5.903724816877194
O	-5.259139449073684	1.3886629161403512	6.122315796877193
O	-5.917451149073683	-2.1290463888596487	4.757788636877193
O	-2.6980821890736837	-3.8403158088596485	3.6305313568771926
O	-2.2889560290736837	-4.9539988688596495	-0.030320376122806914
O	0.36600213892631617	-7.45623336885965	0.7814274968771932
O	2.011246880926316	-7.914539748859649	-2.501330793122807
O	2.627959370926316	-4.318854448859649	-3.017486773122807
O	3.030786170926316	-2.105630338859649	-6.041894603122807
O	1.5778564909263162	-3.2417756088596485	-9.278055053122808
O	4.386484570926315	-1.9075268688596485	-11.495438423122808
O	7.047742460926317	-3.8714027188596485	-9.617401703122807
O	4.738593120926316	-6.8989439688596494	-9.432057543122808
O	-0.2699162390736838	1.9668985211403514	-12.450895723122807
O	1.8983078909263162	3.615068681140351	-9.755590003122807
O	-1.301908699073684	4.059929901140351	-7.758342973122806
O	-2.4296090990736836	0.43619530914035115	-7.971149943122806
O	-1.5068557190736838	-2.258601398859649	-5.465071283122806
O	-1.7172702190736837	-6.04948487885965	-5.350625673122806
O	-3.588674789073684	-7.821852418859649	-2.516443493122807
O	-2.895034319073684	-11.18129352885965	-4.092898673122807
O	-2.1875228490736838	-12.455654728859649	-7.586574433122807
O	-5.895094959073683	-12.501320928859649	-8.412584193122807
O	-6.752945729073684	-9.08815788885965	-6.944596723122807
O	-5.599731019073683	-5.518352578859649	-7.534512233122807
O	-6.908079379073683	-2.3985998688596486	-5.791610073122807
O	-6.720218199073685	1.3863899471403511	-6.156206443122807
O	-4.373981889073685	2.7839926011403513	-3.635305773122807
O	-4.686379149073684	5.397204321140351	-0.9497967801228069
O	-6.006203459073683	8.61817465114035	-2.5976003131228067
O	-3.847475879073684	10.931067571140352	-0.5099810971228069
O	-0.7644618060736837	8.90923356114035	-1.3416053401228067
O	-1.8458577190736838	8.931304991140351	-5.016754413122807
O	-1.6930835790736838	12.718299871140351	-5.3103397931228065
