89

O	1.4415723249374999	-1.6212635747500006	5.113800495446429
O	0.7293926629375	-1.5667286447500006	3.8893146454464285
O	1.4915232649374999	-1.1256350447500003	2.775318075446428
O	2.8355146549375	-0.7390076947500004	2.7563020254464288
O	3.4130658049375	-0.8640119447500003	1.5726898054464284
O	2.7942242949375	-1.6136961747500005	0.6245312154464284
O	1.4250899949375	-1.3326501947500005	0.5417984354464285
O	0.7147804159375	-0.9657306347500003	1.6148174854464286
O	-0.7200567250625001	-0.7572563847500005	1.1518973854464283
O	-1.4899811050625	-1.5388115747500002	2.038494475446429
O	-2.7782516450625	-0.9173862247500004	1.8297258054464287
O	-2.3211539950625	0.20030585224999964	1.3127506954464285
O	-1.0690661250625	0.2817536012499996	2.233562455446428
O	-0.6182430450625	-0.4722336947500003	3.843902165446429
O	-1.7780290450625	-1.1436426347500004	4.0637211254464285
O	-0.012031561062500029	0.7101751806499996	4.415700945446429
O	3.4645326349375	-1.4030387747500004	-0.7055013835535715
O	2.5007542949375	-1.5975868347500002	-1.5878564185535715
O	2.6153422149375	-1.0461039747500005	-2.9505746445535714
O	3.6957113849375	-0.21469000275000039	-3.3017056845535713
O	4.1010828949375	0.3077004702499996	-2.1136336645535714
O	3.8740095349375	-0.16910274375000045	-0.7636059255535714
O	4.1070018249375	0.03635174524999962	-4.707564974553572
O	3.1336025249375	-0.19736616775000038	-5.529568034553571
O	5.079810974937501	0.2968849032499996	-5.657996674553571
O	6.0144199449375	1.3798199242499996	-5.5239037445535715
O	6.5982799549375	0.7516603224499996	-4.201295844553571
O	7.520519084937501	-0.24625134475000032	-4.916253714553571
O	7.9375063749375006	-0.8630310547500004	-3.4571454745535712
O	8.6016769949375	0.2672099392499996	-2.764808494553572
O	8.4506640849375	0.3900209462499996	-1.4123075445535715
O	6.508600254937501	-1.3855609447500006	-5.228905404553571
O	5.696320234937501	-0.7893652147500003	-6.416063904553571
O	-3.2608454050625	-14.28314397475	-6.874443024553571
O	-0.4799902150625	-13.14894397475	-4.540383054553572
O	2.0831067249375	-10.79040557475	-6.077328284553571
O	5.351351684937501	-9.379504574750001	-4.823719444553571
O	6.1077801449375	-8.31599017475	-1.2713006815535715
O	5.5939420049375	-4.7215563647500005	-0.6379347655535714
O	6.611635144937501	-4.27845424475	2.986605475446429
O	6.663560124937501	-5.678026554750001	6.209041375446429
O	3.9873310049375	-5.54083158475	8.605114015446429
O	4.2876651349375	-10.488293174750002	8.505233505446428
O	4.8404164549375	-9.48499577475	4.915208085446428
O	2.3964029749374998	-7.246827854749999	2.9946433554464287
O	2.0148554449375	-8.283072814750001	-0.6760122435535715
O	0.2847100927375	-6.716708064750001	-3.6025140745535715
O	-1.8529630150625	-8.940219834750001	-5.766763264553571
O	-5.007340525062499	-9.347796774750002	-7.789951364553572
O	-8.5246406350625	-10.201100974750002	-6.6773346545535714
O	-5.484975425062499	-4.68293212475	-7.430828214553571
O	-5.3463181450625	-5.52950792475	-3.720982884553571
O	-2.9858020050625003	-5.5907923547500005	-0.8196991335535715
O	-2.6477559950625	-8.689589174750001	1.2809525754464286
O	-1.4553348250625	-8.48765937475	4.843611875446428
O	-7.9975760050625	2.4390041252499994	2.4111001554464284
O	-10.9577387850625	0.08414088424999955	2.2207022654464286
O	-7.3065619750624995	-4.59006154475	1.5077960554464285
O	-7.5722531650625	-1.9929189647500005	-1.2758714505535715
O	-4.209066645062499	-1.3981822447500003	-2.9401134045535713
O	-2.7679687650625002	2.04833198525	-3.307018294553571
O	-0.7963990950625	1.3426010002499997	-6.516094194553571
O	1.8342070149375	4.00482600525	-6.203703234553571
O	2.8799389549375	3.04315867525	-2.7377973145535712
O	4.286907564937501	5.10797386525	0.13765256544642845
O	3.8972385649375	8.835108855249999	0.0877600954464286
O	7.3032301849375	9.78480420525	1.5299127154464285
O	9.1167067549375	7.96636419525	-1.2116324295535714
O	6.6668656749375	9.217770875249998	-3.8139852545535717
O	7.369187114937501	12.75340282525	-2.6528399545535715
O	3.4677504249375	10.737989115249999	6.189873265446429
O	4.7797598849375005	7.15437272525	6.666075265446429
O	1.1743254459375	6.0831270352499995	7.031967725446429
O	-0.0705113000625	7.69987564525	3.8591728554464284
O	-0.22003577206249997	5.95894699525	0.5093302054464286
O	-0.5856247710625	7.01741448525	-3.1251145745535718
O	-3.3849324650625	5.5433805852499995	-5.242300184553572
O	-2.4574218150625002	7.7822442252499995	-8.147629404553571
O	-0.7054985150625002	11.105578025249999	-8.56762596455357
O	-3.9459093350625003	12.962858825249999	-7.829703004553571
O	-5.0430356450625	10.880498725249998	-4.8296485745535715
O	-3.5507891350625003	10.02268297525	-1.4521685025535715
O	-3.1977204950625002	3.731218385249999	5.230718275446429
O	-4.1975638750624995	0.5818662072499996	7.192271785446429
O	-4.3092671350625	1.2810208452499996	10.844259135446428
O	-2.5335377950625	-1.8808339047500005	11.996937835446428
O	0.3958372981375	-1.2797321047500005	9.307287935446428
O	0.3949241244375	2.2258027852499995	10.927351835446428
O	9.065742734937501	13.57171692525	2.571860595446428
