79

O	-1.4054187796166668	-0.6905838394616666	-1.7064385732999998
O	0.46924993038333307	4.3533243105383335	-0.6071842759999999
O	-0.04559012961666675	3.4155217605383337	0.3547295837000001
O	-0.5941970166166668	4.9382509305383335	-1.3262320722999998
O	-1.236939185616667	2.740982820538333	-1.3091884672999998
O	-0.9568620526166668	-0.45890844946166665	-0.37542312429999997
O	-1.2680015796166668	2.831769930538333	0.1785534217
O	-1.4975002456166668	4.005618470538334	-1.7544243232999999
O	-0.9268801436166668	0.7162267575383334	0.052109721700000056
O	1.367700400383333	0.5278855095383334	0.05619150770000003
O	-3.015671589616667	4.222880170538334	-1.8523004033000001
O	-0.29274147561666686	-1.3548479794616666	0.3500747407
O	0.2729311603833331	1.3545355675383333	-0.36711467929999997
O	-1.9425271816166667	1.5423289165383334	0.4669992797
O	1.053941250383333	-0.7309995994616667	0.3163017977
O	2.5035345803833335	0.7340653345383333	-0.48563228129999997
O	-3.0286638496166667	5.503294970538333	-1.8142823933
O	-3.4149092996166672	3.190759570538333	-2.5831008933
O	-3.926780969616667	3.9352545705383335	-0.8802745933
O	-4.872185789616667	-11.552379169461666	-9.899234293300001
O	-6.658401139616666	-5.815459589461667	-10.9764927133
O	-5.809766989616667	2.7050006405383336	-9.1763570033
O	-5.085209359616667	3.7412737205383335	-5.7688111233
O	-1.8594425256166667	5.963979140538333	-6.4096121532999994
O	1.280106450383333	6.6020956905383335	-8.3640659733
O	4.564679330383333	5.001687050538333	-7.551793433299999
O	8.017819420383333	5.985664690538333	-8.6811230033
O	7.799756840383334	3.225008690538333	-11.333689813300001
O	4.086365770383334	3.3251874405383335	-12.144422413300001
O	0.5088741503833332	3.1268789705383333	-10.9123280133
O	-0.4837514156166668	1.2411647054383335	-7.7968001233
O	-3.7809085096166672	-0.6495731494616666	-7.9202227833
O	-5.879299209616667	-2.443529859461667	-5.3451700333
O	-7.161313099616667	-5.834722179461667	-6.3940532633
O	-7.922839089616667	-9.436203469461667	-5.4832658133
O	-7.2981347696166665	-8.168423709461665	-1.0140694893
O	-3.971962149616667	-7.039557539461668	-2.4080718633
O	-2.1046899596166666	-4.130461749461666	-3.7341077833000003
O	-0.3195946706166668	-4.231005819461667	-7.0403224833
O	2.6593372503833335	-2.0079286394616664	-7.7744995733
O	3.0977624803833335	-1.8847027094616668	-11.5528542133
O	10.092858740383333	-6.029941769461667	1.8624308567
O	4.620710490383334	-3.4681869894616666	8.2710747067
O	2.9534202303833332	-4.388268009461667	4.992189836700001
O	3.7393026003833336	-7.862474949461666	3.7701733166999998
O	5.039058300383333	-8.945163269461666	0.3535300077
O	2.665811000383333	-11.533683069461667	-1.0914344953000001
O	1.9171183903833333	-8.032509869461666	-5.1361978133
O	1.600037950383333	-6.510418959461667	-1.6513149233000002
O	-0.8305919976166668	-6.969127649461666	1.2845319267000002
O	-3.6807843396166664	-4.426805829461667	1.0010178967
O	-4.303240379616667	-2.0056391894616663	3.8311085067
O	-7.974364759616667	-1.7071626494616667	3.0381487366999997
O	-8.759884689616667	1.6860133775383335	4.556269646700001
O	-6.007372749616667	3.505619010538333	2.7403795566999998
O	-3.8123709996166673	6.4657428705383335	3.7954803066999996
O	-3.490828299616667	7.518677990538333	7.325149676700001
O	-3.4604475196166664	11.285956730538334	6.6568642667
O	6.135202120383333	10.288784390538334	7.996971556700001
O	2.343004730383333	9.976531070538334	8.2301074467
O	2.2217313003833334	9.883077080538333	4.3897466367
O	4.048513700383333	6.516888150538333	4.7398470867
O	1.503959400383333	4.982251530538333	7.137695416700001
O	-1.6262279406166669	3.0661170205383335	6.033788796700001
O	-4.775936519616667	1.8263815325383335	7.694845786700001
O	-5.728432079616667	-1.8627326594616667	7.5967820867
O	-8.716489489616666	-1.2416514094616666	9.8868972867
O	-7.6951009096166665	-0.43277287946166654	15.1194960867
O	-4.575021919616667	-1.1299571294616666	13.031102686699999
O	-2.0420137806166667	0.9778682905383334	11.155883186699999
O	1.0315285103833334	-0.28210961946166657	9.3248084867
O	4.185454140383333	1.1078615893383335	7.7051876667
O	3.5604697703833335	1.3626715565383334	3.8400653467
O	5.776969710383334	-0.12363616946166656	1.1272723367
O	9.426070340383333	1.0349178815383333	1.5821674767
O	9.944965640383332	1.6189153585383333	-2.1261128133
O	6.866725490383334	3.7065488805383335	-2.3867105133
O	7.875141360383334	5.546101030538333	0.7805744366999999
O	11.123851440383332	6.871323570538333	-0.7784511382999999
