35

O	9.49487883912728	4.206882649950186	7.030247219499242
O	12.800960499699208	0.7823864396947027	4.083557738526029
O	7.746226816944481	5.459891212784327	7.704118903072718
O	8.221454144337764	4.783341233344162	6.408269777615486
O	9.612635619038914	2.815898056589811	6.320845017912214
O	13.79223076194057	0.42576317055386603	2.9746554218169914
O	11.96780292129129	-0.35337579414041764	3.8395107414266976
O	9.596938464137045	-0.16263047446398815	3.638991649251701
O	5.782117910368079	4.359675731012175	8.065735451363373
O	12.648999533191308	0.1419036323312004	1.9647759714736095
O	12.379241867822843	-1.6258847418135653	3.184051082738659
O	7.664432562971985	3.099764142065957	7.61353452503665
O	7.313728309276805	3.597542594642482	6.275812109273813
O	9.007832100104624	2.870091743700677	4.909197847367047
O	10.346277681716353	5.157008273962123	6.669138337769822
O	13.235605333143528	1.484461090610253	5.187977518551854
O	7.215695858403352	4.3126896966062205	8.36285647209662
O	8.771978645738185	6.125128621249821	8.347424718038406
O	10.803408962686202	-0.24947871759375984	3.032330369919279
O	12.82510270163107	-1.3702721006973402	1.8047628594119427
O	7.546920128711195	2.559198818145174	5.260648172900036
O	11.024924911920383	-2.8342190719044904	1.6324186792618054
O	13.010685256127713	-3.2175838746625987	0.5254533500645895
O	10.102442397595764	-3.382973631333436	0.595282780593605
O	12.220267102176635	-4.44998819057608	0.255887760162369
O	10.216721569502205	-5.557289988139707	-0.17783207097007825
O	12.089419973254323	-2.163943862762694	0.9578294020595557
O	10.885872067088812	-4.263066828251648	-0.2214018069735948
O	12.221154865961081	5.816668779306892	8.308445563476049
O	13.697608483246288	3.834406551699348	5.859846774439387
O	12.895235656063539	2.838022311276785	5.227858299801205
O	11.588935166071703	3.2720193889240017	5.5875146817592025
O	11.535121531379941	4.537835765546797	6.2637232047152445
O	12.183284010275976	4.272158803986238	7.607277673584351
O	13.339304610059544	3.451621846521648	7.161078157683439
