88

O	2.4805937948140353	-0.8179708876649118	1.823684246807017
O	1.2030598948140352	-0.6879163856649119	2.322801186807017
O	0.12503137781403528	-0.8907260066649119	1.5315428968070168
O	0.26336261481403533	-1.1270242926649119	0.19967418680701687
O	-0.8029859900859647	-1.1199555876649119	-0.7847919741929831
O	-0.31958498918596473	-0.7869867846649118	-2.126365256192983
O	-0.9516464621859647	-1.344367486664912	-3.3095677131929833
O	-0.2768221661859647	-2.1624222766649117	-4.223368623192983
O	-0.5650425501859647	-2.154237866664912	-5.588962003192983
O	-1.9293742151859647	-2.284813866664912	-5.835748713192983
O	-2.720916935185965	-1.622886556664912	-4.952770453192983
O	-2.155239315185965	-1.015343359664912	-3.8544292531929827
O	-2.522662145185965	0.24784297233508815	-3.353607063192983
O	-2.7289406551859647	1.165457893335088	-4.822867073192983
O	-3.509555865185965	0.24259841633508814	-5.786451073192983
O	-3.729469825185965	1.997725983335088	-4.391373753192983
O	-1.1973979521859648	1.2930901033350881	-5.5708557631929825
O	-3.2441873151859646	0.3125343923350882	-2.123252581192983
O	1.5911888548140354	-1.389205446664912	-0.15623582319298301
O	2.738368254814035	-1.1118559016649119	0.521627736807017
O	3.6715595748140353	-1.0295085516649118	-0.4724277431929831
O	3.2182474848140354	-1.334202786664912	-1.6829037641929832
O	1.9758188448140355	-1.824923156664912	-1.3864943955929832
O	3.4679790348140354	-1.419820066664912	-3.114556723192983
O	2.576430144814035	-0.9156491116649118	-4.072506873192983
O	2.6029428348140353	-1.279224216664912	-5.417430083192983
O	3.2152563948140354	-2.4662394166649118	-5.707708683192982
O	4.358957444814035	-2.601232306664912	-4.929275673192983
O	4.1747602748140356	-2.471253766664912	-3.583758793192983
O	-1.1606013591859647	-0.7687724896649119	2.0916701768070167
O	-2.1500555651859647	-1.1763505736649118	2.588126006807017
O	3.376469314814035	-13.354584466664912	5.670170126807017
O	3.2359784348140352	-10.722396866664912	-2.7204394831929832
O	3.3517325548140353	-7.006595696664911	-3.4492288831929834
O	0.31270415481403524	-6.771948976664912	-5.656298763192983
O	-3.224207365185965	-7.763777166664911	-6.444564253192983
O	-6.326564445185964	-6.3276589266649115	-4.827030453192983
O	-9.957320455185965	-6.439834246664912	-5.871209513192983
O	-10.487804895185965	-9.272142216664912	-3.320871753192983
O	-7.078867615185965	-10.972407866664913	-3.5198782631929832
O	-3.3166163851859647	-10.755031966664912	-3.218917003192983
O	-1.6109774251859648	-8.180194226664913	-1.0565097921929831
O	1.5115853448140353	-9.300220346664913	0.7640439368070171
O	4.139727944814036	-7.515967486664912	2.7526677868070175
O	5.0710972648140356	-9.132910976664913	6.068237386807017
O	3.0479075248140353	-4.523947376664911	7.535859246807018
O	0.9272167848140354	-4.967560576664911	4.413200126807017
O	-1.6457307141859647	-7.754747076664912	4.459198436807017
O	-4.729856895185964	-7.5360311766649115	2.2277900868070173
O	-9.318780825185966	3.491525493335088	6.927626036807018
O	-2.2357852951859645	8.266193223335087	4.7329183568070174
O	-1.5455063751859648	4.581953413335088	5.387229516807017
O	-2.710952325185965	3.447030603335088	8.787192866807017
O	-4.886204135185965	0.4525520563350882	9.663282766807017
O	-3.010657185185965	-1.709770986664912	12.177011266807018
O	-3.342996595185965	-5.6146461866649116	8.440025246807018
O	-2.125555005185965	-2.234657306664912	7.162910486807018
O	0.9849540648140354	-0.11931612976491185	7.598803396807018
O	3.7673923748140354	-1.0147665056649118	5.137759196807017
O	5.160524414814036	1.6502282733350881	2.864181396807017
O	8.569040884814035	-0.030367177664911843	2.5681052768070174
O	9.731949724814035	1.455672033335088	-0.737471884192983
O	6.584193194814036	0.5411444193350882	-2.655051813192983
O	4.868252844814036	2.408465993335088	-5.481804633192983
O	5.479850274814035	5.944673433335089	-6.298797733192983
O	5.320201404814036	5.577507853335089	-10.104867083192984
O	7.943329154814036	2.828819653335088	-10.156181123192983
O	-3.5192697151859647	9.388749593335088	-8.977655963192984
O	0.15788563081403528	8.504424303335087	-8.649051103192983
O	-0.7784956265859647	4.797093463335089	-8.845106363192983
O	-2.4251405851859644	5.3557043633350885	-5.434741543192983
O	0.5639291948140353	6.728735003335088	-3.7671817631929834
O	3.2275791748140352	4.803074813335089	-1.930043393192983
O	6.7172578948140345	5.544538803335088	-0.614341450192983
O	7.531171104814035	4.918459973335088	3.046801526807017
O	11.031817224814034	6.381490293335088	2.617134196807017
O	11.469481224814034	11.745326633335088	2.205541686807017
O	7.893284854814034	10.517769733335088	2.7290899968070175
O	4.999412654814035	9.551266053335087	0.4775816068070169
O	1.538419454814035	8.437779153335088	1.580434796807017
O	-1.9115479551859647	7.901804603335088	0.119393376807017
O	-2.449415525185965	4.154008363335088	-0.28387983319298304
O	-5.392730955185964	2.087974823335088	1.0422553768070169
O	-8.699642435185964	3.4927828833350882	-0.15111863319298302
O	-10.253336245185965	0.12431920233508817	-1.0150223741929831
O	-7.204054355185965	-0.8111148516649118	-3.094109343192983
O	-7.461190465185965	2.699608793335088	-4.696196413192983
O	-10.865138275185965	2.0519194833350882	-6.178874903192983
