95

O	-0.6408292791428566	-2.8855378680253967	-2.045796684269842
O	0.18073070585714346	-2.3390839180253966	-1.1550261682698417
O	0.8838378858571436	-3.3823012380253963	-0.7210556722698417
O	0.44427110585714336	-4.6576729580253975	-1.1568786712698418
O	-0.6147408971428565	-4.147214458025397	-1.8505695562698417
O	-0.27300173414285656	-1.3560342480253968	-0.42459977126984166
O	0.3810437858571434	-0.1839604510253967	-0.8218876681698417
O	0.8766041558571434	-6.081647508025396	-1.0418320852698417
O	1.2478674958571434	-6.695308578025397	0.29859813573015825
O	2.1356419058571436	-6.608802008025396	-1.4982743532698417
O	0.09822069585714344	-7.168548188025397	-1.6991836312698416
O	-1.4525847161428564	-1.8328404280253965	-2.4776409942698416
O	-2.495400584142857	-1.0476026580253968	-2.1769751342698416
O	-3.1370962641428566	-0.5234077280253966	-3.3442532842698416
O	-2.704618414142857	-1.2885611080253967	-4.473955654269842
O	-1.3408039745428566	-0.9944093680253967	-4.601120354269842
O	-0.7313970441428566	-0.9383523580253967	-3.3041021842698415
O	-3.6616365841428564	-1.3039967980253966	-5.577286784269842
O	-0.39097329314285656	0.4138344289746033	-1.5692769532698416
O	0.4975385458571435	0.7600586152746034	0.31082248573015836
O	-0.5022181011428566	1.8156998319746034	0.4212362757301583
O	-1.6858892771428566	0.9379271849746034	0.3311561657301584
O	-2.8987420341428565	1.4153081879746034	0.04022510573015836
O	-2.6845761941428563	2.7147594619746034	-0.30204444526984164
O	-1.7458914291428567	2.8530420819746034	-1.2596619402698417
O	-0.5174591091428565	2.3662868519746034	-0.9101488657998417
O	-2.8910659241428567	3.8614730519746034	0.7177489157301583
O	-3.8557450041428565	3.8569232719746034	1.6458708957301584
O	-4.056145064142856	4.886224931974603	2.5236337357301584
O	-2.9042296841428565	5.518715481974603	2.9861246257301586
O	-1.7378365991428566	5.262714001974603	2.3362569557301582
O	-1.8721168601428566	4.745598231974604	1.1187347257301585
O	-9.654643414142857	6.959229311974603	-0.2932864302698417
O	-11.304976274142858	4.241645421974603	-2.349125274269842
O	-9.550008884142857	1.0298007229746033	-3.2436868642698418
O	-11.103987284142857	-2.1780433380253967	-4.405492784269842
O	-10.041117424142858	-1.2185421680253967	-7.977311864269842
O	-10.529955614142857	2.5238280919746034	-7.797664324269841
O	-6.467262784142856	6.306605791974603	-4.336828964269841
O	3.2941386158571433	9.653119221974604	-3.2771165642698414
O	0.11959340585714351	7.668906811974603	-3.2139664142698416
O	-1.4220421621428565	6.649521521974604	-6.511874794269842
O	-3.644318854142856	3.5832711019746033	-6.627526914269842
O	-5.779725574142856	3.8949785719746033	-9.744549604269842
O	-7.893996044142856	1.3416272689746034	-11.551039534269842
O	-4.289879974142856	-4.857892998025397	-9.851913414269841
O	0.014031705857143528	-8.033697858025397	-8.869173194269843
O	-0.6157442851428565	-5.857641818025396	-6.071480974269842
O	2.6143183958571434	-3.7599824480253967	-7.055924104269842
O	4.761636295857143	-6.866555588025397	-7.189227444269841
O	3.905992945857144	-8.048494398025396	-3.9341268342698417
O	5.180345595857144	-4.599455928025396	-2.2900490842698416
O	8.209604305857143	-4.889889648025397	-4.2238318042698415
O	9.156716335857142	-7.985321408025396	-2.1174328342698416
O	9.389801235857142	-5.962414838025397	1.1130094457301585
O	11.835326235857142	-3.314267278025397	2.4338103257301587
O	11.110502235857142	-2.0365473580253965	5.925425625730158
O	7.406454825857144	0.6477561251746033	8.817252375730158
O	5.950325965857144	-0.7570365580253966	5.7856622157301585
O	4.984716535857143	1.4537331249746033	2.8700371657301584
O	7.3379018958571445	1.2861384629746033	-0.10041277226984169
O	6.5805525358571435	0.8147592389746033	-3.8226503842698416
O	7.971485795857144	3.6357821419746035	-5.844668394269841
O	6.842890305857144	2.3481322319746036	-9.262971814269841
O	4.110600245857143	1.6637413139746033	-11.845316634269842
O	-1.5937334381428565	3.586894651974603	-11.89053083426984
O	0.6246087458571434	2.2022573719746035	-9.131242304269842
O	2.8775568858571434	4.683961221974603	-7.382515334269842
O	3.532973955857144	4.164375931974604	-3.696225244269842
O	5.071164795857143	5.951081151974604	-0.7643973522698417
O	2.7191591258571437	8.415887371974604	0.8127286857301582
O	2.122695345857143	8.388565181974604	4.493492035730158
O	1.4968158458571434	12.107713021974604	4.709504515730158
O	-3.0867639341428568	9.657457391974603	6.661734635730158
O	4.270311635857143	-2.145891188025397	13.893066265730159
O	7.440544805857143	-4.7126382980253965	10.735000265730159
O	-0.6700568511428565	-10.993736678025396	6.690825475730159
O	-4.273974504142856	-11.808809278025397	7.657877695730159
O	-5.474383464142856	-8.241530958025397	7.947757815730158
O	-3.7415418941428564	-6.623677928025396	10.887441365730158
O	-6.0038830541428565	-3.8203776280253963	12.090613965730158
O	-7.593885764142857	0.7057364123746034	9.709191965730158
O	-4.588505304142856	-0.6426276080253968	7.819545215730159
O	-2.0268890411428564	1.5113791349746033	9.598581665730158
O	-0.9732402311428565	4.918048161974603	8.296721845730158
O	4.021431875857144	9.156692631974604	7.969979535730159
O	3.6061646658571433	2.161517641974603	8.862716545730159
O	1.6805120058571437	-0.8142634280253966	7.7450681457301584
O	-0.3981996781428565	0.23390675997460336	4.872673055730158
O	-1.0777436661428565	-1.1281340080253968	2.0422345957301586
O	-2.0459917631428564	-4.900910338025396	1.9064072957301583
O	-4.511422104142857	-5.046734588025396	-1.4481589032698416
O	-5.903044094142857	-1.8603804080253967	0.13737939573015823
O	-6.063893454142856	-3.6822212480253964	3.501150355730158
O	-7.916064294142856	-6.7603333080253964	2.1348304957301583
