85

O	-3.3702521147068962	3.4972308710689655	1.0279184878655174
O	-5.6528828247068965	2.9155647210689657	2.4673053378655174
O	-3.115036454706896	5.256054451068966	-0.6990519060344825
O	-3.118605534706896	3.902543741068966	-0.5393525010344825
O	-1.7381006577068958	5.499644821068966	-1.3301701091344826
O	-1.4684356397068958	4.4202009110689655	-2.1985686321344824
O	-0.7791991577068959	5.255267041068965	-0.15167480213448253
O	-0.6279460447068959	6.522814051068966	0.43302780786551753
O	0.4626034352931041	4.876656021068966	-0.9620174771344825
O	0.8292945352931043	6.133564741068966	-1.4881221261344826
O	-0.1588484747068959	4.064841811068966	-2.0644495321344825
O	3.080782445293104	0.23975608106896562	-3.2226683121344823
O	-3.3379344847068957	4.577502331068965	2.0215299178655175
O	-4.675016864706896	3.5410526210689657	3.378546157865517
O	3.007903935293104	1.4549274640689656	-3.7495477421344825
O	-2.4367435147068957	2.1732933930689655	1.2977602878655174
O	-6.378983714706896	1.4318340620689658	2.3678628078655177
O	2.164131305293104	2.380213850068966	-3.2998996321344825
O	-4.953049654706896	2.9964712710689656	1.0093685678655175
O	-6.908479864706896	3.842012861068966	2.9393594778655174
O	1.2002939352931044	1.9692375150689656	-2.4752044321344826
O	1.172305525293104	0.6464523320689657	-2.0385041121344827
O	2.1532486752931037	-0.27068366893103435	-2.4134495621344825
O	2.2576707552931046	-1.575083198931034	-1.8995555821344827
O	0.1136558152931042	0.5191700010689657	-1.2512841451344825
O	-0.4631181297068959	1.7614678020689656	-1.1881637351344825
O	0.13914179529310422	2.6500327810689654	-1.9769566121344826
O	-3.8842417647068963	4.785657691068966	-10.225549552134483
O	-1.6940349567068957	5.567881041068966	-7.166084632134482
O	-4.459360054706896	6.340189451068966	-4.608480262134482
O	-7.958753634706896	5.643506291068965	-3.3156985221344826
O	-8.694225964706895	2.9214195110689656	-0.7308348333344825
O	-11.753464524706896	2.4273277810689655	1.4772112778655178
O	-12.996339324706895	-0.13476508893103434	-1.0187274111344826
O	-11.714415524706896	1.3760102980689657	-4.262270172134483
O	-8.800004274706895	2.6063921710689657	-6.357705042134483
O	-5.283995294706896	1.3482061740689657	-5.879036542134482
O	-3.086851944706896	0.9319704890689656	-8.910128322134483
O	0.5230998452931042	0.14490394106896565	-9.516375472134483
O	1.2177318552931042	-2.5883138389310347	-12.068866472134482
O	3.0921588352931035	-4.634270798931034	-7.599844472134483
O	0.3141227152931041	-2.593551408931034	-6.020154962134482
O	-3.2538489247068956	-3.6680486789310343	-6.7165199221344825
O	-6.044475834706896	-2.8601226589310342	-4.271234132134483
O	-9.341792464706895	-3.043047678931034	-6.124921012134482
O	-7.417595784706896	-7.154386628931034	4.792480887865517
O	-4.170470414706896	-9.511980508931035	8.003022627865517
O	-1.088946524706896	-8.769353108931035	5.904651617865517
O	-0.44615498070689585	-12.469002108931035	5.415820807865518
O	6.361186215293104	-3.970200648931034	6.124385827865518
O	4.768464175293104	-4.347813168931035	2.6957663978655177
O	4.312870765293104	-7.962345698931035	1.6661219378655177
O	1.146353565293104	-9.624063908931035	0.37080349786551736
O	1.916055375293104	-11.220890208931035	-2.9830216121344826
O	-5.4725132747068965	-7.887563558931035	-3.6479839021344826
O	-1.9050535287068957	-7.945095818931035	-4.972938442134482
O	0.663576345293104	-6.275957378931034	-2.7376945321344826
O	4.346064285293104	-5.423699718931035	-2.9661945421344824
O	5.045632185293104	-2.1213729889310344	-4.695642752134482
O	7.024668815293103	0.5659695710689656	-2.8968208321344826
O	8.382135275293106	2.1328327880689657	-6.098632132134482
O	8.998747675293105	5.6775326110689655	-4.803234082134482
O	5.547747095293104	6.135709831068965	-3.2889094821344824
O	4.372177545293104	8.071217431068966	-0.23230864613448254
O	6.867418535293104	9.199711511068966	2.4097859578655174
O	1.600811765293104	8.106353501068966	10.888406327865518
O	3.8857235252931037	9.265368351068966	8.072648887865517
O	0.8844468552931042	9.024256841068965	5.7299390678655175
O	1.061044135293104	5.244442871068966	6.212967967865517
O	4.719617575293104	4.944276541068966	5.3348896078655175
O	6.007456855293104	4.282368301068965	1.8281951978655178
O	9.379342975293104	4.447553561068966	0.11306597586551748
O	10.829755375293106	1.3945538700689657	-1.6768365221344825
O	14.387262475293104	1.9488870370689657	2.6183458578655174
O	10.970881075293105	2.862041711068966	4.004582507865518
O	8.186056915293104	0.41894747106896557	4.851053957865518
O	4.927021635293104	0.4043049110689656	6.758695387865518
O	2.0707959952931043	0.4819693010689656	4.291811847865517
O	-0.8462269797068959	-1.9414191689310343	4.005929587865517
O	-2.755794444706896	-2.1007174489310345	7.316210177865518
O	-6.294422994706896	-2.071054768931034	5.793157257865517
O	-5.170006234706896	0.49424973106896575	3.8691356478655177
O	-3.8020455147068954	2.5117282720689658	6.958630417865518
O	-7.174507194706896	2.5466158880689655	8.723483067865518
O	-8.300885904706895	6.064680251068966	9.561449627865517
