75

O	-1.067901528700001	3.2329246763833326	-0.6872177349333334
O	-0.49700934470000113	1.9472216363833323	-0.3887856389333334
O	-0.9897930407000012	3.7306397463833325	-1.9832074809333333
O	-1.6839966147000012	4.058335186383332	0.22521228206666657
O	0.35979981929999894	1.2583027243833325	-1.3088548709333334
O	-0.7998247097000011	1.4531101983833326	0.9534029330666666
O	-0.13384564070000127	3.0725854263833323	-2.8068155709333333
O	-1.3787922507000012	4.992466736383333	-2.3702498909333336
O	-2.294544650700001	5.230556846383333	-0.24209693593333345
O	0.848580539299999	2.1309027363833324	-2.4345909309333336
O	0.8234768092999989	0.04754621638333245	-1.1837874709333334
O	0.2735450692999988	0.4417250373833324	1.2258899490666666
O	-2.0210559877000014	5.782678686383333	-1.4580957309333333
O	0.6999208992999988	-0.38754537361666763	0.16972759106666654
O	0.6164839892999989	0.3563480453833324	2.4226179590666668
O	-6.419152760700001	-11.811184893616668	-6.571047060933334
O	-7.775806830700001	-9.484659993616667	-9.208652470933334
O	-8.830802360700002	-6.265713263616668	-7.482817640933334
O	-7.883144580700002	-3.0143336536166676	-9.246853110933333
O	-8.9312934807	2.319786676383332	-5.222815960933334
O	-5.6995302907	3.9568173963833324	-4.0520420009333336
O	-6.914488520700001	5.333827636383333	-0.6975702239333335
O	-9.0957500607	4.946056396383332	2.3674006090666664
O	-8.093564650700001	3.0081992563833326	5.465160809066666
O	-11.3562342607	-0.09230207361666753	8.151327159066666
O	-12.134440860700002	0.4723572583833324	4.4623143190666665
O	-10.862344590700001	1.1760696143833325	0.9663171190666666
O	-7.397390830700001	0.20760989838333244	-0.14902713093333345
O	-7.0198673307	-1.0154926536166675	-3.7139930309333336
O	-4.138834460700001	-1.8771807536166674	-5.950859420933334
O	-4.372933260700002	-5.178128463616668	-7.801862470933334
O	-2.620949060700001	-8.288298663616667	-9.079074790933333
O	-1.713706380700001	-11.499880693616667	-7.296703940933334
O	1.4295585792999987	-6.1428705536166675	-8.084343580933334
O	-0.2085803097000012	-5.868371573616667	-4.670672060933334
O	-2.134998833700001	-3.5994358136166675	-2.3696570209333334
O	-5.342521850700001	-4.865817103616667	-0.8232736199333334
O	-6.611112790700002	-3.459962643616668	2.4590368190666667
O	-10.321190480700002	-4.225891533616668	2.6951196690666666
O	3.7198098292999986	-6.269956123616668	9.524054439066665
O	9.286983939299999	-1.3721275836166678	4.763085539066666
O	6.290369419299999	-2.7264965836166675	2.8487344090666666
O	6.0018591792999985	-6.499175453616667	3.0412620190666666
O	2.9374438792999986	-8.543487713616667	4.010870959066666
O	2.174058079299999	-10.982430093616667	1.1990109390666666
O	-2.609614380700001	-8.466991353616667	0.8577577350666666
O	0.42904490929999883	-6.182557273616668	0.9555585370666666
O	3.324205969299999	-5.379315113616668	-1.3781232009333335
O	2.4585707092999987	-2.5873128636166673	-3.8415054709333334
O	4.5889909292999995	0.5029623633833324	-3.9998365409333334
O	3.898030149299999	1.1614392213833324	-7.701752610933334
O	4.509717369299999	4.934727396383332	-7.768161910933334
O	2.2676723092999986	5.759360296383333	-4.835514520933334
O	2.4550253492999987	8.388241896383333	-2.109580290933333
O	5.718838249299999	10.242180976383333	-1.5096569609333335
O	5.704222839299998	11.444184006383333	8.447781279066666
O	5.992427349299998	11.823103206383333	4.676811689066666
O	2.290751859299999	10.862393956383332	4.377868979066666
O	3.312563949299999	7.385835196383333	5.556720599066666
O	6.0310938592999985	6.921089806383332	2.9682658090666667
O	5.482736749299999	5.344621656383332	-0.4369618319333335
O	7.498951409299998	5.116960366383333	-3.6610009009333333
O	8.298034989299998	1.7091372333833323	-5.195865400933334
O	10.394264839299998	3.3337775963833325	-7.920272710933334
O	13.378718739299998	3.5018594163833323	-3.6664467709333333
O	11.0250656393	4.682128076383332	-0.9367818959333334
O	9.479138639299999	2.5272368463833326	1.7780754590666665
O	7.6447846092999985	2.960589226383332	5.054808749066666
O	3.9497141592999987	2.3064308463833325	4.482496719066666
O	1.6295167492999987	-0.0845485836166675	6.277779099066666
O	1.730479139299999	0.5522113513833324	10.023795709066667
O	-2.0139318487000013	0.12217476738333244	10.544688609066666
O	-2.730481030700001	2.5607835763833324	7.702351599066666
O	-0.11681759070000108	4.916930916383333	9.210155769066667
O	-1.9831606787000011	5.3028387363833325	12.514115409066665
