33

O	8.873861444143532	4.402238406653661	6.144446396336841
O	11.673077108630991	0.19714917823218814	4.316868244069729
O	5.183611598978697	4.490389075749992	8.739993946765876
O	7.121969177359933	4.699920240249752	7.5590302323027
O	8.423699094902936	3.9827875074211474	7.544872698751532
O	8.593279813440672	3.392402991657826	5.062493289365535
O	10.292977629812638	0.543579415434174	4.729225348502096
O	11.924752403045463	-0.6310967879944531	3.13000428194417
O	10.765714638794211	1.1051613689277575	2.473756736241329
O	8.319762738429876	2.4701724845429496	7.249478774302592
O	7.199289331168819	2.7793363947958225	5.189432476885541
O	9.07534960970327	-0.05680491168961943	4.195432249842389
O	10.720008840811422	-1.568051101258325	3.017442890088617
O	6.995511720197845	2.2358143071458167	6.576517314364822
O	10.158419975542337	4.797147307613183	6.346628834591389
O	12.56815120250561	1.2440314653632671	4.7194114600917025
O	6.563977303860781	5.026105035990941	8.881044062966522
O	7.621756559078351	6.0650025809766746	7.36052407358087
O	11.646242189273096	0.10653283593451768	2.0051274418611396
O	9.506861297525868	-0.7261959500932331	2.9254548643377394
O	9.200017513722884	-2.1637337927490954	1.1456627411981284
O	7.3300120712796915	-0.9778649787034155	2.1417704116927307
O	8.138812731350313	-3.184509047317629	0.8311151112103463
O	6.364236840857476	-2.0993881159366214	1.8952048028743738
O	8.632676799742814	-1.5371690058387877	2.270642980410906
O	7.083923773599151	-3.2576584783422566	1.6986879467790388
O	12.253383472974452	5.607195580575221	7.476176973814019
O	12.241955409727339	3.546303531252465	4.790231470147283
O	11.64995453564096	2.3188956749654945	4.779310799283277
O	10.716701498527659	2.502492060760038	5.826447144659502
O	10.892625118981442	3.625348733868133	6.698176663054077
O	12.275973958639243	4.190680529012059	6.6638813818045435
O	13.02125932082686	3.1876273117477187	5.993149024869474
