85

O	6.211978324833334	1.8163724892499995	-3.299995763111111
O	6.814745024833333	-0.5719393807500004	-3.648120086111111
O	5.136548852833333	2.4840094222499993	-2.709752156311111
O	6.469732244833333	0.7507314192499996	-4.233167415111112
O	5.944244964833333	7.388962519249999	0.21877621488888854
O	7.096807084833333	1.5881807692499994	-2.3745426361111113
O	5.455549204833333	0.44577383924999925	-5.334438565111111
O	5.145030420833333	-1.6588309307500002	-2.368132917111111
O	6.374371134833333	0.11521398924999948	-6.526513965111111
O	6.581117414833333	-0.5102704907500004	-0.1630932351111114
O	7.453306054833333	-0.7987959807500005	-5.936873145111111
O	9.150944484833333	-1.1588321007500006	-0.8638756551111113
O	6.7402889948333335	-1.5273160007500004	-4.796601805111111
O	8.019531224833333	-2.8082928307500006	0.27483561488888864
O	6.273221064833333	-1.0460909707500003	-2.4049450341111114
O	11.134586654833333	-1.6579112507500002	-2.3384392701111114
O	6.940340654833333	-1.1898169007500008	-1.1275613451111113
O	11.262038264833333	0.9324008492499996	-1.4154180251111113
O	8.134033474833334	-2.0563073907500002	-0.8639965051111111
O	9.247494934833334	3.0946497432499993	-3.8540257351111116
O	8.495759324833333	-2.9723804907500004	-2.006303023111111
O	5.5788437648333336	3.4949475472499993	-6.263859135111112
O	9.100488334833333	-2.3166038507500004	-3.252992806111111
O	1.789288254833333	9.23993050925	-4.738354325111111
O	9.995997364833332	-1.1127321807500006	-2.962578906111111
O	0.7064806548333333	7.603015099249999	-2.7819772931111113
O	9.261777944833334	-0.3255885907500007	-1.9465420181111113
O	9.893793044833334	0.9023608692499994	-1.2766588451111112
O	9.360375784833334	1.0830500692499994	0.11172170488888877
O	8.373009744833332	2.0977211872499995	0.48930701488888895
O	8.698621804833333	3.5303435542499995	0.23839794488888888
O	6.343577564833334	6.577203119249999	-2.0885451811111113
O	7.561270814833334	4.06428370925	-0.6396793251111115
O	7.973500224833334	4.730527439249999	-1.6699645681111113
O	7.779280944833333	4.8457364492499995	-3.0988547351111113
O	8.464569344833333	3.9927414192499997	-4.076118075111111
O	7.633191414833333	3.6223186732499997	-5.290236105111111
O	6.227188404833333	3.4230011862499996	-5.052464405111111
O	4.929085634833333	8.204645629249999	-1.6500813451111112
O	5.5895314948333334	4.268349349249999	-4.071768905111111
O	4.9408038408333335	3.849733069249999	-2.867332985111111
O	3.775103022833333	4.62820681925	-2.6184196529111112
O	3.171830315833333	5.19965005925	-3.6794118751111116
O	2.0095429148333332	6.06013950925	-3.743457995111111
O	2.288220284833333	6.984998009249999	-5.008354335111111
O	1.215569324833333	8.02540627925	-5.048989345111112
O	0.1393605348333331	7.66676689925	-4.088644825111111
O	-0.4324705851666666	6.299122769249999	-4.196938745111112
O	0.7666482848333334	5.347495959249999	-4.351173425111111
O	7.324626584833333	-3.8225806407500005	-2.406160157111111
O	7.863965424833333	1.8074873392499995	1.8710423248888883
O	6.3036977148333335	4.155013139249999	0.17716959488888895
O	8.198907114833332	6.26908712925	-3.4968425131111114
O	2.832454024833333	10.261119439249999	0.647255484888889
O	1.537313084833333	9.76897614925	0.7877536548888888
O	5.139801517833333	5.458362029249999	-4.870709685111111
O	3.520991141833333	5.323204549249999	-1.3804223951111112
O	11.351913414833334	-2.88479762075	-2.940344702111111
O	11.506793034833333	1.0310855192499995	-2.799068975111111
O	2.285297964833333	9.13374584925	-3.4289616441111113
O	1.356377064833333	8.48966345925	0.2623237248888888
O	2.3040918948333333	7.58072984925	0.7500171848888888
O	3.616995497833333	7.954604649249999	0.7217482948888887
O	3.852387379833333	9.33245790925	0.6075527648888888
O	4.815382673833334	7.186232139249999	1.072816934888889
O	5.935998064833333	7.58578666925	-1.1752444051111113
O	7.023041164833334	7.137058349249999	-3.1877003461111113
O	1.4026994948333331	-0.09790083075000044	-15.042895005111113
O	1.8733842648333332	-0.8530453507500004	-11.364869975111112
O	0.44573286483333296	2.4204638552499995	-10.476757365111112
O	-1.5846658751666665	0.7712828492499995	-7.862829365111112
O	-0.12249713516666727	-1.0225330707500007	-5.049896505111111
O	-1.5400184151666672	-4.51889601075	-6.1175419151111115
O	-0.6285038451666667	-7.93204052075	1.2420633048888887
O	-2.129663155166667	-6.135857390750001	-1.758591343111111
O	-1.2492124951666668	-2.7408377007500007	-0.48393229511111135
O	1.0085328548333332	-1.5775094507500005	2.225721674888889
O	0.9985213248333333	-4.781763800750001	4.296173534888888
O	3.549569307833333	-1.7981840007500005	7.677576394888889
O	1.3757535748333334	0.5074996992499994	6.056384374888888
O	1.173577694833333	4.043471279249999	4.811821264888889
O	2.157669314833333	5.870238789249999	8.065647094888888
O	-0.3847913551666666	8.23791763925	9.312590494888887
O	-3.3118100351666673	6.7227919392499995	7.454700494888889
O	-3.034278385166667	2.8849020767499995	7.014635134888889
