98

O	-3.0859151788484844	-1.6643375057575756	1.405716428454546
O	-4.476476623848485	-1.9757190377575757	1.434173291454546
O	-2.7538610588484844	-1.2652104687575756	2.832155540454546
O	-2.689070088848484	-0.8911382887575756	0.46976038745454596
O	-1.2341979688484845	-1.0795377887575757	2.746258470454546
O	-3.3029918318484848	1.6653214512424244	1.392179769454546
O	-1.0327123788484847	0.3162296512424243	2.193893380454546
O	-5.276331608848484	2.8251452012424245	2.738700770454546
O	-1.3012810888484845	1.3682212012424242	3.315737980454546
O	-5.529622598848484	-0.2999562287575759	3.811219250454546
O	-2.3257312088484845	0.6306609612424241	4.119481800454546
O	-7.074500798848485	1.4313176812424242	3.9235527904545457
O	-3.3444750628484847	0.06285887124242429	3.1840851504545458
O	-7.397275348848485	-3.2393456737575756	5.921402410454546
O	-3.9670707258484845	0.8757260212424245	2.149731597454546
O	-6.830500378848484	-8.363457398757575	2.803428440454546
O	-5.279418958848485	1.5705951212424245	2.4363729604545457
O	-7.237969798848484	-8.271770088757576	-0.0011098195454539717
O	-6.2614530888484845	0.6503464812424244	3.133249390454546
O	-8.254425128848485	-6.382304708757576	1.166169086464546
O	-7.123821408848484	0.13813071124242438	1.983274124454546
O	-1.8947632788484845	-4.2170260387575755	2.949375780454546
O	-8.085119828848484	-0.7965096587575757	2.734722320454546
O	-7.053638108848484	-6.916573678757576	-2.770637279545454
O	-7.122429838848484	-1.8308739457575758	3.330329070454546
O	-4.867887077848485	-6.786769398757576	-5.509626079545454
O	-6.202502508848484	-1.3455067067575757	4.380734210454547
O	-5.436077438848485	-2.4785880917575756	4.951421900454546
O	-6.047916068848485	-3.4092100887575754	5.942938550454546
O	-5.508573278848484	-4.806223868757575	5.993981970454546
O	-4.430853452848485	-5.457996768757576	5.529524170454546
O	-3.2855118838484847	-6.116885398757576	6.085766680454546
O	-2.8622771988484845	-7.2586597887575754	6.441209870454546
O	-2.3202800788484845	-8.376380658757576	5.658203220454546
O	-3.0213308188484844	-9.477053518757575	5.804486820454546
O	-3.8189653538484847	-10.178458878757576	4.8147687504545456
O	-4.854697039848484	-9.512380748757575	4.017670670454546
O	-4.660920992848484	-8.968038968757575	2.652729300454546
O	-5.830175288848484	-8.320344488757575	2.035279391454546
O	-6.2914836788484845	-7.639204858757576	0.776081624454546
O	-6.851089488848484	-6.339821858757576	1.174175057754546
O	-6.338851568848485	-5.654381058757576	2.407036380454546
O	-5.093031619848484	-5.466317048757576	2.421655980454546
O	-3.7860875698484846	-5.622782538757576	2.958373770454546
O	-3.0610314488484844	-4.296588418757576	2.696231910454546
O	-3.4451964168484848	-4.115127028757575	1.2505523201545459
O	-4.803888511848484	-3.389807738757576	1.443422596454546
O	-5.5870210288484845	-3.3996505787575755	0.11674416045454605
O	-4.9521779868484845	-4.048705768757576	-1.015599459545454
O	-5.576177648848485	-5.170996708757576	-1.731629679545454
O	-6.060196018848485	-4.845444778757576	-3.143102159545454
O	-6.4314095188484846	-6.186309668757575	-3.7676503295454538
O	-5.204237802848485	-6.988662448757576	-4.183112519545454
O	-4.120461595448485	-6.6137833487575755	-3.217991279545454
O	-4.702594967848484	-6.369551568757576	-1.8613603395454539
O	-8.040018848848485	1.2488714712424245	1.4750894244545458
O	-6.665314408848484	-5.811136748757576	6.160166030454546
O	-4.656120359848485	-11.166684248757576	5.725278040454546
O	-3.5805422338484845	-9.479998328757576	1.7949506004545461
O	-7.347180318848484	-4.794179958757576	3.225859490454546
O	-2.7247810488484845	-6.586883638757576	2.859881940454546
O	-7.052510408848485	-3.3779617987575756	0.31292075345454595
O	-8.316249608848484	-4.151821068757576	6.355718280454546
O	-8.232267658848485	-8.846007698757575	0.7741561924545459
O	-8.374264768848484	-7.136802008757575	-3.192586509545454
O	10.987906081151516	-11.140991818757577	3.139790050454546
O	8.558767681151515	-9.331490548757575	5.453362260454546
O	2.170681651151516	8.390557011242425	6.583636020454546
O	-0.06501330884848411	8.688329511242426	3.456772220454546
O	-5.381376148848485	9.869359211242426	5.448332520454546
O	-3.3458027368484844	7.410049061242424	7.364415420454546
O	-0.3865481688484844	6.9439828012424245	9.649147350454545
O	1.5498737211515152	4.047733021242425	11.266717490454546
O	3.4520484711515156	-1.9303645547575756	9.462035000454545
O	3.830521191151515	-5.594933198757576	8.043548330454545
O	3.8424345411515155	-7.023899818757576	4.523133960454546
O	5.718282201151515	-9.532888238757575	2.4229368904545456
O	7.678652581151516	-8.103138818757575	-0.6187239895454539
O	3.5154006211515156	-11.158839638757577	-2.819028779545454
O	1.4187320511515153	-8.297979728757575	-4.086761059545454
O	-0.12188853884848427	-7.579153678757575	-0.8796195195454541
O	0.38251683115151547	-4.036666658757576	-1.046102379545454
O	0.13605659115151525	-1.5232477017575756	-4.149516629545454
O	2.7314488711515157	-1.5572743207575757	-7.031646719545454
O	4.226363011151516	1.7331354512424246	-5.907144079545454
O	4.922875721151515	0.23699754124242434	-2.475455309545454
O	6.461005081151516	-2.9778022887575757	-3.7678374395454544
O	9.444349881151515	1.6962298912424245	-3.8778375095454543
O	0.8783605911515151	2.365793581242424	-9.329730109545455
O	-1.7637212588484843	2.8075574712424247	-6.593032379545454
O	-5.566709748848485	2.3962205812424244	-7.2408622495454535
O	-10.953219968848485	2.9967479212424246	-9.534941309545452
O	-9.540324488848483	4.312651091242424	-6.303864669545454
O	-10.100470618848483	2.476132831242424	-2.9471860495454543
O	-13.699285608848484	3.4636289112424246	-2.202075949545454
O	-14.105289108848485	4.8594571812424245	1.250943979454546
O	-10.765574168848485	6.660617631242425	1.358730231454546
O	3.8889465011515156	8.433490311242423	1.387864405454546
