33

O	-35.2880076678812	40.10391689087119	31.66305014741127
O	-34.389561933730725	40.8719969750716	31.903176290609718
O	-36.30194311083727	40.383691817852146	30.638202308375295
O	-35.731215139689226	39.1822810541449	32.54113591593327
O	-37.257797436388024	41.09159789710141	31.489540891107154
O	-34.95880855456383	39.20922704489144	28.616687233925674
O	-37.70197899237072	40.19267070288977	32.59643843120855
O	-33.376752784604385	38.39626895843286	30.562486793932088
O	-38.366837718239175	39.117051953500535	31.73311352780648
O	-37.24712807396975	38.31087785269186	31.180495987353403
O	-36.5610866172127	39.02720484172035	30.2005696145079
O	-35.34335327859742	38.69989287990356	29.6689746035288
O	-34.48194747069351	37.90519167226533	30.574993237565746
O	-34.56365716271635	36.52926360112236	30.299589357651087
O	-35.99033918598089	36.21734748047242	30.084130599705528
O	-36.53999665730197	36.329175814821994	28.701089919983588
O	-34.04401495397031	36.58095915488169	28.80494728606843
O	-33.86712297415517	35.29292754174112	30.599366362094532
O	-35.00744286155269	38.56676624687322	33.54587892617542
O	-34.02670552798035	39.5548877544232	33.66913700602695
O	-32.70333672430194	39.17181958945191	33.1283613163455
O	-32.64812587062474	37.83507745590149	33.7517432490316
O	-33.279998827219245	37.56889479874522	34.96970513920653
O	-33.369621939398776	36.33009517832337	35.52917074735328
O	-32.99173940660707	35.29051881546217	34.73430218118504
O	-32.463494029129656	35.52311255842285	33.50592175524386
O	-32.3759247836548	36.76897109668231	33.00207603287351
O	-35.757444712895264	37.40100053905134	33.62565563307753
O	-37.135599373237234	37.33865916331321	34.16187185313096
O	-38.24477310160365	36.55380805277974	33.60412396496553
O	-38.01039844297243	35.50889582894157	32.61195912708134
O	-36.660797539065136	35.04190632137105	32.92766572052656
O	-35.68528923314366	36.0562600169859	33.18646335290519
