99

O	0.2982225155294119	1.5378700111470587	-2.977044454685295
O	-0.337384224470588	2.430511478147059	-3.877214596685295
O	0.7632013255294119	0.40850593114705847	-3.886111943685295
O	0.12484738152941194	1.4525202411470586	-1.7443002406852948
O	1.330354446529412	-0.5764306988529415	-2.8805327906852947
O	-2.4021554534705882	-0.01873820885294153	-3.206577801685295
O	0.10437746652941193	-1.2053624988529417	-2.226684760685295
O	-3.757346183470588	-0.23279037885294152	-5.488636780685295
O	-0.516114277470588	-2.2557835788529412	-3.199745332685295
O	-0.8048424934705881	0.8058992311470585	-6.528920450685295
O	-0.14584010547058807	-1.6498821188529411	-4.513611060685295
O	-2.7526387634705882	0.5012671511470588	-7.748154380685294
O	-0.4347797754705881	-0.1943352688529414	-4.568728011685295
O	1.400210236529412	2.5826562701470586	-9.442477900685295
O	-1.741332743470588	0.3743975211470585	-4.230315503685295
O	4.309824866529412	6.215902481147059	-6.897121980685295
O	-2.7465114234705883	0.5388225311470585	-5.350061490685295
O	3.311579776529412	8.734031891147058	-5.751145240685295
O	-2.178792643470588	1.0842059611470587	-6.635342800685295
O	1.3370739865294121	7.423460261147058	-6.279280430685295
O	-2.531295903470588	2.544417481147059	-6.638139310685295
O	3.624213936529412	1.5733041811470587	-3.646154456415295
O	-1.8227102534705883	3.119675092347059	-7.833199140685295
O	0.13451848152941193	9.537852821147059	-2.651877200685295
O	-0.35366053647058804	2.7669236271470585	-7.629018720685295
O	1.854488906529412	9.097288671147059	0.3800605293147048
O	-0.021330851470588053	1.3743488411470586	-7.438530090685295
O	1.3693452265294122	1.0361763811470588	-7.702038930685294
O	2.199110196529412	1.8081948011470588	-8.649029960685295
O	3.549412246529412	2.3412429711470586	-8.238338160685295
O	4.205676876529412	2.546828730147059	-7.050420620685294
O	5.504378346529411	1.9435107111470586	-6.699256650685294
O	6.725015806529412	2.1457782661470586	-6.538637830685294
O	7.6416544565294116	2.8928946991470585	-5.755528670685295
O	8.262056446529412	4.001729567147058	-6.000054640685295
O	8.059511556529412	5.188630481147058	-6.744856430685295
O	6.892674906529412	6.054361711147059	-6.713450260685295
O	6.048705566529412	6.353241731147058	-5.555361690685295
O	4.589392386529412	6.572969281147058	-5.7126592006852945
O	3.475658436529412	7.483564071147059	-5.230020440685295
O	2.238040816529412	6.693892121147059	-5.481095780685295
O	2.4331189365294117	5.303932041147059	-6.043099620685295
O	2.7442299365294116	4.5728232211470585	-5.016575150685295
O	3.7622263865294117	3.660630791147059	-4.584179426685295
O	2.980017866529412	2.547126107147059	-3.9000999376852947
O	1.7987283765294118	2.3254753671470585	-4.753359510685295
O	0.7552125375294119	3.257884143147059	-4.456327869685294
O	0.21980496582941195	4.507403801147059	-3.957257661685295
O	0.40297387752941194	5.2059714211470585	-2.708170351685295
O	0.782999698529412	6.617328831147059	-2.5355117906852946
O	-0.1272397394705881	7.444044611147058	-1.6785263606852947
O	0.30072889142941195	8.864064341147058	-1.4585075606852946
O	1.7001517065294118	9.072582041147058	-0.9880415406852947
O	2.613787536529412	8.169075271147058	-1.7358212506852948
O	2.167510866529412	6.772246111147059	-1.9888502006852948
O	-4.015056113470588	2.7267901651470585	-6.954391710685295
O	3.8895420165294117	3.535660773147059	-9.161571540685294
O	8.663527856529411	5.243238031147058	-8.155519570685295
O	6.5656022165294115	6.395291691147058	-4.180823242685295
O	1.6205021365294119	4.733544961147059	-7.245402910685295
O	5.041242076529412	3.6814402531470587	-4.009439383685295
O	-0.606775818470588	5.151934551147059	-5.028497290685294
O	1.843527596529412	3.5195830311470586	-10.326558080685295
O	3.614420486529412	8.80660243114706	-7.108126670685294
O	1.3159566965294118	9.76503662114706	-3.335695829685295
O	15.129623506529413	-2.1527505088529417	4.6590236693147045
O	13.416766106529412	-3.0697192688529413	1.3933340293147052
O	-3.614329933470588	-9.453718588852942	-3.4716443096852947
O	-5.949681443470588	-6.527121168852942	-2.620448460685295
O	-8.327481243470588	-4.951283398852942	-7.694895130685294
O	-4.783824763470588	-5.9526922788529415	-7.750023480685295
O	-2.4071349534705884	-8.853465788852942	-7.492765530685295
O	1.406988786529412	-9.308693888852941	-7.512276700685295
O	6.515246856529412	-6.204311998852942	-4.998911560685295
O	9.257718296529411	-3.7919018788529413	-3.5870497283852947
O	9.185825186529412	-1.0042737888529412	-1.016888320685295
O	11.329028206529411	0.5400110311470585	1.655178069314705
O	9.863564876529411	0.3355017011470589	5.245679359314705
O	9.904631456529412	5.805133451147059	3.9909909993147052
O	6.1736455465294116	6.237745391147058	3.714263119314705
O	6.112708476529412	4.9639462811470585	0.47846376931470536
O	3.294468516529412	2.8261668321470585	0.672595789314705
O	-0.028404108470588052	3.3601060411470587	2.926309009314705
O	0.07338814252941192	3.478094864147059	6.776403139314704
O	-1.6665860334705882	0.13086519114705863	6.992968739314705
O	1.089115203529412	-1.4645992088529414	4.901096369314704
O	3.950622426529412	0.07898348114705867	6.871872539314705
O	1.2295787865294119	-4.183696848852941	9.083490339314706
O	-4.016753023470589	-7.4029769888529415	6.555590039314705
O	-4.774864963470588	3.8517046781470587	7.369892239314705
O	-5.327601693470588	3.6181393341470587	3.627002599314705
O	-6.7333351534705885	6.518044911147059	1.430729659314705
O	-10.192557593470589	10.78427003114706	-0.6098412506852946
O	-9.734243893470587	7.251275241147059	-1.8738003906852947
O	-7.283648213470588	6.591086851147059	-4.7837524006852945
O	-9.412544153470588	7.850396351147058	-7.715397950685295
O	-9.427568533470588	5.3597767411470585	-10.513981410685295
O	-9.460959873470587	2.306537988147059	-8.283910480685295
O	-4.791400803470588	-7.566580788852942	1.5807036293147054
