100

O	0.5370118624742859	1.7597459590457147	-3.0933023537714273
O	-0.03945510152571419	2.525082989045715	-4.138571632771427
O	1.640453387474286	0.8954759890457149	-3.5590903557714273
O	-0.019388181525714143	1.7013852290457148	-1.9325186877714273
O	2.0600052574742858	0.131767929045715	-2.2716340777714272
O	-0.8089584525257142	-0.9167417709542849	-4.373017687771427
O	1.2508921754742859	-1.1661483309542855	-2.169694167771427
O	-0.6021956705257142	-1.545868390954285	-6.914222077771427
O	1.642801077474286	-2.162883590954285	-3.299354850371427
O	1.7444751874742859	0.8181164290457148	-6.729606177771427
O	2.2898827174742857	-1.2331553709542855	-4.261288303771427
O	0.9673150134742858	-0.30613997095428536	-8.505567957771428
O	1.434087587474286	-0.08157732095428516	-4.653831077771427
O	3.824824507474286	3.9557539920457145	-8.619181417771427
O	0.058973116474285825	-0.27086953095428523	-5.041172247771428
O	1.9492136274742857	9.646887709045714	-3.5131132997714274
O	-0.16213470052571421	-0.4295303609542853	-6.497626557771428
O	0.6405500574742858	9.452528509045715	-5.678205607771427
O	0.6185993354742858	0.4382518490457148	-7.399032137771427
O	2.570821167474286	7.916083189045715	-7.4177940477714275
O	-0.2713396935257142	1.5387902690457147	-7.881745477771427
O	3.450545017474286	3.000028456045715	-2.8008785017714275
O	0.6947463164742858	2.6348467360457146	-8.269084177771427
O	-1.6230224025257143	9.566199239045714	-3.0729768077714272
O	1.9676271074742857	1.9367788590457147	-8.720991377771426
O	-3.257526232525714	8.127795509045715	-1.9848549377714273
O	2.670851347474286	1.503478919045715	-7.4388365577714275
O	3.078512527474286	2.7306366380457145	-6.809117087771427
O	4.257099807474286	3.5547215200457147	-7.386115247771428
O	4.924105427474286	4.574834355045715	-6.525317927771427
O	5.114762157474286	4.811600899045715	-5.190749757771427
O	6.231706887474286	5.042356759045715	-4.326996827771428
O	7.067754217474286	5.847887279045715	-3.8382246507714273
O	7.072925277474286	6.884654839045715	-2.8577255137714275
O	6.667859947474286	8.103839009045714	-2.8805327527714275
O	6.382950297474286	9.199499789045715	-3.7274533957714273
O	5.134264187474286	9.268444599045715	-4.5405140677714275
O	3.925824487474286	8.636334689045714	-3.9239272737714272
O	2.547802427474286	8.867290389045715	-4.302446127771427
O	1.6288889174742858	8.545199399045714	-5.398333147771427
O	1.7793964374742859	7.464216429045715	-6.4030811277714275
O	2.191414167474286	6.247974299045715	-5.6273361677714275
O	2.2106097774742857	6.045033929045715	-4.348358887771427
O	2.945393287474286	5.406232999045715	-3.305286178871427
O	2.716445797474286	3.969656654045715	-2.9832532067714275
O	2.019464287474286	3.491286319845715	-4.1585040907714275
O	0.6567296234742859	3.7870270100457146	-4.4340107677714276
O	-0.3650552735257142	4.766425639045715	-4.220792328771427
O	-0.9996864825257142	4.989777029045715	-2.883494075771427
O	-0.3950388665257142	6.181630029045715	-2.343661308771427
O	-0.32323035052571414	7.518184519045715	-2.8101338607714275
O	-1.0817740725257141	8.637327539045716	-2.2280623177714274
O	-2.069713482525714	8.053030809045715	-1.2149344977714271
O	-1.9823549425257139	6.564078579045715	-0.8959720077714275
O	-0.4583366325257142	6.363667029045715	-0.8193121977714273
O	-1.394476572525714	1.9346160890457147	-6.998898737771427
O	5.017963337474286	5.917665619045715	-7.291912377771427
O	7.504604977474286	9.723889319045714	-4.629761897771427
O	4.138044827474285	8.832909389045716	-2.4077186257714276
O	1.6796602274742858	5.466459979045714	-6.828816457771428
O	4.0035586774742855	5.805879749045715	-2.4054319127714274
O	-0.8457822925257142	5.935896359045715	-5.008791867771428
O	3.982643897474286	5.148368449045715	-9.230210737771428
O	0.8522178754742858	10.175366789045714	-6.841985017771427
O	-2.225257832525714	9.077560309045715	-4.2147845187714275
O	-6.612284152525714	-5.747913800954285	7.707767022228573
O	9.084618757474287	7.138314039045715	11.193466722228573
O	11.068580827474285	4.100785343045715	10.085661022228573
O	11.414857127474287	2.9346149010457148	6.504795212228572
O	2.420756277474286	-10.136470290954286	-4.249368141771427
O	-0.9571533025257141	-8.333844590954286	-4.743019247771427
O	-1.4819478125257142	-7.532969890954284	-10.525053487771427
O	1.8488835374742858	-6.960210290954285	-8.950028157771428
O	4.869019777474286	-8.647500890954285	-7.367031817771427
O	8.127543257474285	-7.510286990954285	-5.593183087771427
O	9.903017557474286	-2.587123780954285	-1.5472332877714272
O	10.376831527474286	0.7367099390457148	0.5080852122285728
O	8.010307467474286	3.0574815810457148	2.4568600722285723
O	7.986123177474286	5.206468969045715	5.540482252228573
O	5.508564527474286	3.9045093130457147	8.272642022228572
O	3.5920662074742857	8.953303999045715	6.6367775722285725
O	0.5163162714742858	7.630562369045714	4.925879262228573
O	2.388672587474286	6.854732029045715	2.0214092622285724
O	0.9478067214742858	3.635745799245715	1.4047825422285731
O	-2.795620512525714	2.431903089045715	1.8953321222285728
O	-4.311596032525714	1.9160336690457147	5.498160942228573
O	-4.170796052525714	-1.8268731309542852	5.197565142228573
O	-0.40996714452571414	-1.6755495509542855	4.5869364422285726
O	0.28453483987428585	0.7929652390457149	7.417729822228573
O	-0.7080294425257142	-4.592088730954284	8.611467122228573
O	-8.528098232525714	-0.10348487095428505	3.9784127422285724
O	-7.323275492525714	0.050835009045714585	0.35101319222857263
O	-8.982684612525714	2.1340714790457147	-2.433761781771427
O	-13.119264472525714	4.578755809045715	-5.840941817771427
O	-10.459916472525714	2.044573019045715	-6.650697947771427
O	-7.059576812525714	3.141988739045715	-8.262651427771427
O	-8.376442022525714	3.4976990302457147	-11.876005827771428
O	-6.266343722525714	1.5846952690457146	-14.310296077771428
O	-5.556797322525714	-1.3742688309542852	-12.076570687771428
O	-1.228706832525714	-9.298162990954285	-0.36938290777142724
