57

O	-35.075895102137274	38.57633720568132	31.93417642459124
O	-33.9734070936803	37.86997241922933	32.448564387962875
O	-36.229325011090324	37.51899102697072	31.848767863126856
O	-34.664018568471306	38.77051326014325	30.707514430834983
O	-37.36192122441901	38.59713353501314	31.699453385887445
O	-34.938135035831735	36.792597974554006	29.94059844356257
O	-38.528309271690816	38.35162300176297	32.58911351608939
O	-34.09670083754993	35.40267002569931	32.33983177283311
O	-38.983659589575105	36.89674437468122	32.59861465792488
O	-36.441104515454214	33.90279380440124	32.025549207508114
O	-37.94274536145213	36.11391850765712	31.899086546031025
O	-36.67576687262249	34.63147013750452	29.9475109131298
O	-36.990576070359026	36.705130306067446	31.0223418917586
O	-33.71456345716923	31.61287916427057	32.81103412716378
O	-35.47800821205093	36.62414305939864	31.248250138348105
O	-34.708820179812285	32.12202961021884	34.61405425594005
O	-35.28896451938005	35.31394967947344	31.780699646837537
O	-33.608668922955495	39.060221944197124	36.899175386018214
O	-35.73951681047695	34.35213481080704	30.934122074467933
O	-34.15798422990174	39.62858598191868	34.49098724034098
O	-34.49955675029557	33.910757940859206	30.266261812157623
O	-28.748339735738988	41.90047808619364	32.69715836673284
O	-33.468795492095595	33.51573195519334	31.329669061465268
O	-28.499602497899318	42.692439029236375	35.52656351480929
O	-34.31762966088816	32.68530537388318	32.224498283473196
O	-33.078247733992804	34.16178354610014	37.764835290575036
O	-35.572878991702275	33.16960974314986	32.74866530676221
O	-35.448586882298045	33.276199513920744	34.221447292977814
O	-34.71316310461278	34.37764485328178	34.82655122583435
O	-33.33739506826063	34.138816603651215	35.454912604243596
O	-33.72172266357983	34.7678055010972	36.704865459961084
O	-33.10503859975492	36.28784034405789	36.85089899342681
O	-33.5555322654847	36.7271086554432	37.99362275608469
O	-34.58440540400067	37.72412232222406	38.38110169669354
O	-34.69179062320421	38.49756597225804	37.16492872186261
O	-35.69788019490831	39.03451197608613	36.28094195081567
O	-35.23431446311186	38.8686353672614	34.869585758168675
O	-35.05779314207337	37.49597618129289	34.31405963939127
O	-33.80897158142804	37.296347865000556	33.76008052874863
O	-32.53648817038818	37.973855097816674	34.032376472436226
O	-31.636292005884254	38.69332107922503	34.5973792279344
O	-31.403630099239344	40.03751235734219	34.714918895410925
O	-30.520040835073846	40.47973730131013	33.53967528302103
O	-29.506155005270884	41.52952775012299	33.77165957039967
O	-28.621345409778357	41.40992301517078	34.967321573321726
O	-29.324814618160055	40.446699114738145	35.860979896248395
O	-30.831480517252572	40.67020152251494	35.93783768677803
O	-34.680622194674896	32.738467271616386	29.373091173112602
O	-32.08586118810889	34.918937119037324	35.10769385980016
O	-31.535518474730118	36.20129083170109	37.02561490135429
O	-35.68487403607937	37.01317926440402	39.05350689923303
O	-36.126543673882274	35.926466305450816	38.061400930391486
O	-36.2966374675766	36.81417592137419	34.59056718261623
O	-31.43808893779559	37.45202385617714	33.060364801906715
O	-32.387844984906764	31.85784892891978	33.20209791771373
O	-34.705164832637486	32.15599362925318	35.98274126649999
O	-27.67665139002313	42.660509325538705	33.20014786836733
