45

O	-35.27987357975557	36.43680305166764	31.084208655361266
O	-34.365185797733844	37.00206387480528	30.181429904191372
O	-33.047165378981205	36.8723178629552	30.608683273220002
O	-32.06364505440348	37.72237012561851	30.1962091355182
O	-32.63118288395444	35.70981134776911	31.186576404676735
O	-31.395652154065758	35.4521879642674	31.72046177430336
O	-33.64881016652696	34.811290118753824	31.498041750214266
O	-33.25175411811027	33.61650138701758	32.05053112536195
O	-34.9705598909755	35.08887503642366	31.32844910629517
O	-31.370041360602535	38.6996233660345	30.893412751003687
O	-30.293252020269417	36.26469051912878	31.860446827904145
O	-32.13713505032582	33.68598383775697	32.944446751420735
O	-36.73246807948418	36.67524873316147	30.787535455275727
O	-37.32613842833694	37.90381763940523	31.3741721555535
O	-37.80855135677248	38.73292367751209	30.520993715518024
O	-39.350130431051724	37.517359909608786	32.914632943731206
O	-38.04228216236791	38.00454199916241	32.61454752154907
O	-40.360910985242484	38.607461453111334	33.13818134449054
O	-39.88323818974675	40.01037944500052	32.89382788238847
O	-38.57529445765403	40.34885501257466	33.46351804158048
O	-37.713145727240374	39.164974129860894	33.37236475816075
O	-36.40818051359571	39.61689805555199	32.85505643103402
O	-36.3171272675533	40.34382446379052	31.854634555102454
O	-34.49287542790585	39.693849553137646	34.062637889565764
O	-35.18719415509259	38.91179610297655	33.028657049906684
O	-33.14930924842055	39.909160628483576	33.45093603925188
O	-32.28201857342271	38.83739060835675	34.15647156767104
O	-31.897689181985942	39.686616927073935	35.39617156831251
O	-31.1025375035467	40.7904543543712	34.736566421773404
O	-31.730554808309783	41.99912274897247	34.86423597004854
O	-31.321132546946274	43.0944396436591	34.169114409968486
O	-30.14541191765077	42.915541817682325	33.498125023397705
O	-30.141355626915768	41.75833563296438	32.71681273705128
O	-30.545834056018958	40.65315191753976	33.46667248475747
O	-34.47542264734525	38.8131041498971	35.309882473746356
O	-35.26023856258228	37.54452635516631	34.96051664450045
O	-34.15852252272287	36.76121817727658	34.224768729691924
O	-33.903842670267245	35.587143038773426	35.07170765145826
O	-33.41130651360321	35.86325289904854	36.34876507549624
O	-33.61037373116717	34.98594009920836	37.40810400623454
O	-34.72630338821206	34.15802370966783	37.36881833079158
O	-35.11858457109432	33.74919361882635	36.107210043939745
O	-34.85635446368357	34.57352919789906	35.03837998017017
O	-36.84851760492772	36.638837321847205	29.418644118463916
O	-37.51691884412786	35.631505397579716	31.273734967420143
