81

O	2.1433711203645833	-1.6270737126625	0.8866542659999993
O	2.1551206103645835	-1.3367084026625	-0.3594819550000007
O	1.4815549773645835	-0.6688619596625001	1.8858140239999992
O	3.4683082203645834	-1.8029670426625	1.1672605049999993
O	0.5136773643645833	-1.5011882626625	2.5381699049999993
O	3.0368036503645834	0.8948720363375	0.6783839329999992
O	1.1127064213645834	-2.4546210526625	3.4470653349999996
O	5.434683250364584	0.1692155234375	0.7072901579999993
O	1.7751960013645833	-1.6407406426625	4.474178854999999
O	2.6634328303645836	-0.6439403086625001	3.9679948549999993
O	2.6278812803645835	-0.19512058366250004	2.6704886349999994
O	3.4769756303645836	0.32059686783749997	1.7366988159999992
O	4.864875530364584	0.1518375830375	1.7896920449999993
O	5.636820470364583	0.2182929920375	2.9568338549999993
O	4.797474640364584	0.4025732873375	4.115319444999999
O	4.871560760364583	1.6592549773375	4.885208864999999
O	5.959444770364584	1.7473391873375002	2.635539434999999
O	7.105957660364583	0.04434448833749999	2.989622174999999
O	4.184793880364584	-2.8500669426625	0.9397035733599992
O	3.9540686103645832	-3.2101623926625	2.447385814999999
O	5.151584360364584	-3.4737060726625	3.1790802849999995
O	5.511356190364584	-2.7378431126625	4.344326024999999
O	4.609170800364583	-2.8936682926625	5.404758674999999
O	4.592496540364584	-1.9591768426625	6.432864124999999
O	5.795714320364583	-1.4207256926625	6.792537044999999
O	6.816006100364584	-1.5456802326624999	5.892741444999999
O	6.715539190364584	-2.5188829426625	4.942110104999999
O	5.645440080364583	-2.9358642326625	0.9197319194999992
O	5.745745530364584	-4.2756620826625005	1.0494703929999993
O	6.913985700364583	-5.0736632926625	1.1532393819999993
O	7.993402100364584	-4.390339832662501	1.6099859269999992
O	7.876174110364584	-3.0716394326625	1.9370723199999993
O	6.652947960364584	-2.5214716426625	1.6969194199999993
O	-10.882428519635416	3.8120593073375	-5.245218005000001
O	-6.415190829635417	-8.895230132662501	11.486325135
O	-7.235751829635417	-5.2994166126625	10.460077255
O	-2.1848323196354165	5.1452958673374996	7.755025754999999
O	-0.3794296096354166	7.794512347337499	5.880587424999999
O	0.8738795868645834	7.255730137337499	2.3516608149999993
O	1.5659509193645835	9.775181367337499	-0.4651642550000007
O	3.6534102103645836	12.1751227973375	3.0274551049999996
O	6.249592670364583	9.4629814873375	2.5120200649999993
O	5.125091070364583	7.3432492473375	5.4990346049999985
O	2.9375264903645832	7.2823894373375	8.476818775
O	2.1002972303645837	4.8230460873375	11.252633535
O	-0.11610282963541652	-1.0390513826624999	11.875483834999999
O	-1.8995839696354166	-4.4039193926625	11.765465235
O	-2.2902611396354167	-6.9360574526625	8.905280164999999
O	-4.296261519635417	-10.1403356026625	8.211666085
O	-6.617201039635416	-9.751129272662501	5.214309414999999
O	-2.3344563596354164	-13.3108705026625	3.6452051949999995
O	-1.2319695896354168	-11.0134809026625	0.8224016969999992
O	1.0582586123645834	-9.2214851926625	3.2983493149999994
O	-0.11780012963541653	-5.9742270226625	1.8364248389999993
O	-0.3732818596354166	-4.4537808226625	-1.5414802050000005
O	-3.5106727996354166	-5.5048062526625	-3.608845365000001
O	-5.067581119635417	-2.0462132226625	-3.4010549450000007
O	-4.913032029635417	-2.3311159626625	0.42017958999999927
O	-6.414412389635416	-5.8021067626625005	0.5959697289999992
O	-9.727833419635417	-1.2963397626625	-0.3604674150000008
O	-9.694279819635415	-1.9993363226624998	3.3588678249999995
O	-7.549525339635416	5.030576457337499	-0.9468840950000007
O	-6.280721429635417	5.919273687337499	-4.499955995000001
O	-4.408974009635417	2.8936737373375	-5.903330525000001
O	0.38985279736458334	1.0403687513375	-9.850460765
O	-0.7632241196354166	-2.4162030526625	-10.854772665
O	-2.474708269635417	-2.6256948426625	-7.449210905000002
O	0.6739501583645834	-1.4468619126625	-5.6083646850000015
O	4.305449230364584	-1.8252846826624998	-6.825595325000001
O	3.9162348503645834	-1.7894792326625	-10.566157965
O	6.804079630364583	-1.1196822126625	-12.865482965
O	9.153766460364583	-2.2817749526625	-10.131760365
O	8.250737010364583	0.22371179113749998	-7.4085803750000006
O	9.689462020364584	-0.2906997936625001	-4.002236845000001
O	13.307548780364584	0.6919726683374999	-4.239476875000001
O	14.361358680364583	3.3423144373375	-1.8147114950000005
O	10.984828080364585	5.0998852173374996	-1.5789061550000008
O	8.361341660364584	4.373961257337499	-4.366453795000001
O	-0.3647851396354167	5.537018457337499	-4.315483975000001
O	-2.8141067296354167	7.6347986773375	-2.204288675000001
O	-3.4042079896354163	6.5574600373375	1.4031032399999992
