67

O	-35.11473407024517	39.91483859991464	31.72061017284016
O	-34.083798941207	40.23885226677503	32.58038281356057
O	-36.26055182723264	39.04620646051052	31.62096655864459
O	-34.918361858897306	40.57118481089927	30.613418696498776
O	-37.54577953837612	39.35623073027873	32.249570040629955
O	-35.27392773896662	37.85638012346109	28.838022914540833
O	-38.37338549069497	38.23800042916871	32.791374381511204
O	-35.30784350456758	35.09428518138656	29.077544252268215
O	-38.31417374143871	37.09914877419704	31.777539160015856
O	-34.06026870830057	35.22708137977726	32.345578726344414
O	-37.81443007058244	37.78502414962369	30.511584728455055
O	-34.55643957243796	33.68478985225451	30.915962118278614
O	-36.39706852806725	37.926559863544306	30.671690494513506
O	-31.576497735005244	33.327744775095006	33.95269061581084
O	-35.5552116057553	37.14238845853064	29.863120883658652
O	-30.538464487086657	35.03444186888908	33.17372017461596
O	-34.90305643497486	35.82523178509233	30.058246468436693
O	-35.78034980659315	35.5446444812246	34.86491693280053
O	-34.13150440942278	35.040247374504084	31.00701104066884
O	-35.25579140972087	37.32095637020008	32.77916484358286
O	-32.66517093982354	34.9688188687133	30.778903180499142
O	-28.425930692110963	38.70174310208928	34.08448984928135
O	-31.952557283976635	33.99404776990024	31.605065780054325
O	-28.949372854123293	41.25381385583961	33.4538462590644
O	-32.560862837644756	33.749144317677626	33.02703953409573
O	-33.08982790780249	35.13679077275016	35.809185902989135
O	-32.94012592327252	35.18071112531659	33.1006666498384
O	-31.648325926263674	35.89842826252769	32.85148627406709
O	-31.679182593348244	36.75524563121154	34.06190624656831
O	-31.449259827585504	35.7138749888713	35.07351483271422
O	-32.178264878787125	36.20315516807668	36.25148676362243
O	-32.78153746168719	37.66684142809968	36.130863755260705
O	-33.9458078216668	37.351465000679895	35.92049271325157
O	-34.930817967796465	36.29752712852428	36.64332472263583
O	-36.02511799983762	36.43085354932092	35.693853043658095
O	-35.85257341341122	37.81190240387919	34.94174610103269
O	-34.87890770086142	37.68107215347044	33.93687193819672
O	-33.76876376908772	38.34943563260936	33.31954362577156
O	-34.11904166852785	39.69048820382513	33.847738170481776
O	-33.37265926167487	40.27020751115853	34.98039266161375
O	-32.0938592040944	40.38653036156402	34.71959259616673
O	-31.164119178129774	39.47011694559255	35.22692884631109
O	-29.976434776690848	39.17087282708668	35.896549936749444
O	-29.13436386629444	39.58921276683818	34.82087727082585
O	-29.98426923395382	40.35625038848731	33.8614069528176
O	-30.819474149402158	39.857211216468244	32.83542214037476
O	-30.897963706526966	38.702134650855086	33.8632547884805
O	-31.92834067851977	35.93464588311967	29.96759669744264
O	-30.24030750533371	36.3203944786394	35.95850127011667
O	-32.045829262202204	37.59796285218085	37.68442173862637
O	-35.54693981799334	36.28127177064074	37.963970828636235
O	-34.81447455167974	37.285325847809574	38.84824840001217
O	-33.380075603651214	38.22891329604556	31.87280355186538
O	-33.52877314053899	40.0214209273162	36.527309652556276
O	-32.0126982193963	32.29722445296879	34.758550513658314
O	-29.405022071852954	35.67491653778128	33.56653070425176
O	-27.464014491379054	38.10879699881879	34.918415147927334
O	-28.77502433032852	42.05915604149459	34.60927393162623
O	-28.136534288419835	41.4173603864612	35.62438846078466
O	-29.785924723098987	42.82635672855233	35.08235106499138
O	-30.54800173783942	42.48362485253124	36.1237255101377
O	-28.545229747069044	41.74784481125625	36.92171319736437
O	-29.887675977480022	41.811576926875624	37.13904206553455
O	-31.717545656826985	42.74954299980302	36.76307507373654
O	-30.54406996453733	41.42630428706852	38.21879794005255
O	-31.71855718665591	41.983913779711536	37.97385934336543
O	-30.44761997300864	40.25526206525272	39.04710999682081
