69

O	-1.2117161638930227	0.3404683771023269	-4.115001083209302
O	0.02098817610697723	0.778639218102327	-4.212706583209302
O	-1.1733884258930227	-0.9733903228976732	-3.518658543209302
O	-1.9281629868930228	1.5404276529023269	-3.942907703209302
O	-2.1144755488930227	-2.074753882897673	-3.8733494232093015
O	-2.9302871738930225	-2.433982232897673	-2.6115321202093016
O	-1.9224316858930228	-1.921523212897673	-1.5835347112093017
O	-1.7740581008930227	-0.652890442897673	-2.2208415382093016
O	-2.852084783893023	0.24251612710232684	-2.3579103692093017
O	-2.745365073893023	1.140022024102327	-1.5432453532093018
O	-4.008636393893022	-0.3832909428976732	-3.075315833209302
O	-4.851911993893022	-0.654511592897673	-2.1229852612093016
O	-4.626127923893023	-0.05412136289767311	-4.352367543209302
O	-4.111348243893023	-0.42920575289767315	-5.695154603209302
O	-3.201778803893023	0.457540517102327	-6.462710723209302
O	-5.086115033893023	1.397898602102327	-4.489974723209302
O	-6.015297973893023	-0.765763432897673	-4.373512653209302
O	-1.4982041868930227	2.860938977102327	-3.9455381532093017
O	-1.6939778648930228	3.735845287102327	-5.1428868132093015
O	-0.7384008058930227	4.911682967102327	-4.932328533209302
O	0.6655308961069775	4.713588627102327	-5.335810883209302
O	1.7762470861069772	4.951996247102327	-4.522291813209302
O	2.7932520961069773	5.754257317102327	-4.815243533209301
O	2.903253486106977	6.2840995371023265	-6.052921843209302
O	2.1635720061069774	5.6304011871023265	-7.037371973209302
O	0.9727966161069772	5.020975867102327	-6.6593055132093015
O	6.236829606106977	-10.025092692897672	-10.411287003209301
O	-6.970958793893023	-6.1247810428976734	1.896618196790698
O	-5.921363033893023	-2.728884612897673	3.2549504467906987
O	-7.100870213893023	-0.9400548728976732	6.376989986790699
O	-11.371508203893022	-2.218193522897673	4.8354267667906985
O	-10.638551933893023	0.5641549471023268	2.369442886790698
O	-9.419239243893024	-1.631498132897673	-0.5499733632093018
O	-9.502193603893023	-5.270542422897673	-1.4129863952093018
O	-8.319346833893022	-7.176160142897673	-4.457014263209302
O	-12.759888803893023	-7.853843872897673	-7.035335003209302
O	-3.1442751038930226	-7.630633202897672	-7.790800783209302
O	0.2838227161069773	-7.950743502897674	-9.341202043209302
O	3.4072279761069773	-5.822510092897673	-8.916900733209301
O	7.119701696106977	-6.052583862897673	-9.868299693209302
O	9.427703796106979	-5.9086746128976735	-6.8158158032093015
O	9.992525596106976	-0.9349232928976732	-9.707379793209302
O	8.790244996106978	1.115684505102327	-6.749879773209302
O	5.202181526106977	0.7026684581023269	-7.974634583209302
O	4.024720486106977	-0.058694562897673164	-4.462754043209301
O	4.652926206106978	1.6525780527023268	-1.2014482822093018
O	8.012945036106977	1.0144061791023269	0.6168847167906981
O	6.334913656106977	-1.0647535828976733	3.3385321467906985
O	5.047444636106977	-3.416927502897673	0.6380957867906982
O	8.370212666106976	-3.766592502897673	-1.2004169462093017
O	7.413041966106976	-6.5757254428976735	3.6300182567906987
O	1.783594216106977	-6.152583652897673	7.340381256790698
O	1.7378721561069774	-3.123510572897673	9.712019156790697
O	3.381522656106977	-0.1620529128976731	7.994912156790699
O	7.034481516106978	6.963655127102327	6.422030956790698
O	6.867129806106978	3.5482052071023267	4.678653786790698
O	3.5137429561069773	4.364503957102327	3.1760861667906983
O	2.1006293561069773	7.842015947102327	2.2631454667906983
O	3.6979901061069773	10.002806967102327	4.919662686790698
O	0.8556115061069773	13.619381207102325	2.3424173467906986
O	-1.4429121454930227	10.583930747102325	2.3936097067906985
O	-3.058875223893023	9.358255877102327	-0.8549111832093017
O	-5.726114413893023	11.998918907102325	-1.4897044282093017
O	-9.122157933893023	10.509001247102326	-1.9351494662093018
O	-8.588803473893023	7.548505767102327	0.4098004467906984
O	-5.640060313893023	7.665899037102327	2.9573047567906983
O	-1.5086704148930228	1.1123501651023269	7.363963276790699
O	-2.415470293893023	-2.5387081928976727	8.041533826790698
O	-2.6377568538930225	-5.038253492897673	5.203413396790698
