65

O	-35.31524278192316	38.93498897295751	32.550868803519926
O	-33.99438788028356	38.47724465931729	32.329916239162465
O	-36.17739753117949	37.77321683407497	32.97895696381732
O	-35.75972982863995	40.058989053286815	32.149582905909675
O	-37.53135935838962	38.48172053157842	33.20049738453307
O	-36.10027660230202	37.707847271207015	29.763111241439773
O	-38.01552634686863	38.769298929008336	31.78226188805387
O	-35.309873137127056	35.39499919859512	28.83411363154077
O	-38.61387713980037	37.45014791275415	31.203640120107295
O	-35.355726320625784	34.69945984272443	31.992552283702036
O	-37.82993484392112	36.436647623157015	31.972119812648916
O	-34.85643036265253	33.36392206821248	30.284049402074583
O	-36.360953211972586	36.720316149579425	31.923169604426977
O	-33.15610928629999	33.38138164567842	35.14848500779545
O	-35.69841511331581	36.88421840682911	30.644712649106925
O	-30.524399473613975	39.40634119478	37.76827807945145
O	-34.9581043199939	35.74678229962468	30.01053449850769
O	-29.19521550177292	37.90381803123638	36.28464501154699
O	-34.54300585376206	34.589540678273906	30.88980854948243
O	-29.74410537511456	35.58118297158972	35.75813293124044
O	-33.06925819508636	34.57396608846855	31.128773443888168
O	-35.73833651583554	38.8429401984215	35.781481825091774
O	-32.84174670020882	33.78549460429328	32.36454697945205
O	-27.9308197021637	42.20041824011078	35.595964379060376
O	-33.99741681808595	33.15789136527283	33.04946902965784
O	-28.81851816283315	43.024988692740884	33.483779094200855
O	-35.0963067766077	34.15424090567649	33.17077029419237
O	-34.71113018055907	34.956121947177635	34.33199935453269
O	-34.2194379162786	34.13784137811029	35.53533466674167
O	-34.11166163954299	34.89763321203393	36.81798994071794
O	-34.44883510729258	36.11554682189336	37.280347230222894
O	-35.38675224920223	36.55167351477327	38.2785690064818
O	-35.63731497146666	36.86144106441642	39.47296486729623
O	-35.13014547403964	37.797188030893004	40.44080817813256
O	-34.27883612953905	37.20916949269344	41.28552860686132
O	-32.86285174847678	37.41757560466869	41.38850212940751
O	-31.898436756531325	37.17934493538589	40.28338297023039
O	-31.66647332109583	38.21300650013555	39.25061520819196
O	-30.83257440521674	38.210484508556874	38.07800082536457
O	-30.030192681987195	37.30926829544376	37.18891448161764
O	-30.793409584080727	36.208838891598035	36.38695043664044
O	-31.775548710259198	37.05154347583517	35.60899449197998
O	-32.228657823929005	38.20803794250925	35.98572286018796
O	-33.43607565397609	38.792399195537804	36.51061982324536
O	-34.573189808448966	38.979883169410826	35.53068208670162
O	-34.23454818979834	37.95926022130749	34.53903630796297
O	-33.268675994055116	38.465929145176766	33.619436024059766
O	-32.11349796834441	39.24423069057114	33.30253799887456
O	-31.936082887188885	40.70689797515262	33.40627040963553
O	-31.26295622671664	40.96440307610872	34.70393133450892
O	-29.83582094324059	41.075991348027614	34.86097240708874
O	-29.305050065006576	42.33191639994067	35.54620621248309
O	-29.734764274863196	43.4196432509562	34.51480138494773
O	-31.080860451462513	43.02491153914649	33.85028631277981
O	-31.742618338921282	42.36821638314333	35.10542538574046
O	-32.414421222285796	35.91949148898265	31.076458269746574
O	-33.01651110515245	34.26133139456333	37.67898520703291
O	-32.40833801257801	36.388768876312376	42.48524857543135
O	-31.91007842514056	39.578856027439876	39.891304225824136
O	-31.809284241505352	36.14661908891287	34.4002678355507
O	-34.01624155954276	39.288878675099085	37.69984485044091
O	-30.636477741632582	38.833072378472366	33.3613172068829
O	-32.03904654296231	33.121819206343716	35.87667696315968
O	-27.883471099243913	37.4940793166274	36.530773147610645
O	-27.567346031801986	40.84827635788835	35.48193533974604
