50

O	-36.11801683352087	39.65099831805799	32.61899196429783
O	-37.329501464668944	38.950264648580756	33.07704511461559
O	-38.48285755564096	39.588139131079295	32.367271286277195
O	-38.50496602090978	39.02366952866229	30.983141515813514
O	-39.055468678559066	37.60049138182422	31.124555010011942
O	-38.35853737475528	36.876229052748464	32.23889845281493
O	-37.177498356272515	37.517068805852595	32.74034532905603
O	-35.957125889374296	37.244029365122856	32.134237775611915
O	-34.86920052571676	36.34915588115821	32.37221590283444
O	-33.419910629833204	36.41217218602531	32.39191796074442
O	-32.38910712226427	37.2150201340688	31.883183651658328
O	-31.260436005743053	37.58919189777265	32.65578982881794
O	-30.860601977111262	36.851310709877325	33.768685886756344
O	-31.582565970968126	35.661345361060235	33.871401651648384
O	-31.096851707752826	34.8792518801283	34.905408398570245
O	-34.84806945607036	34.0936463130166	33.071813254635
O	-30.50156691064053	38.73721209509861	32.443582601848
O	-30.45088694102426	35.51651895295484	36.009640387397106
O	-28.468751844499806	36.87589447355958	34.56085378718964
O	-29.57102614444828	39.19475794217038	33.378752537354416
O	-27.00401208808774	40.76770577525602	34.94235316479254
O	-32.25156759795334	39.24029649149418	35.49090459582727
O	-31.898636925027155	38.5081937369833	36.63877378894156
O	-32.73282115054559	37.477911088789035	37.1094972733664
O	-33.30903415868919	38.85370495769955	34.71660355845149
O	-33.749796135775384	39.4453463128658	33.40646614152687
O	-33.00587554225399	40.602406310060694	32.95413297382311
O	-32.660632435861295	41.23933190731405	34.27743456865022
O	-31.38942617161223	41.92824932235084	34.08400158825243
O	-30.832380460735365	42.30747236220505	32.88760312734563
O	-29.44950547191565	42.462262940197334	32.94794752547807
O	-28.712911672695334	42.35175895986454	34.10444245127766
O	-29.389812906976076	42.1622091961341	35.262783155677155
O	-30.765715689639734	42.28917395505858	35.281126008562445
O	-33.53891321362566	36.814131022108505	36.15673598922858
O	-33.833442940242385	35.499200887469016	36.197969364684695
O	-33.863710842428446	34.178421033751505	36.04396570484507
O	-33.42415090067535	33.1226859423181	36.94123612067609
O	-33.44810398905831	31.978031522674332	36.37886331807136
O	-34.184751120501915	33.09221440636814	38.141388114108054
O	-34.03113369061891	37.78638263391851	35.273377316257594
O	-27.52586288341104	43.67845088951002	31.97353629370054
O	-34.90084583763445	39.00309461870629	32.88937916891165
O	-35.92024703061773	40.51104195326029	31.75865544122587
O	-36.029972377318714	37.74383158518143	30.93942930375191
O	-35.49906805523792	35.389139437179196	33.427115573611424
O	-32.80236056189943	35.51628769874687	33.21387437123938
O	-29.816594722564147	37.21750131738883	34.617125951646415
O	-28.687722473351023	42.90021202946041	31.857387789456673
O	-27.50873508256319	41.623328362963996	33.95107620183259
