66

O	-34.92704951415084	39.09295622331519	33.28170443167701
O	-35.92916190585346	36.95505540102099	32.377297633540714
O	-33.68123283119883	38.491666222651524	32.96874470939555
O	-35.89363807267085	37.95052572186789	33.48390416603315
O	-35.251611766709395	40.28435628861884	33.02260797724405
O	-37.24533513767138	38.66904680959207	33.58967491140215
O	-35.62984945499395	37.92124635200409	30.215322252068795
O	-37.69067574552872	38.87630506596216	32.16993607671686
O	-34.94967617332825	35.38091283394618	29.520491679706215
O	-38.186722836797244	37.533380386398036	31.55448805313616
O	-34.14154903593243	35.43918662157808	32.73643868817922
O	-37.3676737458605	36.549040476060696	32.32665985543413
O	-33.51262845438324	33.92820130862199	31.06972910341641
O	-35.181958603873056	37.1695557965018	31.148131241342863
O	-31.985013332484417	33.74471923886608	35.76731092048959
O	-34.41617109500461	36.05051812775123	30.487162712598884
O	-30.587931114192436	40.38439982412627	38.76791456011826
O	-33.58967867192434	35.244708639954254	31.454981922919597
O	-28.517069571741686	38.96902879708245	38.24512125611744
O	-32.16032714971842	35.79190939954095	31.430727986430057
O	-29.360424012681822	37.01845666054922	36.83393240972366
O	-31.468337588110728	34.811879412872074	32.38839995358764
O	-35.471566885060035	38.98024562395429	36.26248299739298
O	-32.1610952284139	34.84925436191922	33.77071721963323
O	-27.541650930800508	41.865271195012006	35.07978496737399
O	-33.62819886042319	34.652566817402295	33.7164081884699
O	-29.123533617106858	44.754819735274324	35.202657160612596
O	-34.125562900148424	34.66333573352063	35.11956119646538
O	-33.12092898856828	34.370180375927845	36.177364434032675
O	-33.08711612992502	35.081891359387114	37.49063654694432
O	-33.541311730206054	36.264244907735694	37.99474601022183
O	-34.60666627016495	36.493166652084966	38.9280161230256
O	-35.0150884630192	36.5942345031331	40.11492186863116
O	-34.89487801167884	37.72482699433773	41.050970921497836
O	-34.11494514021244	37.47116714267453	42.0724617361453
O	-32.79414821779174	37.96052408606379	42.39618313242129
O	-31.723478652364726	38.099610818407136	41.39407648013518
O	-31.675885070996856	39.135497380658954	40.35991086860183
O	-30.61868697415444	39.298553897388544	39.38708946865748
O	-29.68409530475723	38.332239810876125	38.70386900010237
O	-30.302444856065073	37.730930697646166	37.43466831969207
O	-30.80323162407343	39.176608879591974	36.93138626925759
O	-32.03165252089499	39.230176911453775	36.713558733129254
O	-33.33751365108937	39.29305406835841	37.25834091131158
O	-34.289148265587194	39.07341962235661	36.09200969784039
O	-33.84654879915269	37.91534847140181	35.293135456639426
O	-32.988973593857516	38.100101502282875	34.19146376596999
O	-31.674860589592168	38.7121652802689	33.95940482346596
O	-31.368205244927626	40.038266148582	33.52405111360936
O	-30.65831368344497	41.17744930039178	34.04111653335637
O	-29.29012854966102	41.516139501764144	33.58688274772379
O	-28.523920649655224	42.527495991649545	34.373502147892495
O	-29.251620719251015	43.40798544101738	35.31806044071989
O	-30.37737019682685	42.80066349734469	36.03487199830753
O	-31.210165013062355	42.014831340683266	35.105998104837596
O	-31.526266903528523	35.480525772603926	30.07472962494149
O	-31.73485367711317	34.809822032061	38.18105805756805
O	-32.240528271798475	36.924138921669474	43.42598957083784
O	-32.36074551756534	40.43829844516335	40.66309330152749
O	-29.459351903515884	39.591783141672906	36.37931036753672
O	-34.15169251539988	39.535673808495744	38.38737910194732
O	-30.656146306828646	37.62527386370061	34.077380738039665
O	-30.747434246259736	34.17262689047445	36.15691424948141
O	-27.37264897352032	38.59049124665586	38.91156953491874
O	-26.30541907309772	42.16591455807806	34.49383388769668
O	-28.199704563455118	37.58501548983127	36.37255952525881
