69

O	-35.063443151527814	38.53028518648457	32.03343988461255
O	-36.908257642486525	36.76102874040657	31.993716916258645
O	-33.73999305501315	38.18820502195178	32.02952223531452
O	-35.512742264295085	40.47963876972309	39.01935449572081
O	-36.35437944371154	38.08105008623769	32.551241893534
O	-35.12648217655404	39.7111391825292	31.500913450443587
O	-37.509377147524006	38.98397833908552	32.241915456262404
O	-36.26425581848365	34.932094511245104	31.181986960669057
O	-37.95452482079271	38.641958438110734	30.847123511944055
O	-33.796174006525774	35.10675210334029	32.27009888999797
O	-38.83721404441518	37.35162740389455	30.751271229526296
O	-35.88212512700439	36.63397351018007	34.4838101332389
O	-38.352845371641436	36.54956539114202	31.904905278541346
O	-36.63005623548007	34.944805618048996	33.30217019694475
O	-35.84330314504764	36.131814237700326	31.32125604314365
O	-34.85086614750959	35.84908841308143	32.37247167879981
O	-28.86420959093016	39.51787704764202	37.55107971195318
O	-35.467326423982186	35.53436918563918	33.73722617623241
O	-28.13782546861242	37.63293955984169	36.10470086311389
O	-34.51092857614619	34.81302966188693	34.52863821532677
O	-30.634549096372698	35.82824806100062	37.10008680937669
O	-34.412721798439094	34.87609270556705	35.984078383859035
O	-33.946391333944405	39.799950655729255	34.049661342174495
O	-34.92747625656801	36.231547131417535	36.360768688035165
O	-28.87024683486206	41.63278956961546	35.38951569007566
O	-35.371889694795534	37.42613479624077	35.525668032311735
O	-29.327273092200688	44.90394052856063	35.17870548388137
O	-35.53936551324109	38.78357269586464	35.76137632705265
O	-34.98704261842058	39.32779697332802	36.900874278759105
O	-34.89348333301031	38.04721632710543	37.752064469990856
O	-33.80784127356991	37.740208158381705	38.507596255163286
O	-33.275347872548295	36.320310139856076	38.73843619600725
O	-33.49547783803733	35.60424724011271	40.00756629313879
O	-32.93907391976946	36.4568891148352	41.114140652198785
O	-32.39478647501361	37.57546172914165	40.7309440499173
O	-31.212278927024922	38.31425979192369	41.09332363320032
O	-30.240168368461973	38.02070414858221	39.94844334851296
O	-30.69430588824698	38.752980702570326	38.742173051180295
O	-29.800712552189793	38.68231637086792	37.52873495152044
O	-29.446667390162858	37.699791123086044	36.48846134934337
O	-30.304185125142325	36.615131768048	36.0496979882992
O	-31.49799586628037	36.75683988906505	35.13522786049592
O	-32.17725453658635	37.543847103478946	35.8605834079617
O	-32.398862248138194	38.947876163015216	35.835465011953815
O	-33.097279740457715	39.29185629400991	34.646049478579556
O	-33.14811886208665	37.86802218790027	34.07780551564398
O	-32.58275730707675	38.083774443664936	32.818211358995406
O	-31.675784364817492	39.241953618570136	32.860388111909685
O	-31.88600337308576	40.69577172951453	32.783961643352484
O	-31.32479301507803	41.72166273592764	33.614853272544565
O	-30.038820787353867	42.39944391649584	33.41338531358267
O	-29.188072880867374	42.6976057351067	34.59927532221224
O	-29.8919074832889	43.696931911424635	35.472829074335586
O	-31.294092489176943	43.37640508800879	35.52203743762419
O	-32.050833174596335	42.697108856347526	34.45746242305124
O	-34.567419273529154	33.34150568915552	34.038612921879164
O	-36.01606902547254	38.17527571696644	38.81337404924673
O	-30.58977048415176	37.536250660575746	42.273119405435025
O	-30.608094087646723	40.25819570773571	39.095043586238
O	-31.906444201410885	35.350285802115216	34.61161814805935
O	-31.534732242134023	40.04270341045459	36.11836103572675
O	-30.295919194289652	39.01347383285544	33.41230740562673
O	-34.424667605298495	40.53799658237023	37.41171126971726
O	-27.54201329807411	36.53219451351779	36.740476448633515
O	-27.757967744747702	40.99003334133404	34.823780402519034
O	-34.47812844733491	40.37342815192847	40.45807346129372
O	-33.40416875191245	40.641724578911834	39.67384201134609
O	-33.51159171535918	40.931399672876466	38.31505079232782
O	-34.67084199823418	39.40293986076155	41.65197389697297
