32

O	-30.317692907552363	39.95832410762699	31.615014643481782
O	-35.152611568083564	38.56203189972914	32.93889292465634
O	-35.21258872567246	40.70366891017783	32.547355736184905
O	-37.29478310085745	37.78839386015294	33.37060524976289
O	-32.30928164487357	33.89558796149103	32.40735477766526
O	-36.39959638916569	38.0767164005898	30.41058369969257
O	-33.22766203088877	39.46154112643023	31.4670373222833
O	-35.43771981976825	37.77738311120793	29.105261579201297
O	-36.232467023184874	34.88630621683245	36.330702977503584
O	-36.29788989288815	37.147507464345324	28.02749388353896
O	-35.45048732450697	35.94252234082652	36.78421852443175
O	-34.73027468262755	38.89810412532939	28.471073194377556
O	-35.871903318570006	34.24311907028998	35.15316824211641
O	-31.716849845532717	38.23153475622653	32.60731925474505
O	-34.591786059870095	36.59572649680946	35.94195145948038
O	-34.76090770921137	34.76995492864743	34.50514527275691
O	-34.30877114894234	34.43649859635992	31.033394894011607
O	-32.39457069984051	35.7083563543916	30.776248797795592
O	-34.924684914176154	35.533299732328	30.494663214804746
O	-33.0461515367094	36.62801476740049	29.94752558774313
O	-36.7598248426322	36.84356382030369	31.014229067076922
O	-36.6532100676265	36.430920165384975	32.424607166863225
O	-37.80343781726731	38.742050591391326	31.93147567808865
O	-30.80689321910885	38.538340544680025	31.58646678729342
O	-33.609126234449505	36.77727907276406	33.727190596229995
O	-32.9791760465458	34.581757352013376	31.27826003491023
O	-34.28632071031736	36.026824834860534	34.753189715612706
O	-34.363022590124295	36.454110456403725	29.636985565660567
O	-36.58590161958497	39.25608841508317	31.144813530682026
O	-33.92107237054021	38.20675696089749	33.46236726398002
O	-35.422620750218705	39.60456346337867	31.993979919089366
O	-33.00807892931961	38.628728946284625	32.371588549536476
