107

O	-2.884015402973685	1.7483763127894734	2.3986564638052625
O	-2.641958589973685	3.9840196457894734	1.1827230038052625
O	-3.813204632973685	1.5636291177894734	3.3840651068052625
O	2.9695764570263155	2.1502020737894734	6.685712613805263
O	-1.9880380329736849	2.7670405547894736	1.8546019438052626
O	-2.6682036169736847	0.5751799157894735	1.8897262438052624
O	-1.1125132249736849	2.3046341957894736	0.7300493038052625
O	-4.396444752973685	5.139938145789474	1.2481065638052624
O	-1.948240968973685	2.3793379967894737	-0.5175712761947371
O	-5.0216118629736854	4.3831798157894735	3.7665194748052624
O	-2.086252068973685	3.8207747657894737	-1.1146433661947373
O	-1.620621040973685	4.419341455789473	3.6397577477292624
O	-1.956715954973685	4.6778861957894735	0.09257177380526249
O	-2.749890049973685	5.859404145789474	2.4314808738052625
O	-4.001538212973685	3.9608781457894735	1.5477576838052625
O	-4.0003942629736855	4.141979555789474	3.0096469988052625
O	-2.329237238973685	0.1440524457894734	10.582087883805263
O	-2.865650532973685	5.0314539257894735	3.5223050868052623
O	-4.5845741229736845	1.1408488177894736	10.277970253805263
O	-3.218189242973685	5.541523315789473	4.817259233805262
O	-3.281938602973685	3.9387720057894735	9.300166593805262
O	-2.266582823973685	5.858752075789473	5.878267593805262
O	-1.5987403109736849	0.7790263857894735	4.480346351805262
O	-1.0959226359736849	4.952628225789473	5.648879863805263
O	-2.818289672973685	-2.3360772342105265	8.922258093805263
O	-0.8554945109736849	3.822472305789473	4.655462523805262
O	-1.2045641969736849	-5.126606724210527	8.172206233805262
O	0.018874847026315145	2.7471973717894733	4.581258457805262
O	0.7123423570263152	2.3820592027894736	5.715045543805262
O	0.6479319270263151	3.7220249257894737	6.4723486738052625
O	0.38462352702631497	3.8072197957894733	7.8016761338052625
O	-0.416603902973685	4.934767245789473	8.464713113805262
O	0.24017075702631496	6.007288085789474	9.232984273805263
O	1.0495279070263153	5.358025935789474	10.321327033805263
O	0.9838272470263152	4.0586095957894734	10.359976103805263
O	0.8755616070263152	3.0706746657894737	11.402918463805262
O	-0.5952290029736849	2.6513384317894735	11.349469193805263
O	-0.8095935639736849	1.8301596018894735	10.134038803805263
O	-2.179328858973685	1.2228702527894735	9.958086003805262
O	-3.533432812973685	1.6709772067894735	9.585962843805262
O	-3.823366782973685	2.8244356547894736	8.755416173805262
O	-3.679357532973685	2.880853755789474	7.252885233805262
O	-2.436940153973685	2.6371265077894734	7.1903596238052625
O	-1.6854684459736848	1.4671276027894735	6.894671703805263
O	-1.923022497973685	1.0847148997894736	5.546284803805262
O	-2.924405222973685	2.2056449897894734	5.2404453838052625
O	-4.003638532973685	1.4522567337894734	4.770954423805263
O	-3.9760902629736847	0.10392644578947352	5.360025153805262
O	-3.243130742973685	-1.1288194842105264	5.033332713805263
O	-2.543327960973685	-2.0109270442105265	5.922125513805263
O	-3.1193284529736847	-3.1413872742105267	6.659678453805263
O	-2.6804692159736847	-3.385163154210527	8.062170333805263
O	-1.227263801973685	-3.7663667042105264	8.065331073805263
O	-0.523436452973685	-2.9526209742105265	7.109440573805262
O	-1.1089015619736848	-2.371497214210527	5.890036793805263
O	-4.1853237829736845	6.728796265789473	4.564806241805263
O	2.074725837026315	4.319903395789473	6.3734732938052625
O	0.9532138270263153	3.8630068257894736	12.726139123805263
O	0.06321290702631499	0.5635252757894735	10.311432853805263
O	-4.434541422973685	4.1305692657894735	6.716881493805262
O	-1.499715974973685	0.2583965757894735	7.622588493805262
O	-4.512110202973685	-0.045968884210526584	6.756828583805262
O	1.279867817026315	1.2461665677894733	6.370382063805263
O	-5.004671522973685	2.0760860777894736	11.236975903805263
O	-4.139729082973685	-2.334615134210526	9.395705563805263
O	3.2874751070263155	2.2682954427894737	8.428300663805263
O	2.256063977026315	1.4149066327894735	8.648095993805262
O	1.5355263970263149	0.8155961857894736	7.616874623805263
O	3.7617710770263146	3.5350864057894738	9.186369443805262
O	0.461993187026315	-8.078984914210526	-8.110507836194738
O	14.716985687026314	-2.757672734210527	5.7462054538052625
O	14.921824187026315	0.2868895957894735	3.5579487482052627
O	12.550911987026316	3.1506155857894735	3.3526300008052625
O	-2.713547908973685	7.3655725357894735	-7.445421636194737
O	-5.161481052973684	4.690478685789474	-6.247414876194737
O	-9.705201092973684	7.545619675789473	-4.279170756194738
O	-6.327192202973685	8.873223995789473	-3.3775505461947373
O	-3.3413356829736847	10.643521425789475	-4.855210206194737
O	0.22766550702631516	11.702811335789473	-3.826901726194737
O	-0.8271774629736849	16.661413205789472	-2.761467906194737
O	5.181872777026315	8.819381895789473	-0.4985037361947371
O	7.494187047026315	6.754347555789474	1.9541751038052626
O	7.426461487026316	3.160725735789473	3.4580912308052625
O	9.691439187026315	0.5371706557894735	5.072996503805262
O	9.946346587026316	-2.504085194210526	2.6619008648052627
O	9.556952787026315	-5.736760994210526	4.504792287805262
O	8.012758147026315	-4.596798274210526	7.544492863805262
O	4.522261397026315	-5.2179645742105265	6.2271545638052626
O	3.602363147026315	-2.2828499642105267	6.313792553805262
O	1.9046423370263152	-1.4862931342105266	3.4118464198052627
O	-0.527059112973685	-3.912179274210527	1.6523560738052625
O	1.0614109870263149	-7.1091120442105264	0.34138190380526234
O	0.5123085670263152	-5.814198204210527	-3.276899726194737
O	2.561492427026315	-2.7862397942105264	-2.284050796194738
O	5.407696127026315	-4.740995824210527	-0.8274593261947376
O	5.034151837026315	-4.649697244210527	-6.261172736194737
O	0.40049803702631515	-1.9232197442105265	-10.108374836194738
O	-2.804403982973685	-8.981922694210526	-1.8528581961947377
O	-4.776409852973686	-5.936654134210526	-0.9014759861947375
O	-7.700150672973685	-6.080357974210527	1.5074306838052625
O	-12.759617512973685	-7.780374914210526	3.8302820728052627
O	-12.025301112973684	-4.738123904210527	1.5617659438052627
O	-11.221036352973686	-1.5243219542105266	3.4259063468052626
O	-14.793601712973684	-0.40273061421052647	4.349394929805262
O	-15.157743112973685	3.3303716657894737	3.9711408318052626
O	-13.133905912973685	3.4794228757894734	0.7849602838052627
O	-2.221058693973685	2.0399716757894737	-8.316204836194737
