101

O	1.0595243647857142	3.4356250007428564	-0.09995223557142807
O	1.4687128658857143	4.421881983742856	0.824233040428572
O	0.4895711158857142	3.784643362742856	-1.442812259571428
O	0.2732820788857142	2.5853179607428562	0.4739011204285719
O	0.5663525208857142	2.375362930742856	-2.138841269571428
O	-2.341523913114286	3.144378890742856	0.07217449142857191
O	-0.6012646931142858	1.6461902707428564	-1.541408451571428
O	-4.094274723114286	5.104308945742856	-0.09911374257142802
O	-1.7822953831142856	2.0589218707428563	-2.493213069571428
O	-1.738191853114286	6.329418430742857	-1.9806732095714281
O	-1.4093406331142857	3.4687636547428564	-2.814040429571428
O	-3.6610759731142855	7.280815780742856	-1.357138882571428
O	-1.8829146031142856	4.208517281642856	-0.45658389357142803
O	-0.960224793114286	4.1902469332428565	-1.564710456571428
O	1.1634787120857142	8.769840560742857	-3.059100739571428
O	-2.8464628431142858	5.330855690742856	-0.23158323757142807
O	5.9088977668857146	8.380396320742857	-1.046106650571428
O	-2.527764983114286	6.653356930742856	-0.8807992795714281
O	5.873977266885714	9.044932400742855	1.4676028504285719
O	-1.9038932831142859	7.505645060742856	0.15240650442857195
O	3.716251636885714	9.460316200742856	-0.15299204857142806
O	-1.2221941631142856	8.660245890742857	-0.47629555057142803
O	3.490130286885714	2.6996608507428563	-1.630003241571428
O	-0.7375518131142857	8.531687460742855	-1.876117219571428
O	6.850337676885714	5.702717910742856	5.446717680428572
O	-0.6749051231142857	7.103063270742856	-2.236280489571428
O	4.640774296885715	4.756445716742856	5.788056090428572
O	0.5157125598857142	6.5961724607428565	-2.884579519571428
O	1.5373705378857143	7.460589570742856	-3.472253969571428
O	2.9737586068857143	7.231355120742856	-3.511336729571428
O	3.839059276885714	6.210570220742857	-3.348295549571428
O	4.570876716885714	5.393011780742857	-4.2979339195714275
O	5.720487376885714	5.241541332742856	-4.800379539571428
O	6.966205496885714	4.670882752742856	-4.4180543495714275
O	7.918467286885714	5.120722077742856	-3.673437789571428
O	8.356824416885715	6.307924510742856	-3.066498349571428
O	7.8742167768857145	6.970608570742856	-1.882101729571428
O	7.1265303768857144	6.5660385507428565	-0.6779440122714281
O	5.978418206885714	7.386250560742856	-0.29041021957142804
O	5.271112456885715	7.941134110742857	0.935262130428572
O	3.7728022668857144	8.269504310742857	0.5067920904285719
O	3.394201266885714	7.036014790742856	-0.19527601957142804
O	4.020551546885715	5.900206740742856	-0.12789575757142801
O	4.290646416885714	4.819660376742856	-1.089094894571428
O	3.3548747268857144	3.6362393287428563	-0.898221853571428
O	3.586558836885714	3.463386921742856	0.5851936304285719
O	2.852113686885714	4.6130753197428565	1.1483691804285718
O	2.921112596885714	4.949537339742856	2.579390890428572
O	4.273349366885714	5.362477190742856	3.155959250428572
O	5.405832316885714	4.608296028742856	2.644934830428572
O	6.729776596885714	4.761096718742857	3.281583090428572
O	6.621952426885715	4.536648305742856	4.748004880428572
O	5.438514816885714	3.7386878647428565	5.178322610428572
O	4.472311626885714	3.1203496007428564	4.217781540428572
O	5.191767976885714	3.101522950742856	2.869312910428572
O	-1.1127025531142856	6.791238250742856	1.204153010428572
O	3.7391993168857143	8.538534060742856	-3.2196134695714282
O	8.935076666885713	7.404919520742856	-3.988209249571428
O	7.568862366885714	5.395286600742857	0.10107286642857194
O	1.9159009218857141	7.403147030742856	-0.21208427157142806
O	5.489785196885714	4.132421704742856	-1.497139664571428
O	2.255920726885714	6.315838430742856	2.753728490428572
O	1.4002378148857142	9.714381240742856	-4.035277909571429
O	4.978481556885715	9.892216320742858	2.095537090428572
O	6.552048086885714	6.853867920742856	4.700270840428572
O	0.11471809188571425	9.894186740742857	-4.837613339571428
O	-3.675792183114286	-10.266693129257144	5.238822400428572
O	11.879623136885714	-7.364158229257143	-7.669544649571428
O	9.635994696885714	-4.455990379257143	-8.694465009571427
O	-8.679666213114286	-0.35514552925714327	-5.968554719571428
O	-8.702502753114286	0.5849876007428563	-2.2251429795714284
O	-10.234100063114285	6.228893380742856	-2.0118376795714283
O	-7.975363913114286	5.159432764742856	-4.699146529571428
O	-7.744116073114286	3.2401170707428566	-7.956249459571428
O	-4.9031024231142855	2.346953520742856	-10.44647088957143
O	-6.057530543114286	5.989822380742856	-13.964417879571428
O	1.606814815885714	1.1547176907428565	-9.865980149571428
O	5.299239516885714	0.2727344107428564	-9.026121939571428
O	7.043747426885714	-0.8674947492571441	-5.808484929571428
O	9.994043956885713	-3.1054750092571437	-4.816001159571428
O	9.030972826885714	-6.1498305292571445	-2.671443729571428
O	11.975212636885715	-2.6657875492571437	0.677724090428572
O	9.062389246885715	-1.8045198792571435	2.892245380428572
O	7.818865296885714	0.6884001807428564	0.5953400704285718
O	4.219953686885715	-0.3942320392571439	0.860765050428572
O	2.355250316885714	-1.464042089257144	4.070924140428572
O	2.8264865268857142	-5.0283215892571445	5.604377510428572
O	-0.43990247311428576	-6.192174629257144	4.117187080428572
O	0.8306253868857143	-5.237897279257144	0.6172604904285719
O	4.223150936885714	-6.978543929257144	1.026021540428572
O	-0.23147690311428581	-10.132902329257144	0.16321651542857196
O	-0.9641379731142856	-4.634559439257144	8.72492076042857
O	-1.9272795131142857	-1.1726148192571433	7.178212770428572
O	-1.971019633114286	2.0808819307428563	9.258730230428572
O	-2.536033073114286	6.250800330742856	13.354387120428573
O	-4.266554233114285	5.934280800742856	10.00861312042857
O	-2.684686503114286	7.9123450307428564	6.932785960428572
O	-3.976234543114286	11.418676010742857	7.862752560428572
O	-5.7001424131142855	13.015081510742856	4.954187200428572
O	-7.192327043114286	9.821103680742857	3.5862624504285723
O	-7.940401943114285	-3.828845169257143	-1.900874739571428
