57

O	-35.82754383588107	38.93301512648232	32.52027600737417
O	-34.87479012647087	37.99257469902089	32.06871323700268
O	-37.19154855900555	38.40906170177617	32.57197375572243
O	-35.7138957896495	40.05223098487848	31.903584622314373
O	-38.191492892643375	39.511140468674924	32.629387916691755
O	-37.190228675320824	37.54552398475472	29.53192170429642
O	-38.611491795787245	39.583689331945806	31.160091825123367
O	-37.60695696104753	34.83858145277267	29.29772349145544
O	-39.68822702507807	38.4563722549308	31.07348168886125
O	-36.46712019975751	34.81426477000788	32.25977537918214
O	-39.11025137256884	37.33577856880814	31.8578294471557
O	-36.4916232262508	33.14699782617493	30.781633643370903
O	-37.62409211883088	37.239642063044606	31.746222039271938
O	-33.83875508570439	33.87793124077046	34.119390982056764
O	-36.959079112083515	36.833614326755935	30.574191649341024
O	-35.47183891293301	32.90657178277972	35.156158685230636
O	-36.80670702424512	35.4313617245426	30.12083213209369
O	-32.266318602815645	38.84477146678156	36.21434467019005
O	-36.07925754168699	34.44945843327801	30.990813544326468
O	-33.94380844378619	39.68855368278162	34.39422200870741
O	-34.608115970392724	34.567671394664686	30.740886898140854
O	-27.55652333015255	39.820674218892194	34.32724051408947
O	-33.79456404661951	33.89413363725302	31.795137954503144
O	-28.76039831780364	42.36513798752111	35.52007294692955
O	-34.56429084138938	33.561407414023584	32.98654925508225
O	-36.02468311222403	33.85049107772999	33.119703640461395
O	-36.31307973226702	33.875204340084565	34.542215941153806
O	-37.198409606108015	34.6200880875818	35.44608331952557
O	-36.485188078268756	34.93462467805106	36.7610060382941
O	-36.4116375630527	35.95807201250395	37.801213640638174
O	-35.4715320659345	37.1417031483643	37.72306477306541
O	-34.380607552059885	36.944189163081084	38.47857494954117
O	-33.12323599153104	36.98227696865469	37.64808193405078
O	-33.03005882653386	38.104448628423434	36.75723799440019
O	-34.4120642000006	38.70793032954004	36.41266484040841
O	-34.48393141852574	38.5933152263951	34.94440881694628
O	-34.813751702469496	37.312467681125526	34.30622112197804
O	-34.27925104538465	37.02868193405804	32.936147781746634
O	-32.82714191035194	37.57895839799931	33.12888159708999
O	-32.06434537668039	38.726882913479365	32.76110597150121
O	-31.11483911593471	39.590474940215586	33.4405200466207
O	-29.7021520968681	39.276480120267685	33.668812507092
O	-28.905356027724768	40.100314428145516	34.64091469031554
O	-28.902605194243122	41.60489141090229	34.39733715703805
O	-29.97836835059519	41.88022964980602	33.44916628225492
O	-31.223166189841493	41.07142334455944	33.40026514623601
O	-34.15434706793989	34.03657557579619	29.421377762971687
O	-35.99686948479833	33.60461355591893	37.32246361378147
O	-36.37360917296052	38.23717190407523	38.40296870941989
O	-32.11898394733617	36.56649158403647	38.62226345677777
O	-31.351006751079012	37.93456898031875	38.636892675255716
O	-30.060554686788805	37.48769127251073	38.713641199364325
O	-36.26720492963124	37.239122495458524	34.526361749592425
O	-32.07473934036637	36.58820701441504	33.9547971467107
O	-32.60246266154027	33.27381373376693	34.223416030424126
O	-35.58684832399963	31.784052972542895	34.31782506686991
O	-27.099723603848215	40.578290958797076	33.26649360538444
