100

O	2.649561620029411	-1.6330795836814709	1.4287821530352942
O	3.4680471270294113	-2.736996171681471	1.3533166580352942
O	3.261496727029411	-0.3703945416814709	1.8464987200352945
O	1.6257502800294112	-1.6536020876814708	0.6525259910352943
O	1.9897341390294114	0.5379889183185291	1.9752012550352944
O	3.9800832370294112	0.10974109831852918	-1.2485936889647058
O	1.8274064560294114	0.9002144883185292	0.4941723010352943
O	6.632554397029411	1.003973698318529	-1.3089978389647055
O	2.760224494029411	2.159043858318529	0.35951947103529425
O	6.260157837029411	-0.46633959368147093	1.6616029810352944
O	3.8784918770294112	1.835813558318529	1.2804727110352943
O	8.057605917029411	0.5176635983185292	0.7659022010352943
O	4.699596337029411	-0.01614712168147081	-0.2229537589647057
O	4.326426527029412	0.39842216831852917	1.1361131210352944
O	7.837439257029411	-0.3101863516814709	5.776181001035294
O	6.161118527029412	0.02170084831852903	-0.6218750089647056
O	5.170451367029411	-5.256553191681471	7.294099751035294
O	7.063950317029411	-0.40436229168147086	0.49738288103529427
O	4.924770927029412	-7.3819893516814705	5.569064561035294
O	7.645282397029412	-1.773071759681471	0.33372005103529423
O	6.315881807029411	-6.00331142168147	4.161302921035294
O	8.667844207029411	-1.779171526681471	1.4884183840352945
O	1.0837247970294113	-2.082795989681471	3.6381124910352947
O	8.256283157029412	-0.8943412786814708	2.6153654800352943
O	2.6348917320294114	-10.591319321681471	1.9978507260352942
O	6.975136297029412	-0.250447561681471	2.8122248090352944
O	1.4725083910294114	-9.745852561681472	4.2947174910352945
O	6.258094837029411	-0.17965756168147085	4.084894101035294
O	6.5838069470294105	-0.7187171526814708	5.3597564410352945
O	6.062319787029411	-1.584780550681471	6.388209361035294
O	4.893800757029411	-2.082540445681471	6.856465971035295
O	3.937536357029411	-1.4594524777814708	7.740138601035294
O	2.6948631490294113	-1.294217186681471	7.949199491035294
O	1.7377737690294113	-2.155947323681471	8.622885751035295
O	2.1577720366294115	-2.7671272516814707	9.697370781035294
O	2.5207753410294114	-4.140316861681471	9.947570771035295
O	3.1010023980294115	-5.012002991681471	8.892421181035294
O	2.9782989790294114	-4.804038671681471	7.435211881035295
O	4.092074747029411	-5.36296189168147	6.651595591035294
O	4.386031007029411	-6.117512221681471	5.4174746510352945
O	5.081489937029412	-5.338702361681471	4.4058821710352944
O	5.2594716970294115	-3.926774791681471	4.1261413810352945
O	4.407597667029411	-2.9524010616814707	3.913566851035294
O	3.1759563370294113	-2.3752082276814708	4.429033271035294
O	1.9827627850294114	-2.863174121681471	3.7050314410352945
O	2.2478998920294115	-4.123019441681471	2.992152040035294
O	3.435081007029411	-3.928713371681471	2.0929445450352944
O	3.5700895570294113	-5.027505231681471	1.0442600810352944
O	2.5427509830294115	-6.141977011681471	1.2682736650352944
O	2.7803205220294114	-6.917878391681471	2.5114475050352945
O	3.195879047029411	-8.329338051681471	2.2372644905352943
O	2.0995863909294115	-9.318633171681471	1.9997800490352944
O	1.0109517370294114	-9.30043349168147	3.069842298035294
O	0.6008819370294114	-7.8736513016814715	3.2082640910352946
O	1.7149563610294114	-6.92754997168147	3.536955631035294
O	8.470228967029412	-1.9998784776814709	-0.9012385289647056
O	7.092070947029411	-2.691796421681471	6.7428729210352945
O	3.6215569270294115	-4.0778349916814705	11.045862201035295
O	1.7819425050294113	-4.32546618168147	6.767392431035294
O	6.658869287029411	-3.407903411681471	3.5994825410352944
O	3.036688577029411	-0.9292020236814709	4.731747591035294
O	4.897648587029412	-5.6914086416814715	1.2860096050352943
O	8.938108227029412	-1.019663324681471	5.387533751035294
O	6.072069817029411	-7.308405141681471	6.344911011035295
O	3.4775768870294113	-10.825788411681472	3.0715171690352943
O	10.060069627029412	0.020980608318529104	5.277358001035294
O	-11.11742143297059	0.547028738318529	11.515238891035294
O	-7.57763457297059	1.947165658318529	11.325715861035293
O	2.8216207720294113	9.81497355831853	-2.3435116789647057
O	3.4702588570294113	6.913321678318528	-4.788893748964705
O	9.214620007029412	6.2825715183185284	-4.987915228964706
O	7.707049637029412	7.020908798318528	-1.6734049089647058
O	6.031724237029412	9.646420558318528	0.4240582110352944
O	4.405799437029412	9.982430458318529	3.8800910110352946
O	8.259690257029412	12.508036758318529	6.212011351035294
O	0.7702262470294114	6.1697922583185285	7.741928571035295
O	-1.7119395629705885	3.803260778318529	9.455406631035295
O	-3.437310872970589	0.5650395083185291	8.385968111035295
O	-6.48812157297059	-1.5393707526814708	9.370070031035294
O	-9.077093732970589	-1.7856730026814709	6.5236266210352944
O	-7.175772062970589	-7.000319591681471	7.1327603410352935
O	-5.220280882970588	-7.211660281681471	3.9356000010352945
O	-2.304496902970589	-5.320083671681471	5.160672321035294
O	-2.1465741829705887	-3.165250081681471	2.1693903758352944
O	-2.5812472329705884	-4.067661751681471	-1.5637827389647057
O	-6.123175222970589	-4.6087080816814705	-3.021590688964706
O	-6.0746346129705895	-1.195304452681471	-4.688965308964706
O	-5.342553102970589	0.4524695583185292	-1.2754541589647057
O	-8.134619932970589	-1.434768672511471	0.5023916410352944
O	-9.630240032970589	2.7179004683185295	-2.8782816989647055
O	-4.674880262970589	-4.723344311681471	-7.747000208964707
O	-1.0081135229705889	-3.930625721681471	-6.595487718964707
O	1.9110197630294112	-6.307901251681471	-7.333739288964706
O	5.762586117029411	-10.235471051681472	-9.361598758964707
O	6.233263217029412	-6.47490757168147	-8.751323558964707
O	7.7545179070294115	-5.687417971681471	-5.251968928964706
O	11.43954785702941	-6.472222951681472	-5.680316018964705
O	13.64358896702941	-3.646509611681471	-4.611863158964706
O	11.295478357029411	-0.8618978806814709	-5.764437558964705
O	-0.8948819329705886	7.297778368318529	-5.415394608964705
