107

O	-1.9153153437368438	-3.1305222636578947	0.855933296789473
O	-0.5711715247368438	-4.676411061657895	-0.5862822032105268
O	-3.0868061307368437	-3.9124377616578947	0.9350172267894732
O	0.884508505263156	-2.5877683226578947	6.636837236789473
O	-0.5767410447368437	-3.763796791657895	0.5580444267894731
O	-2.1518550577368436	-1.925961771657895	0.5098993367894731
O	0.5818559152631564	-2.887781787657895	0.5442762367894731
O	-2.7887069917368437	-5.003195091657895	-1.4381979232105269
O	1.2878955752631565	-2.696256441657895	-0.7437957632105268
O	-1.7160791417368437	-7.659543441657895	-1.267393253210527
O	1.4776580952631564	-4.017800721657895	-1.555245403210527
O	-0.6492756347368438	-6.0758321216578945	1.7078044037894733
O	-0.008425664736843697	-4.180974921657895	-1.8599769732105265
O	0.02146177526315629	-7.935390141657895	0.4296978067894732
O	-1.8895555107368436	-5.290777111657895	-0.627597603210527
O	-1.4529280747368438	-6.659792401657895	-0.5509314432105268
O	-5.8957681047368435	-3.9931454116578946	8.218852546789472
O	-0.9873965647368437	-7.001997351657895	0.8616486567894732
O	-7.085377434736844	-5.0077117516578955	6.223764566789473
O	-2.086723556736844	-7.844100361657895	1.331672096789473
O	-4.365430424736844	-7.208450171657895	6.3530209467894725
O	-1.6047435417368439	-8.148185701657894	2.653302360789473
O	-2.7399531067368437	-2.365494252657895	3.2281942597894733
O	-1.0826390747368437	-7.057931201657895	3.649410526789473
O	-6.959495184736844	-1.579899168657895	6.7417421367894725
O	-0.7506290147368437	-5.745300871657895	3.0915168487894733
O	-7.011087264736844	1.6181002383421053	6.394747656789473
O	-0.8302978647368437	-4.2697958616578955	3.537853626789473
O	-0.2199413047368437	-3.455311101657895	4.519129806789473
O	0.36380110526315645	-4.8228747816578945	5.1221140467894735
O	-0.40223258473684353	-5.104656051657894	6.1472430167894725
O	-0.8733809847368437	-6.2118952616578955	6.922125886789473
O	-0.7202338947368438	-6.358730951657895	8.193412036789473
O	-1.6840448937368437	-5.6767939816578945	8.966279666789474
O	-1.8391711297368438	-4.984792271657895	10.030718196789474
O	-3.184314379736844	-5.252846441657895	10.503651716789474
O	-4.211772204736844	-5.572283101657895	9.456473476789473
O	-3.7804313747368434	-4.841252051657895	8.217536256789472
O	-5.078731464736844	-4.556866401657895	7.462362126789474
O	-5.845233494736844	-5.471083551657895	6.550476896789473
O	-5.115573624736844	-6.320869931657895	5.622871696789473
O	-4.198185614736843	-5.856476311657895	4.500843076789473
O	-3.367851172736844	-5.174953841657895	5.196911166789473
O	-3.3216701077368436	-3.754224841657895	5.163196036789474
O	-3.1468168887368435	-3.2781039216578947	3.818946926789473
O	-3.026529037736844	-4.489804091657895	3.020167541789473
O	-3.9608427147368435	-4.257293661657895	1.9777944667894731
O	-4.997593394736844	-3.3221515016578946	2.450889505289473
O	-5.108321404736843	-1.8534843096578948	2.5902556017894733
O	-5.466232574736844	-1.0085493716578948	3.709239636789473
O	-6.6832734647368435	-1.1690608216578948	4.483167626789474
O	-6.963079974736844	-0.5991609516578948	5.791392756789473
O	-6.169302344736844	0.5359569983421051	6.363701136789473
O	-4.886842034736844	0.5053706583421049	5.703605766789473
O	-4.657350034736844	1.5838342104945724e-05	4.353934076789473
O	-3.2107300147368436	-8.354262551657895	0.6151288067894731
O	1.7159513252631564	-4.690972481657894	5.851382186789474
O	-3.1195979517368437	-6.540888301657895	11.349788126789473
O	-3.4733823247368436	-3.424900751657895	8.775438706789473
O	-3.9851019347368437	-7.107034091657895	3.601902106789473
O	-4.122920544736844	-2.798700114657895	5.872984516789473
O	-6.042787994736844	-3.8481096716578946	3.3955361667894732
O	-0.7157499547368438	-2.545315911657895	5.526394426789473
O	-8.058794494736844	-5.909040311657895	6.682150736789474
O	-8.210518744736845	-1.655612991657895	7.368994736789473
O	0.4451040652631564	-2.914686748657895	8.327104416789473
O	-0.8210245247368437	-2.621227102657895	7.963904966789473
O	-1.1901423547368437	-2.185561783957895	6.7231562667894735
O	1.1362847752631562	-3.9672171816578947	9.227312836789473
O	-0.2521822247368437	9.365776188342105	-6.767981813210527
O	7.050401645263156	7.279968628342106	12.410850206789474
O	9.762719135263156	5.446238858342105	10.556566816789474
O	9.593194135263156	2.003250068342105	9.090698986789473
O	4.8253838852631565	-5.605516621657895	-7.915873393210527
O	1.1464333552631563	-4.720595701657895	-8.053948593210526
O	-1.6252783407368439	-9.723423031657894	-8.491837593210526
O	1.1836003252631562	-9.538092811657895	-6.115216993210526
O	4.9314123652631565	-9.340430091657895	-5.990634483210526
O	7.790149135263157	-8.943841671657895	-3.415047243210527
O	9.084991735263156	-13.949335011657896	-3.078259633210527
O	8.593917335263157	-5.298611451657894	2.184335884789473
O	8.278699635263155	-3.052437933657895	5.466756206789473
O	5.756098815263156	-0.2951491716578949	6.601934016789473
O	5.377577815263156	2.462493428342105	9.235184806789473
O	4.964480885263156	5.815135498342105	7.332383836789473
O	2.1950005752631565	7.836681788342105	8.805272256789474
O	0.3664665552631563	5.340549098342105	10.607588716789474
O	-1.9453378387368438	4.749543448342105	7.670020546789473
O	-1.1227933547368438	1.7255055483421051	7.313351286789473
O	-0.8112104147368437	1.325675388342105	4.049667026789473
O	-3.051072283736844	2.768481638342105	1.1327248567894732
O	-2.9579533257368436	6.552490078342105	0.856419476789473
O	-1.1531409847368437	6.306764768342106	-2.5348909632105268
O	1.493685845263156	4.235024758342105	-0.6689709732105267
O	1.9745424552631565	6.829299718342105	2.0393793607894732
O	4.130588275263157	7.861179688342105	-2.875581553210527
O	3.631549425263156	4.468018458342105	-8.576613693210527
O	-5.867326274736843	7.040899838342105	-3.0006123632105273
O	-6.187696414736844	3.3023888483421047	-3.1901808432105265
O	-9.446384684736843	1.469444718342105	-2.6527341232105273
O	-15.077718664736844	0.09882848834210511	-3.1483875332105264
O	-12.000047794736844	-1.678275996657895	-4.677821173210527
O	-10.660807164736843	-4.5198591616578945	-2.618107523210527
O	-13.133155764736843	-7.306140301657895	-3.5750172932105264
O	-11.326363324736844	-10.607004791657895	-3.917911243210527
O	-8.361459954736844	-9.127724971657894	-5.686434773210527
O	2.8490354752631566	-0.5772002216578949	-8.401070493210526
