27

O	-37.349176577393045	37.83347393452713	33.483086434533014
O	-37.32233959188998	37.27135383798017	31.08401712195981
O	-35.34922770963061	39.7952592660022	32.20835647536232
O	-38.5598690086868	39.05732249156508	32.95260501014063
O	-37.270375475460504	36.73359093774649	32.41741634746005
O	-34.83188038154455	37.673972781961645	32.28295112297234
O	-32.0231756620154	38.603724191919355	33.13540998346174
O	-37.04155892466289	36.35293655616024	29.791629043412097
O	-36.886041017176055	38.60474798110592	30.97975292075259
O	-31.782673415053225	36.566827376583866	33.98745063064334
O	-38.281900304988454	39.13065149124297	31.177866344250468
O	-36.65259847682284	37.13066369438961	28.599635804888358
O	-35.78145373966824	38.63116765420763	31.91846435753633
O	-38.25916290402577	35.60267191426151	29.38827819645681
O	-34.0437921262012	37.497035976364366	33.46158743638881
O	-34.42410128237734	36.232100263571965	34.10021095835039
O	-32.57980919248899	37.50038231268161	33.30004443850329
O	-34.760282804804994	35.99455691039279	35.498512954773595
O	-35.42448764871249	34.61174316831318	35.58011396041191
O	-35.88031121961156	35.22132193398384	30.401140795290154
O	-36.09074069424946	34.714729694213695	31.678184199522573
O	-35.28945440943738	33.64485000030287	32.09275308254333
O	-33.949752487420135	33.79405121655178	31.796400652819294
O	-33.7196140640294	34.39460217008088	30.562196701936085
O	-34.56643325378727	35.416819007183854	30.129656415980303
O	-32.84295943406672	33.525585691142986	32.7682051577288
O	-35.71224831550201	36.91088554563076	36.19026492671772
