67

O	-27.02603019154271	43.48909090617054	34.09082113592995
O	-26.75757262874246	45.88445794069702	33.47543578173702
O	-27.719119804584317	42.40509849102864	33.54744063284874
O	-27.240042820451627	44.867561188182655	34.44698904818404
O	-25.492845590880595	37.08495823749564	33.71183990951648
O	-25.850683461691027	43.53039458637308	33.53556357722187
O	-28.635807392852957	45.337393983714314	34.85376037548927
O	-27.8013334704405	45.93299804157361	31.350381801946952
O	-28.316378630522603	46.32764505061896	35.99038494105893
O	-25.51615110458453	44.37471577875915	30.580034554244754
O	-27.142994740070773	47.15651617274772	35.458093674932755
O	-23.511659566624072	45.84287272761769	31.738597534671342
O	-27.356508786874898	47.1726112786224	33.94366104995353
O	-24.1571455561011	46.57402919461094	29.65383421973514
O	-26.758375754152755	45.67524804512106	32.05424518436752
O	-22.35276638034403	47.349686262779514	33.395321308960746
O	-25.62946505795427	45.44858856543424	31.175837022112557
O	-21.707962131231604	44.71912387635177	33.88755897356753
O	-24.484934365585467	46.393770939577706	30.97125325809763
O	-24.429890701041717	43.30576435614222	36.1840851325319
O	-24.68321818237063	47.74878886444277	31.603321013534178
O	-28.7398167504587	43.04399158955986	37.06870325467154
O	-24.61633893032045	47.81390320246245	33.13343959742607
O	-31.222740584779256	36.44736074308699	37.17949960253686
O	-23.61530577316375	46.84654843081764	33.76410671881598
O	-31.483204239425177	36.85068000492602	34.45023821764012
O	-23.81485797917014	45.56733723587829	33.04660983270443
O	-22.893739871481092	44.36342855138426	33.287839473292124
O	-22.790090987956013	43.51884058270175	32.05466828323715
O	-23.472295968752952	42.234416468111974	31.876144057955074
O	-23.20091965660959	41.14617056297673	32.85770463612549
O	-26.135880252525002	38.824545352946565	35.355766600409815
O	-24.56862008070831	40.75523764927394	33.42888417232237
O	-24.5858293857987	40.67825635195879	34.72081265171231
O	-25.350166957258015	41.10382871308286	35.87294007364147
O	-25.182580891556228	42.41401750937663	36.51136358255706
O	-26.46304917682847	43.030676093117606	37.04298189067566
O	-27.651381726253295	42.775883400771654	36.2709367223218
O	-27.146095382817617	36.87193358135197	35.26422568699885
O	-27.774737438303426	41.482445052118244	35.64261823475692
O	-27.88584683319075	41.214103141540015	34.24176122359317
O	-28.796675850545192	40.14763216656326	33.99708228263357
O	-29.753647778169903	39.92445071687887	34.91935371847917
O	-30.786997413247526	38.91194998099519	34.969221474510725
O	-31.00854816752167	38.66864278369895	36.52636756384922
O	-31.940724949641677	37.50905061857798	36.67153337172927
O	-32.53801833902377	37.18367628294291	35.34998832506436
O	-33.17867813476092	38.2999509630678	34.60658080971966
O	-32.20782452237522	39.48947794258269	34.70525610925998
O	-25.960135282407187	48.38160087099327	31.13076456043001
O	-23.37566823213227	41.81469901433254	30.438418558195675
O	-25.365054875763594	40.046875448823556	32.37016858274448
O	-25.055176932412927	40.105278910280745	37.00266868211718
O	-27.977975956316406	33.63072669820398	33.619458894468366
O	-29.122563532620564	33.70036664396852	32.829266281079995
O	-28.44867438292178	40.64374396997072	36.6909898722039
O	-28.47328985613625	38.97534332119095	33.221587431118344
O	-22.47467324791684	48.728055542893905	33.392479153002036
O	-22.055986896384034	45.24590292922211	35.14673175967128
O	-30.23370966402083	36.13381813771894	36.23328668786452
O	-29.577053808333815	34.99933439068704	32.60216102853093
O	-28.564898873435272	35.83333931402331	32.11007689657003
O	-27.364119185247937	35.827443101214605	32.759992846596255
O	-27.12081285540313	34.711193015786364	33.57345295005248
O	-26.173424525607743	36.651852556507805	32.531142228847735
O	-26.069313859181506	37.468747847797246	34.93760135328713
O	-25.945159653146593	38.9330635506201	36.7468453878176
