33

O	-35.725627906364544	40.44489005694774	30.826111636284754
O	-35.216083604292	40.95515837394461	29.769089217435752
O	-37.14842246929918	39.871735409016395	30.785615044234518
O	-34.81260135766944	39.48894478566634	31.169168196567853
O	-37.819105999467794	40.600055433650674	31.822367612577033
O	-36.09149327412582	38.67152531686071	28.845422713344487
O	-37.41081647486227	40.193940577470094	33.14989583696219
O	-34.01413930253978	37.40416699538682	29.441780728617786
O	-37.80726293548319	38.78420325414599	33.25818633259905
O	-37.342949213202985	37.94808618817967	32.19794162904583
O	-36.91322730547813	38.437285681171446	30.98870700033514
O	-36.045754896902494	38.10037845593136	29.992276233551696
O	-34.97428169336923	37.219849982212395	30.17712452817829
O	-35.02617502821654	36.04094441275283	30.932123903358615
O	-36.31378688696479	35.895716735760004	31.565775333450922
O	-37.21192146341173	34.79613420878803	31.163606350118954
O	-35.310674337700505	35.21797818519004	29.59530471519993
O	-33.882285210353885	35.11894542386307	31.10856422750642
O	-33.70038853862816	39.65811264715904	31.79838750531584
O	-34.472484083895026	39.19152413833327	33.079860196205004
O	-33.842487465241916	38.12523593322716	33.790500586509275
O	-34.496992923705164	36.885906422214575	34.04429709579335
O	-35.62891787097606	37.008257632765954	34.86069985476707
O	-36.580352867534785	35.99570675435298	34.86877966526998
O	-36.117032035113766	34.71697915995558	34.737566777194516
O	-34.853640790733664	34.571604011316765	34.23861817767401
O	-34.01041147954098	35.641592212503916	34.309375773819525
O	-32.57552781732904	38.72526555962478	31.874097692615496
O	-31.967162428750296	39.26863247187541	32.949548986873445
O	-30.801400991635084	38.82900385950992	33.62784537044469
O	-30.543350880283192	37.50850590946658	33.45353694865339
O	-31.38603813259974	36.74325658880874	32.702557370301705
O	-32.41224946273795	37.418769690098074	32.11330989898073
