104

O	-1.8569971692285727	1.9340804073035716	2.9725073136071423
O	-3.6036772279285727	3.3207796433035717	4.034398033607142
O	-1.0073545549285727	1.4740469763035717	1.9441293436071423
O	-3.9387608779285728	0.9106792053035716	-0.13676957739285772
O	-4.487211357928572	0.1462169783035716	3.473505353607142
O	-3.0479061879285725	-3.033986006696429	4.4569221636071426
O	0.09941174207142733	-1.5841853066964284	2.604723143607142
O	0.3872204420714276	1.1979491083035716	2.270315253607142
O	-4.676396317928573	0.33955336330357155	-1.2866832263928578
O	-5.4277584179285725	0.6409804943035716	4.441819643607142
O	-3.4093350779285725	-2.8179621866964286	5.858078273607142
O	-2.5010768299285724	-2.3456193166964283	6.688818493607142
O	-5.374278127928573	1.4536016283035715	-1.980602596392858
O	-4.001023327928573	-0.5195463366964284	-2.2823948463928576
O	-6.550421387928573	1.3012106563035717	3.7525318836071424
O	-5.655487267928573	-0.09408816669642839	5.704185133607142
O	0.08444221207142744	-0.09453803669642835	3.587844733607142
O	-5.8586496879285725	0.7381865733035716	6.937887753607142
O	-3.2114219779285724	-1.4387298066964282	8.056078863607143
O	-4.833185567928572	-2.1552325166964286	8.355089283607143
O	-0.8883114199285727	-2.2917241866964284	0.5776111106071422
O	-0.6265547279285726	-1.3059355166964286	1.3911843336071423
O	-2.5439531019285724	0.8481612093035716	-0.1185515993928577
O	-1.3548145039285726	-1.8322611466964283	-0.7445953123928577
O	-4.649046927928572	0.7313741473035715	2.2296961336071424
O	-1.5888891389285726	-3.4421603366964284	1.1266435436071423
O	-2.9463761479285724	-1.8874550566964285	3.6348350936071423
O	-0.09218663792857273	-1.7320352166964286	-1.5331407763928577
O	1.6997463020714272	-0.19777210669642842	-1.3982667663928579
O	0.3604741120714272	-0.35785379669642836	-1.3931821363928578
O	2.1821386120714275	-0.5094087366964284	-0.011429352392857722
O	2.2120132020714274	1.1497056822035716	-1.8607679163928577
O	1.1038821520714275	2.050848217303572	-1.4038670263928579
O	0.17227180207142734	2.1516411133035716	-2.580911586392858
O	-1.0085729839285726	1.7093753463035717	-2.8882176363928576
O	-2.2916397919285725	2.5068168333035716	-2.8648957963928576
O	-1.3385584539285726	0.6931341083035716	-3.9662868263928575
O	-2.6250914799285727	3.1311243933035717	2.908800133607142
O	-3.135390387928573	3.3856394333035715	1.8008661536071422
O	-1.5640233919285726	1.5026967013035715	0.6186784986071423
O	-1.5015838259285728	2.6403032333035714	0.12383273130714229
O	-4.373006087928573	0.042411573303571704	1.0381615306071423
O	-3.6275845679285723	-0.9561524366964282	1.2797944936071421
O	-3.429669757928573	-0.6356585466964284	4.021109593607142
O	-2.8661402679285723	-0.17931264669642832	5.066603313607143
O	-1.7025089039285726	-3.615563736696428	4.4972930936071425
O	-0.9298356589285727	-2.9287519066964283	5.169384283607142
O	-1.6471592079285726	-4.820310056696428	3.903423743607142
O	-15.693666977928572	2.9851715033035715	-0.7488166763928576
O	-11.938632477928572	3.3092828033035717	-1.5249443363928579
O	-12.884916977928572	5.730022763303571	-4.348236546392858
O	-10.920334197928572	-5.7997018066964285	3.269523943607142
O	-11.331179957928573	-3.1713545366964286	0.5343138626071422
O	-9.676544997928573	-3.8709662466964287	-2.890671036392858
O	-12.409637877928573	-2.1826840866964283	-4.8239322263928575
O	-15.283934477928572	-4.292423956696428	-3.5432582063928577
O	-13.499572077928573	-7.619875036696428	-4.157819726392858
O	-5.961526087928572	-12.026112276696429	2.375126333607142
O	-8.551932387928572	-10.665214576696428	-0.14647021839285773
O	-7.155624047928573	-14.557396776696429	-2.9995406963928577
O	-8.283122607928572	9.268313063303571	2.0463424136071424
O	-8.911273857928572	9.02279508330357	-3.231362396392858
O	-5.393200087928573	9.045044793303571	-1.8380597563928578
O	-0.9775739869285727	12.074830123303572	-3.666705686392858
O	-0.18111512792857254	9.483659723303571	-1.0054938963928577
O	-0.5276528179285727	12.094926423303571	1.6745866836071421
O	1.8430448820714274	14.310657523303572	-0.34892092539285774
O	4.262966352071427	10.114172203303571	2.799593843607142
O	-6.299367587928572	10.062847183303571	-6.021795716392858
O	-0.8778057139285727	3.0736275933035717	-10.370691326392858
O	-0.7493495179285725	3.7880008733035715	-6.696686506392858
O	-1.2997309059285727	7.610945223303571	-6.831431306392858
O	0.8604319920714274	7.572802033303572	-9.933174726392858
O	3.1297444420714275	8.456708693303572	-5.089132556392857
O	-1.3986622009285727	-8.072294666696429	-8.187180156392857
O	2.3469942820714276	-7.576275766696428	-7.710260126392858
O	1.9892672920714274	-4.129699406696428	-6.606452976392858
O	1.1957263220714274	-2.8516870966964283	-9.982679026392859
O	4.4757924720714275	-4.278996926696428	-11.328689926392858
O	6.413338812071428	-2.3172484866964282	-8.713688306392857
O	4.443362582071428	0.8944914323035716	-9.256213046392858
O	0.07662120207142742	-10.880489376696428	-4.3537590863928575
O	6.046346012071428	-8.547527556696428	3.2740075636071424
O	4.405105442071427	-5.806509816696428	1.2801793136071422
O	4.050260592071428	-7.907980596696428	-1.876502106392858
O	9.011417422071428	-5.8015442366964285	-1.2020225863928578
O	7.113629362071428	-5.0284295666964285	-4.411660506392858
O	5.5724038120714265	-9.100068276696428	11.132780373607142
O	4.174917752071428	-9.181413676696428	7.575779893607142
O	1.1417135520714274	-13.080795676696429	12.251526973607142
O	6.889016652071428	-3.6216173866964283	8.125781353607143
O	10.025188622071427	-1.9928978066964285	9.443378323607142
O	10.221515722071429	-0.8401532266964284	5.8618449036071425
O	8.616724922071429	-3.532594286696429	3.757085873607142
O	10.415848122071427	-6.381870976696429	5.391177863607142
O	13.700539822071427	-4.8131133266964286	6.528744083607142
O	-0.6963579179285726	8.960179913303572	10.905979773607143
O	1.3453577620714272	9.932852573303572	7.998297983607142
O	1.7489118020714272	6.555461823303571	6.505344873607142
O	3.2676981120714275	4.9445474733035715	9.597981443607143
O	5.330543172071428	8.02796766330357	9.970067773607143
O	6.693903112071428	7.468129243303571	6.441346193607142
O	7.429972852071428	3.755725923303572	6.844685133607142
O	12.664409622071428	1.3857737893035715	8.260775543607142
