81

O	4.109411554821052	-4.566125755512281	-2.848504194503508
O	5.482334684821052	-5.677674325512281	-0.7857833126035083
O	3.8189480248210526	-2.8387780555122806	-1.1609157035035083
O	3.078680034821052	-3.9420287855122806	-1.6214085535035083
O	4.048726284821052	-3.5428490455122805	-3.9402378245035083
O	4.1259653348210525	-5.41883099551228	-0.23517052450350828
O	3.8644454748210526	-1.738249825512281	-2.179787334503508
O	3.5077800048210523	-6.061198265512281	-3.2725234345035084
O	5.567122954821052	-7.297104775512281	-1.2065641885035083
O	2.7681312148210524	-1.0343561355122808	-2.5055531745035085
O	5.634944704821052	-4.639846245512281	-2.096245544503508
O	6.735673284821052	-5.606053145512281	0.30106149549649175
O	2.762210214821052	0.46685056079471937	-2.5314055545035083
O	1.4895863348210523	-1.6603914255122807	-2.0071981945035082
O	1.7344694048210525	-1.8121077355122805	-0.5007900225035082
O	1.5902315548210524	-0.41121241751228066	0.030264334496491685
O	0.3159661648210522	-0.029532274512280632	0.20583815449649168
O	-0.0018796481789478126	1.4366222874877193	0.17408470249649177
O	-0.4760943411789478	-0.9241176755122805	1.1148969454964917
O	-0.5642815231789478	1.7712319044877192	1.5242589654964918
O	-2.057108945178948	1.8091986144877192	1.3662374154964918
O	-2.527979115178948	2.9558096844877193	0.8492899254964917
O	-1.976514135178948	4.2007819044877195	1.4810590354964916
O	-2.579062605178948	2.9847468044877195	-0.6518343034035083
O	13.661429554821053	4.937811224487719	-9.247083044503508
O	10.353981354821052	5.274945374487719	-7.371301094503508
O	10.257375154821052	9.005450614487719	-8.207449704503508
O	9.713371054821053	-4.86631723551228	-8.779208984503509
O	9.167309044821053	-1.1799334655122808	-9.202684604503508
O	5.820459724821053	0.05473138448771936	-10.520195724503509
O	7.339525924821052	2.9500937344877194	-12.462612714503509
O	3.483563444821052	-9.90055111551228	-9.830946324503508
O	4.4773685548210524	-6.98893101551228	-12.091081814503509
O	0.6862904148210521	-8.461227585512281	-15.125510614503508
O	6.751333684821052	8.88131320448772	-0.3991693045035083
O	3.290086354821052	11.73187428448772	3.1158807854964916
O	3.402259724821052	7.9576254744877195	3.5932619754964916
O	6.000117804821052	8.35280637448772	6.310291825496492
O	3.6960275148210524	10.92286278448772	7.938919935496491
O	0.7074549148210522	8.55001243448772	7.760066825496493
O	2.4876328248210524	5.368734754487719	8.826133755496492
O	4.044566104821052	7.0879140844877195	11.814392685496491
O	5.488514834821053	12.471118984487719	-2.624356554503508
O	-3.2273193451789477	8.978815104487719	-5.631984064503508
O	-1.0575726221789479	7.1227020644877195	-3.110938894503508
O	0.47897738482105223	10.125014474487719	-1.3640086035035082
O	-2.9192177251789477	11.843645884487719	-1.7455969145035084
O	-4.4952073251789475	8.99528002448772	0.23613995449649172
O	-1.7155540781789478	9.138931804487719	2.815798245496492
O	-4.821403575178948	-0.9650777755122807	-10.967422414503508
O	-7.308452465178948	-1.3816137355122806	-8.11592487450351
O	-5.187533825178948	0.7062301994877194	-5.7431301545035085
O	-6.437643925178948	3.8376236644877193	-7.520406644503508
O	-10.112645415178948	3.0272891244877194	-7.027993734503508
O	-9.532718965178947	2.6739025344877194	-3.2891062645035083
O	-7.3968158351789475	5.81492872448772	-2.988576794503508
O	-4.549514305178948	-5.670328695512281	-9.434025344503508
O	-4.428940155178948	-9.49557267551228	-0.3098051495035083
O	-3.3675731751789475	-5.9048924655122805	-0.8847073845035083
O	-5.425591035178948	-5.45101646551228	-4.014893854503509
O	-8.350150755178948	-5.012187365512281	0.5666632254964917
O	-8.347190115178948	-2.1158388055122805	-1.9201467745035083
O	-13.648950545178948	0.7306025054877194	-2.214510284503508
O	-0.16456299617894776	-14.879857815512281	3.4781067454964916
O	-0.7795875416789478	-12.38552391551228	0.5776501454964916
O	2.9637779648210523	-17.911041015512282	-0.7783635728035083
O	-0.9099518524789478	-8.87653912551228	5.655700625496491
O	-2.102225865178948	-8.85275146551228	9.238583955496491
O	-3.8451379051789476	-5.750595345512281	8.002851255496491
O	-4.525462865178948	-6.2459265455122805	4.304860525496492
O	-6.025671905178948	-9.72027961551228	4.787426645496492
O	-7.422793845178948	-9.66019221551228	8.329720305496492
O	-8.972208315178948	-6.229222765512281	7.677024765496492
O	10.509151454821053	-0.1634596555122806	8.788879245496492
O	7.665283624821052	2.2654272344877193	9.323234085496491
O	5.347994254821052	0.5539342816877194	6.859043545496492
O	5.452995954821052	-2.7585547255122806	8.816191305496492
O	5.1654148348210525	-0.8912592455122806	12.017578585496492
O	1.9466759948210521	0.6782282554877194	10.719535485496491
O	0.36091390482105223	-2.4748707355122805	9.294241585496492
O	-3.6422550851789475	-5.846288005512281	12.074964185496492
