43

O	14.061115115081467	-21.78518444164711	5.389899364798886
O	15.090903589890832	-28.6733096431641	3.355390465935733
O	18.204064058876998	-26.639461273481935	3.854009089599976
O	16.61736082953152	-19.961560433189295	5.431000223872697
O	17.281021540632903	-27.577629784774413	5.401721279967919
O	17.498358679108502	-18.91012239440492	-0.31322019805398504
O	17.80225028060863	-19.225582530861814	5.928628497169475
O	17.167090333687963	-26.06865259710075	7.143307505312742
O	16.232945035026045	-20.542021203943076	-0.0452700071935066
O	15.439489225378402	-19.134746924164254	5.083384477855342
O	15.223540090096296	-26.54746747934678	5.906560769884075
O	19.287786848273143	-24.603635458815354	4.1405038278609565
O	17.08054300271623	-25.174031429469835	5.0075193809012095
O	15.00082338709	-21.320092431771812	0.08871634927142313
O	16.420312693259216	-22.3915897687275	2.1708627527015665
O	15.842579053581488	-23.350696195942074	8.069075352568351
O	17.374386181283633	-20.68714831793146	4.026127307908412
O	16.702246237415043	-22.386648228137858	8.504184902617649
O	15.23037406501645	-23.313816416756605	6.820515659249091
O	16.771545570157148	-21.240614939501757	7.764091186146151
O	16.215925378759824	-25.864306064202868	1.5783467001050226
O	14.54147428063251	-25.322012135680414	2.964044767703486
O	16.62468693639174	-24.58626256680928	1.5010245426115603
O	14.897318524041333	-24.03109890922686	2.9854054269651216
O	18.031347800137077	-19.60271797513444	0.7251009255783587
O	16.17474234916963	-19.19586703216632	-0.20393873752712022
O	18.422342610359447	-23.5471474915778	5.925248771114129
O	19.303224291166966	-22.253313801388718	4.021670634232398
O	19.69692280239161	-24.21470719850297	5.493663643155461
O	19.283328238886824	-23.50635660022529	3.263993633570461
O	15.64897388510869	-21.453619817821174	2.8580004140295543
O	16.514358793158767	-20.278854855878027	2.991224327767737
O	17.51537069789932	-22.04916450051103	1.3579322225618786
O	17.094867422099483	-22.093229096390633	4.357487892044008
O	15.34467046867931	-27.69942898849301	2.7396776970749688
O	15.37445765289791	-22.20752836616325	5.998065134464386
O	15.346389158650114	-26.300139530378598	2.527176582613089
O	16.034491653708052	-23.708264781587733	2.3262922099888668
O	16.085239573883364	-21.154608584692415	6.584127897790382
O	17.299942760641457	-20.74558467101804	0.8022646994080711
O	18.28716940343596	-22.381471387126187	5.109417383927725
O	18.19245717935671	-25.474246267762737	4.215083627796028
O	16.587157137062174	-26.227554027715588	5.74104483848817
