83

O	6.188290841067797	-1.3802041542152548	1.2406220068813554
O	1.1638885310677964	-5.244399664215255	-2.6761165931186444
O	0.2167808480677964	-4.506606164215254	-1.8648515431186445
O	-0.3468074612322036	-5.358395834215255	-0.8527528401186446
O	-0.1309536219322036	-3.3031717942152548	-2.0265097531186447
O	0.28810371606779644	-2.7838268042152547	-3.3190560131186446
O	0.5268287380677965	-1.372446804215255	-3.4501681331186447
O	1.0939731210677965	-1.186522574215255	-2.1125904831186446
O	0.19193574906779642	-1.328007324215255	-1.0085468995186446
O	1.8071091010677967	-0.17394275121525488	-1.9311354051186447
O	2.953320451067796	-0.1379910632152549	-1.1717652302186445
O	3.849949851067796	-1.0329622842152548	-1.9531105891186447
O	3.113044141067796	-2.270659244215255	-2.2183917931186445
O	3.618748501067796	-3.3727156542152548	-3.110141103118645
O	3.058949011067796	-2.781856204215255	-1.1057141801186445
O	2.816600681067796	-4.025127374215255	-0.4054788851186446
O	1.9025759210677966	-3.460939604215255	0.42507007688135534
O	2.3886842610677963	-2.2249147042152546	0.7926634968813555
O	3.7457656710677965	-2.324766794215255	1.0477081268813555
O	4.370535771067797	-3.3976159942152546	1.0324297468813552
O	4.470557951067796	-1.1026990642152548	1.4218258168813553
O	7.023803931067797	-0.42760061521525483	0.48781331688135543
O	7.108446641067797	-1.4422179342152548	2.657097166881355
O	6.493741721067797	-2.905476754215255	0.5215058668813555
O	9.204228661067797	1.363677555784745	-7.6548941631186445
O	7.438360331067797	-0.38088042721525484	-10.554873383118645
O	3.770114511067796	0.3698951346847451	-11.368684073118644
O	3.999008711067796	-0.24517492621525483	-15.052222273118645
O	6.732777851067796	2.3063705257847453	-15.657853673118645
O	4.863167961067797	5.101692115784745	-13.891209973118645
O	9.054412751067797	8.732361415784744	0.21104805688135553
O	8.587072941067797	7.102117175784746	-3.1953511931186442
O	4.825163181067797	6.541808385784745	-3.2588741731186444
O	4.580907501067797	6.226788205784745	-7.068638283118644
O	4.2612065210677965	11.398676695784744	-5.108527643118644
O	1.1457946910677965	9.913780855784744	-6.777303663118644
O	2.351296731067796	10.897875895784745	-10.237162733118645
O	-0.2075829749322036	14.846207395784745	-7.469617063118644
O	4.766288041067797	11.876246295784744	2.4605593868813553
O	0.9155871310677965	-17.190420404215253	-1.4803926911186447
O	-4.462399328932204	-8.916653994215256	-9.439447273118644
O	-3.7082490289322037	-12.387128004215256	-10.788373473118645
O	-6.120606168932203	2.8466219057847453	-7.565486463118645
O	-8.002523228932203	1.2883543357847453	-4.614348053118644
O	-6.749419238932203	-2.0642391942152547	-5.372940723118644
O	-10.758252048932203	-4.793931374215255	-3.6116918631186445
O	-9.760956388932204	-7.274261294215255	-6.308970163118644
O	-13.187123048932204	4.560945375784745	-1.7834946511186445
O	-6.647492448932203	5.308361585784745	2.964478116881356
O	-4.386870018932203	6.262679475784745	0.050569226881355345
O	-4.246408598932203	4.682249095784745	-3.3785896431186444
O	-6.230337528932203	7.4494867157847455	-4.910987203118644
O	-2.524248098932204	10.309826295784744	-1.4754934481186446
O	-0.7658733189322036	9.281267705784744	1.7168430868813556
O	-2.3519344589322038	6.648447475784745	3.9022859268813557
O	-0.9290738359322035	3.348376585784745	3.3652678268813556
O	-1.7849408789322034	0.09874751478474511	5.203926016881356
O	-2.0319310189322035	-1.8563397942152546	2.0760204668813556
O	-4.274614988932203	0.37286476458474516	0.17769808688135535
O	-6.305701418932204	0.8429549887847452	3.5209360068813558
O	-6.782636108932203	-2.9183539442152546	3.770698516881356
O	-7.847160808932204	-2.894302104215255	0.11633101688135539
O	-10.324475248932202	-0.033137747215254865	0.7845087268813555
O	0.7918357310677964	2.022141725784745	12.983367426881356
O	4.6501238410677965	-0.0904934932152549	9.692306026881356
O	2.8713006510677963	0.5517023417847451	6.327843276881356
O	2.936162771067796	4.297701615784745	6.594421616881355
O	3.566824801067796	6.762517125784745	9.385262826881355
O	7.283287461067797	7.285424385784745	10.034488826881356
O	8.377244931067796	4.350233525784745	7.9337149568813565
O	7.579136971067797	-4.887320844215255	8.164267666881356
O	1.8345369310677964	-5.387560644215255	7.663833086881356
O	1.0608046210677964	-7.932700124215255	10.274366526881355
O	-1.7227923589322036	-8.730532184215255	7.865822886881356
O	-2.582303798932204	-5.499148704215255	6.034857506881355
O	-2.681490238932204	-3.354092514215255	9.148830526881355
O	-3.705388608932204	-5.838511954215255	11.858351426881356
O	4.830477891067797	-13.065850604215255	-0.2344162481186446
O	6.190370341067797	-12.383135704215256	3.2505187068813557
O	5.746117211067797	-16.038297204215255	4.166271686881355
O	2.0542749710677963	-15.713016704215255	3.2709685068813554
O	1.3313550810677965	-12.447172404215255	5.1052202368813555
O	3.483543521067796	-12.925745904215256	8.183959996881356
