35

O	17.326956122886845	-19.395743969614003	1.4710179855629226
O	14.980705974924883	-19.885831242410376	3.395797483459031
O	14.697175155675186	-21.178356011540146	5.404872145865731
O	15.326709822282922	-25.506247034923	2.973445534507138
O	17.578763345922344	-19.851721890972676	0.06599452566479425
O	17.67393289497827	-25.31155116140652	5.958518979694278
O	14.46512583623846	-22.266557256430303	6.236892418991026
O	18.008341038469183	-24.014284185204733	2.4024203306419434
O	17.22910580372391	-17.728266253303367	1.0777648679799925
O	15.201906103406643	-23.139916158295968	6.862123396530145
O	18.84740201680947	-22.289896418190686	3.5290621489753464
O	15.97027963272474	-19.76100248503658	2.2194257662312173
O	16.567127521412317	-22.61307456795076	7.154860394037125
O	13.72860425333567	-20.701665199630224	3.0373596534744722
O	15.012928265844506	-24.162631318686557	7.887155999228421
O	15.737211456933313	-20.677360995414908	4.746392781242966
O	14.098869140054827	-25.293311714761423	7.516309407768983
O	14.059790684908375	-23.658427092857238	3.686856293058457
O	14.382894555244674	-25.355022482485424	6.072206059121489
O	18.972344272601624	-22.375301220851846	1.091145998772015
O	14.668864882620577	-26.417168255361922	5.364677060735637
O	18.856116933476976	-19.505923210299258	2.1186912647744647
O	15.135643333327302	-27.614311363000372	6.222596649706535
O	14.099736585190724	-18.784463238947975	4.191979343243817
O	15.415279297346796	-26.361450630335547	4.157530463593589
O	14.712041942586389	-24.263408347004674	2.7390715308576716
O	14.449870074033345	-23.324339882997343	1.6448534638979302
O	15.782604030448411	-22.643221968575396	1.629497660681242
O	16.37441561805558	-22.779892782001657	2.92397151072393
O	16.328488949741413	-23.46866567092877	4.084389372642535
O	16.914108463957984	-24.69481635074258	4.561322994083565
O	18.74920503392637	-24.20675257599322	5.279821363056454
O	18.094256465513006	-23.00992041918164	4.477735555813132
O	18.051547764746797	-24.377620368805513	3.7166841011982292
O	18.656195955977644	-22.76684088382628	2.269112669340078
