24

O	13.64263121356781	-19.964288798353575	0.5967002437179856
O	14.668421958914438	-26.491797156410307	4.349865755830255
O	14.868300365534356	-25.244381427808058	5.02488272297312
O	16.10466502896195	-24.570221778662017	4.694817722468022
O	13.95658690195797	-24.608201412872035	5.6160735515557265
O	14.415891460474748	-23.481192250643243	6.404984390650885
O	13.451262594342737	-22.48980513164472	6.762998706602753
O	12.660737153882529	-22.50976324532694	5.546521189783228
O	11.992876928971247	-23.71036920977199	5.182816818156615
O	11.963989480742677	-21.463720547849977	5.3522140998269805
O	11.867604496853296	-20.953140522915326	4.047432374950533
O	13.186939652051478	-20.151108627016786	4.061744157417851
O	14.150807596510958	-21.251657840204683	4.280124418493701
O	15.664185579205778	-21.22036994820315	4.420957068255883
O	14.09052548036318	-22.117553613387027	3.418772066014415
O	14.80099535046265	-23.218634502121787	2.7823541991709337
O	13.697221586659806	-24.072591365892237	2.6080383872356565
O	12.725890779881356	-23.131841513165128	2.3362363381520046
O	13.277192030410026	-22.308524986829124	1.35354637772534
O	14.386911013895965	-22.53900547244985	0.8381048734731795
O	12.462203861948812	-21.158978977611966	0.9723290133071147
O	13.425807337807486	-18.536952375364955	0.6372414710624374
O	13.942135387210925	-20.169982795804117	-1.0807936669910196
O	15.252700928013617	-20.27626943960663	1.113152246142854
