20

O	14.234091554993128	-28.02161910338621	8.52781879056621
O	15.332909068632976	-27.072068245939633	8.697358691617477
O	15.566409862857409	-26.10585685969652	7.86571493010541
O	14.387497968023718	-25.167115147112852	7.723664237298092
O	16.126461262101174	-26.177389063960728	6.380391844406734
O	16.335548665935985	-24.84986471136332	5.850255521320579
O	15.74048750433581	-24.6583721269141	4.568982428854111
O	15.072440290888304	-23.62768119352611	4.093358554314895
O	14.193678841764108	-23.000272666733316	5.152292905769446
O	14.323062597809532	-23.995773467320692	2.834353293497718
O	13.17767286743618	-24.81493441771037	3.4549617450613996
O	13.700842238086913	-25.61528875295625	4.468827530299368
O	13.782106078051422	-26.915848635264013	4.394223530553835
O	12.925594041887612	-27.19226578424159	5.545695079395513
O	14.822974026862319	-27.84070021471676	3.931472306713527
O	14.930005652524677	-28.95677216644208	4.923002106688938
O	16.343607998645595	-29.272822139210614	5.026646025722769
O	17.0720337366348	-29.90611659683139	5.876214923862419
O	17.804945492201398	-28.993746434564557	6.779179367326618
O	16.863758614759146	-31.286228921283016	6.329368393385254
