34

O	18.645809535574124	-24.80382923193656	7.78118977560284
O	22.059644186768978	-24.308333011941887	7.1025789554637395
O	16.13427646239113	-20.763163210185994	0.7177375983599732
O	17.135041117382325	-19.83179906343007	1.1634145477122755
O	23.476912406146173	-20.390210950202622	-0.6372122039492467
O	17.719855609388844	-19.25316358025538	0.07376162833401922
O	18.961582582319284	-18.949923977483458	0.32520573685119025
O	18.96975989765566	-19.08957818661994	1.6317724650674834
O	18.986627317219593	-19.935085491942782	4.182158579020159
O	17.99030670604039	-19.94562013436156	2.273630462981601
O	21.637318247014733	-21.577749688983356	-0.6121779462183685
O	18.366781360176006	-20.951045149704264	3.270427483911836
O	18.374363117933385	-21.94371053045194	4.247204750551656
O	19.405083433852724	-21.907357836874624	5.256775140275783
O	19.348818732345052	-22.45302474624173	6.503219235296195
O	18.526969251037304	-23.513432527097603	6.6210408651965285
O	17.584409411966348	-23.697712178978556	5.677597692513256
O	17.309442240771833	-22.507487318702356	4.994249808935274
O	19.2520198292613	-21.88726366614568	2.579122527478883
O	20.495962870655998	-21.377271015884222	2.7475172382217434
O	21.287281495836506	-21.698475016310528	1.6879615664144196
O	18.694756314813382	-22.185360441890904	1.3042531830082267
O	19.567899324048	-22.21409022131889	0.20368362202620904
O	20.779863020329177	-21.53227922016174	0.38088442285110435
O	21.19930320472636	-20.97017818583626	-1.8364764115558656
O	22.907849174866787	-21.550148311856226	-0.2675947170004469
O	23.281005487580885	-21.94404143308273	1.1572120362274534
O	22.429114724203465	-22.41361046928127	2.09979894286893
O	22.12379856551661	-23.452066317746112	3.146065466830742
O	22.129641986399516	-23.3652832413689	4.5225562459596205
O	21.682518917931525	-24.321085657386675	5.3947240789449475
O	20.728973845718635	-25.171253072438358	4.972089091897884
O	20.126488472056813	-24.885786114418593	3.796413382490182
O	20.9054280163084	-24.172571396191547	2.91552531581942
