20

O	14.23116041555397	-28.04790002298583	8.480961085350051
O	15.302360170176655	-27.079781721380115	8.741169449046637
O	15.58762051970826	-26.088663250636003	7.949432241639723
O	14.37459447751157	-25.204109528498407	7.711326575971549
O	16.281815152038515	-26.14230982326818	6.520845485952878
O	16.4250560198023	-24.78977909791683	5.98930839112599
O	15.894661738042714	-24.651158974361973	4.6654790255891605
O	15.200270638406378	-23.665900109559267	4.133059603540538
O	14.261141421630384	-23.03366613623875	5.135538393125772
O	14.53203194213678	-24.056264812429042	2.8376293854824106
O	13.349771000334862	-24.872869086987585	3.408764907913502
O	13.887318710763676	-25.665505555043197	4.445835638173703
O	13.961421742696922	-26.96342606588197	4.381439521394627
O	12.981935522601077	-27.237243685827107	5.452768602292693
O	15.080504298115219	-27.85707988239636	4.02145351113995
O	15.063720575499515	-28.944025085258914	5.046566581572925
O	16.32312436103345	-29.655614615658187	4.930796529875108
O	17.116287173141565	-30.128820706336377	5.8305133915172895
O	17.717834053344657	-29.120135584775372	6.716570129577498
O	16.878407528802438	-31.48916679784735	6.327046841804055
