85

O	3.772800057245902	-4.7031612983081965	-1.01342225752459
O	1.016220503245902	-2.0131720583081965	5.5373097954754105
O	2.082837157245902	-1.3216156783081965	4.87721588547541
O	3.3813063472459017	-1.9443699683081963	5.01207349547541
O	1.912107747245902	-0.43238646030819644	4.00224393547541
O	3.115530907245902	0.27964024129180354	3.6171708054754097
O	3.091910547245902	0.9941121406918036	2.38003560547541
O	2.275007737245902	0.07132948269180356	1.6143409454754098
O	0.942959601245902	-0.18085015530819643	2.04075157547541
O	2.389981457245902	0.18579301969180353	0.35295399747541
O	2.416453987245902	-0.9810786483081964	-0.42816513052458993
O	3.919167687245902	-1.2899538783081963	-0.2533713405245899
O	3.973233627245902	-1.4658437483081963	1.21430694547541
O	5.149540037245902	-1.7798072483081966	2.12472214547541
O	3.222729217245902	-2.3426395983081965	1.61842260547541
O	2.937297097245902	-3.2557127883081964	2.71705817547541
O	1.5344905472459018	-3.1676727983081965	2.66881304547541
O	1.363139617245902	-3.054357398308196	1.30493304547541
O	2.130616037245902	-4.080458698308196	0.75215931547541
O	2.722512537245902	-4.921056418308196	1.4545348754754102
O	2.190740487245902	-4.099393878308196	-0.70626960992459
O	4.531969007245902	-4.4749016383081965	-2.22069417452459
O	3.571260177245902	-6.405018568308196	-1.1086173225245899
O	4.867320097245902	-4.718946308308197	0.31253241447541
O	11.966903507245902	0.18430463169180356	-2.76879875452459
O	12.889190407245902	2.2398063816918037	0.31968782647541005
O	10.775900507245902	5.2498583316918035	1.38385163547541
O	13.553416507245903	7.233076731691804	2.9494938154754102
O	15.698487907245902	7.339388101691804	-0.16348413552458996
O	12.883819607245902	8.614132831691803	-2.37189207452459
O	5.764219657245902	-1.2027371883081963	-11.51868875452459
O	7.931295187245902	0.44373654449180355	-8.837201744524592
O	5.356012297245902	2.380808041691804	-6.8064372845245895
O	7.8830621372459015	4.885973991691803	-5.36129545452459
O	5.793016017245902	6.302268381691803	-10.21857519452459
O	4.869461827245902	8.492160251691804	-7.22532883452459
O	8.049807987245902	10.531856431691804	-7.50701976452459
O	3.930930537245902	12.129522731691804	-10.705570954524589
O	0.8578301932459019	1.3337267966918036	-13.123887154524589
O	3.347711177245902	-8.361374788308197	14.750816745475412
O	4.303315307245902	4.131609011691803	12.21872444547541
O	6.0549130272459015	2.9152228616918037	15.388439945475408
O	0.8655441422459019	9.628038601691804	2.11227331547541
O	-2.390534512754098	8.021103391691803	3.32223056547541
O	-0.6781507137540981	5.997374021691804	5.89514124547541
O	-0.19716211475409806	8.898945041691803	8.138932495475409
O	-4.625165562754098	6.028442851691803	9.34674011547541
O	-1.851033072754098	5.993789211691803	11.941215845475408
O	-8.304941562754099	10.790351531691803	1.6507585054754101
O	-7.0006637527540985	4.299947171691803	-2.99525308452459
O	-3.457689822754098	5.366850061691804	-3.85205522452459
O	-0.7832424327540981	6.647614151691804	-1.47782026352459
O	-1.4142993127540981	10.209821681691803	-2.61953900452459
O	-1.454712882754098	7.3053896516918035	-7.64065237452459
O	-2.380836062754098	3.7365028316918036	-8.47108157452459
O	-4.793327222754098	1.9121746416918035	-6.20151389452459
O	-3.153374492754098	-0.18948077630819643	-3.76191124452459
O	-4.689277542754098	-2.5129542283081965	-1.12831805852459
O	-2.569117212754098	-1.3313878883081964	1.61595746547541
O	-3.111760822754098	2.3419406816918036	1.1507097354754101
O	-6.822765522754098	1.5107848016918035	0.52647202547541
O	-7.042713572754098	-0.2273825413081964	3.9009102254754104
O	-5.388042472754098	2.8340406316918036	5.43480336547541
O	-7.762120182754098	5.215312291691804	3.69337211547541
O	-11.002966092754098	3.4131716816918036	4.41567915547541
O	-8.428833912754097	-8.108761728308197	-6.23292959452459
O	-3.194430582754098	-9.240388188308197	-4.94934887452459
O	-2.270400672754098	-5.718370148308196	-3.77642319452459
O	-2.603676722754098	-4.048399958308196	-7.06096013452459
O	-4.334694852754098	-5.013488948308196	-10.30880182452459
O	-2.194705542754098	-7.312188068308196	-12.463233554524589
O	0.30569900124590194	-8.043551138308196	-9.738650534524592
O	0.3497347002459019	-12.305806368308197	-1.54153854552459
O	-3.4283049927540983	-8.956108118308196	1.35522490547541
O	-5.520868682754098	-11.468204968308196	3.07644414547541
O	-5.786634292754098	-8.715204878308196	5.61587492547541
O	-5.430325942754098	-5.406888918308196	3.7456412954754104
O	-7.810620032754098	-6.293804268308197	0.96839898547541
O	-10.196589492754098	-8.716593018308197	2.68465584547541
O	4.919714897245902	-9.313023718308196	9.186962015475409
O	3.4174597972459018	-12.026472068308196	6.99791094547541
O	2.786791957245902	-14.226318268308196	10.039961945475412
O	0.749753330245902	-11.344511268308196	11.52046514547541
O	-1.342457492754098	-10.508020268308197	8.44065784547541
O	-1.887551462754098	-13.967625268308197	7.03980249547541
