29

O	13.774217706260544	-20.712799726589353	0.32919968947087686
O	13.104813168720074	-18.421650882159213	-0.8546325694544192
O	11.794126552452333	-21.11760408337094	1.746864610016707
O	13.08416959037386	-21.40276440365357	1.601364561325484
O	14.459028314429151	-21.982553275779384	0.2025899668802058
O	12.991572229138242	-18.454007555518253	-2.3185542562358643
O	11.892528157441735	-19.672810067948593	1.6574418674356668
O	15.211568231398715	-19.866414625139612	0.35367389394789495
O	12.098939511016578	-17.233661239242224	-0.43317556742803465
O	12.168328635913527	-19.35560829120534	2.8247826318213214
O	12.671757983347641	-19.850458208714723	-0.3378591426104327
O	14.634965040416535	-18.055810833279963	-0.48994056432614386
O	11.963769718664011	-19.857002545485816	4.052738534055507
O	12.81923784844244	-18.10509533312043	3.059585804145512
O	14.132839100785233	-18.53352311460838	2.539541180427106
O	14.207314814382165	-19.416940571174155	3.6249215563525548
O	14.732697639815374	-20.489028469240363	3.7239908887802535
O	15.553548672528837	-20.336453534113186	4.907101440775919
O	15.750706599915445	-20.925448519887734	2.852550562708803
O	14.77705118965742	-20.07893558922258	6.010994766346251
O	13.423029716263432	-20.272288693164054	5.656361649580656
O	13.484651415139968	-21.52586425734228	5.4202694930515385
O	13.328907477338724	-22.21996360269625	6.661487457877677
O	12.484480347990122	-22.072172203721415	4.582974936883622
O	13.406782128659207	-22.95852121018013	3.8319147831615523
O	14.077498382814412	-23.586695516680784	4.9587029069000295
O	15.300010439921927	-23.282526779469016	5.0313379822680515
O	15.987293902839664	-23.538583293990516	3.762396253882247
O	16.235581658474235	-23.006360460500247	6.0588214314014746
