24

O	13.364378820257853	-19.29316107397852	-0.1311051559981431
O	15.802224442049457	-24.31997934737585	4.798953012372462
O	14.414292456730633	-24.7360656897936	4.803442218733195
O	14.25614016172661	-25.962266131359613	4.069315841601227
O	13.461324370200384	-24.16105289666902	5.400534368390029
O	13.934971649573733	-23.17749179768517	6.361923948486282
O	13.089683347473557	-22.05808419114837	6.675910931178163
O	12.542544021348256	-21.894222826768363	5.327162418178152
O	11.664846798931759	-22.9265024263705	4.861707797980672
O	12.049668764682707	-20.77922352901465	5.043160100186111
O	12.174442927286155	-20.143815118163204	3.829725468641265
O	13.6375955968438	-19.873551460451065	3.7902266316513566
O	14.325007648161172	-21.12865262959179	4.102450324449909
O	15.81160971041692	-21.241326884600888	4.309334067614221
O	14.106970488469239	-21.79830978964758	3.0992957150033758
O	14.54054562814487	-22.964938509512535	2.3605295735132534
O	13.284154069476799	-23.475060541751212	2.291128971770821
O	12.429023006989162	-22.42738495819797	2.025967640389328
O	13.00607363677235	-21.59360351343909	1.083359965065486
O	14.083343768761416	-21.83888956917635	0.5168793155502645
O	12.269229540291084	-20.386609474196206	0.6846575716205159
O	13.445162902980016	-17.877804891737245	0.27200445587723987
O	13.12189898021536	-19.059524584585827	-1.787472205319573
O	14.976856491276202	-19.869162425413524	-0.06023223575120973
