15

O	16.736361007157782	-26.5154509480606	8.15709820391006
O	17.099847643301032	-25.72691536919912	6.995836420196187
O	16.054790290329354	-25.508300534958018	6.282350979985781
O	15.752289055148921	-26.718553122439108	5.4468489418173185
O	15.580748511710645	-24.403462788691456	5.411597051502686
O	14.847733180465752	-23.213722421624876	5.791884651930826
O	13.437200681221396	-23.704257866040216	6.0184296749783845
O	13.34936943075613	-24.701599447297777	6.865920992308936
O	12.853239120132898	-26.06503942804312	6.716875461971231
O	14.119805132743785	-24.49575251176299	8.102591769439051
O	13.440410866276439	-27.06377051269809	7.620657248187123
O	13.261507535273077	-28.3493219536665	6.86753762685183
O	14.069102818337338	-29.320387304219174	6.623705345974102
O	15.141432181703621	-29.174663773591874	7.5808238531857315
O	13.70962432918757	-30.746769378538758	6.559927547622071
