87

O	-1.9104288496730766	-3.822882256980769	3.359532656057692
O	-2.5324963536730767	-1.6213116169807693	1.7247431460576919
O	-1.5426026986730765	0.5468067790192308	1.0409240870576921
O	-3.6600006636730766	2.493690983019231	5.5366081160576925
O	-1.8198303496730766	-5.095754626980769	2.732153976057692
O	0.28418792632692336	1.874172740019231	3.608803676057692
O	-1.0171764126730767	1.7652269500192308	0.741882992057692
O	-1.9006650246730765	-0.9774199569807693	4.898048836057693
O	-0.7371352686730765	-3.7800032769807688	4.5183167460576925
O	-1.3780873536730767	2.961260933019231	1.059210277057692
O	-1.3868493926730765	-0.04654922698076924	6.674897936057692
O	-1.4599308786730765	-2.5817408969807696	2.370061676057692
O	-2.7498017436730766	3.3602433230192306	0.940336398057692
O	-3.5509074536730765	-0.814674326980769	1.118427471057692
O	-0.4250424616730766	3.9890688930192306	1.460294429057692
O	-1.2083794032730766	-0.6373946569807691	1.434835069057692
O	-0.8843199866730765	4.911280963019231	2.545242036057692
O	-4.123019213673077	0.4181954960192309	6.580435236057692
O	-2.0467480386730763	4.230694903019231	3.027135746057692
O	-2.379623243673077	-2.3357110369807694	6.7002811460576925
O	-2.8244085036730766	4.439032283019231	4.091931506057692
O	-3.3911784236730766	-3.5841555069807693	4.063194656057692
O	-3.4191131536730768	5.808847613019231	3.716175526057692
O	-3.6986154836730765	-1.8077469769807692	2.898459106057692
O	-3.8725465636730765	3.585068123019231	4.641963566057693
O	-3.922168413673077	1.106320844019231	5.522330806057693
O	-4.674683403673077	0.26804591301923075	4.587302766057692
O	-4.824305393673077	1.0339013510192308	3.3719572360576917
O	-3.6312546436730764	1.5681677120192308	2.847260306057692
O	-2.534101423673077	1.0457843640192308	3.628660926057692
O	-1.2007453139730766	1.034744636019231	3.631806076057692
O	-0.7094147716730765	2.0214635380192307	5.126979566057693
O	-0.6003098266730765	0.5590373720192309	5.672669146057692
O	-0.8792606806730765	-0.1701276669807692	4.435008876057692
O	-1.7160271906730766	-1.3738189869807693	6.203444206057692
O	2.5215871763269235	6.410085613019231	13.51297318605769
O	2.0963570263269236	-4.0264950169807685	10.83795698605769
O	3.4284799263269234	-0.4439175169807692	11.545478186057691
O	6.003780646326923	1.0403312890192309	9.085513756057692
O	7.711108626326924	3.2105738230192307	11.681307486057692
O	8.494111486326924	0.35049738301923083	14.035201586057692
O	10.076973656326924	-1.833815236980769	11.339907286057691
O	2.3811274463269236	-13.58244637698077	5.159833736057692
O	3.4700178963269237	-10.45743187698077	7.141803476057692
O	4.790984986326924	-8.210590256980769	4.3658500860576925
O	6.987537986326924	-6.029592306980769	6.704581586057692
O	9.363562056326924	-10.57378317698077	4.866704166057692
O	10.819905356326924	-7.266596836980768	3.675113776057692
O	12.904358756326923	-6.820507706980769	6.813490076057692
O	-5.551886683673077	12.01773752301923	3.847084076057692
O	-10.293677803673075	10.86044032301923	0.459261350057692
O	2.2423864363269232	10.78046601301923	1.8811769260576918
O	0.38832740632692353	13.72495222301923	3.406852266057692
O	9.591320456326924	1.8600689440192308	-0.7822869239423079
O	7.843428566326924	2.424816523019231	-4.108476503942308
O	5.2663749263269235	4.599228923019231	-2.533816433942308
O	7.627502396326923	7.446800273019231	-2.347197713942308
O	8.447829796326923	7.349465163019231	-6.090877013942308
O	4.752472186326923	7.655267673019231	-6.889066173942307
O	4.021535696326923	10.34384546301923	-4.247468873942307
O	7.428602986326924	-2.374446556980769	-1.9882693539423082
O	11.202047356326924	-2.8143803369807685	-2.8080524439423082
O	1.2339854363269236	-6.233058336980769	-3.809055333942308
O	-1.4699970326730765	-4.329844456980769	-5.663461253942308
O	-0.8755548056730766	-1.086444786980769	-3.8658087839423083
O	2.8822447563269233	-1.0212622069807693	-4.620007273942307
O	2.1345274163269234	-2.136813466980769	-8.093224463942308
O	-0.23086826367307656	0.7467209210192308	-8.683370263942308
O	2.4148466363269234	3.082115853019231	-7.193047413942308
O	5.135544306326924	1.645937479019231	-9.520972013942309
O	-7.230345573673077	-9.53896327698077	-4.077893073942308
O	-4.033884223673077	-7.60029983698077	-3.292150233942308
O	-1.6320880616730766	-10.470667676980769	-3.4315536039423082
O	-4.8955411736730765	-13.73643697698077	-0.297195487942308
O	-8.173929003673077	-3.155454976980769	-4.410851723942308
O	-11.004770223673075	-2.2844611169807694	-6.751676943942307
O	-8.828574203673076	0.7436423550192308	-7.2977016439423075
O	-5.246509183673076	-0.31115186698076913	-6.788797083942308
O	-5.543189173673076	-3.411332406980769	-8.933455993942308
O	-8.244814013673077	-2.476884546980769	-11.426675813942309
O	-14.353536243673076	4.491790113019231	6.528202986057693
O	-13.483704243673076	7.3847549630192315	4.209507306057692
O	-10.633800203673076	5.6616157130192315	2.503962786057692
O	-12.716448443673077	2.625954763019231	1.367393812057692
O	-15.293804243673076	5.136154523019231	0.319963635057692
O	-12.717959543673077	6.916795293019231	-1.9097234739423081
O	-11.207987443673076	3.717020013019231	-3.4269872039423084
