35

O	13.637339096199584	-19.069412879749006	2.1694204309876794
O	14.031225180166135	-21.84165662952774	2.4262011723198227
O	14.410239470677194	-23.525872137498755	4.2060892651596085
O	19.565981167439283	-22.198191224775133	3.8312585235778744
O	12.417969430380055	-18.636039536935932	1.5800637219833629
O	16.234135796766427	-22.160472461838197	6.756021790344618
O	14.6956505753043	-24.42020151925947	5.190346106585286
O	16.371371889262004	-19.890289107319145	3.6909361143085064
O	13.992742868071177	-17.995171209525125	3.369807866057215
O	15.763887933069508	-25.086516518051873	5.466650054238794
O	17.948681683139544	-19.13935509240837	4.802651663906099
O	13.48288817260115	-20.48168900332502	3.008499795896998
O	16.476502618745574	-25.775912925644228	4.431357237046842
O	14.494953653167807	-23.05805896187377	1.8255641328665981
O	16.253216494705242	-25.25662044635665	6.829431943660207
O	13.858324257544545	-22.375251745601627	4.0044300843223795
O	17.740094874594142	-25.225845156970355	6.993040690189801
O	19.276979168478743	-20.193090178522787	2.60337807762089
O	18.158097225546463	-24.720399425770086	5.721641242223049
O	17.03878710763876	-17.836714320740647	2.8786649434724794
O	19.34516189197476	-24.305254009370508	5.273889040438222
O	14.87770651760215	-19.101767295380427	1.071608141011363
O	20.12501931668279	-25.631661487195796	5.334928498474112
O	15.223842092671957	-21.182283974671257	1.4695958589321103
O	19.66285983630175	-23.607840713687434	4.031686900048909
O	18.854346162967577	-21.34553708775063	2.959313447133646
O	18.019033247644593	-21.62701734567269	1.7904326561208315
O	17.675436794703725	-23.02839734341802	1.8541635633987528
O	17.129513359986362	-23.458467360460194	3.0793675826506135
O	16.921969935980133	-22.289830404620076	3.9030361276108785
O	16.370288665080036	-21.950442114686833	5.068554744721473
O	17.79199827022311	-21.439955782584953	6.149623272586739
O	17.276592053434033	-20.0525653551942	5.6418088070334536
O	16.09839332358046	-20.50210215858095	4.899472904388348
O	16.979210173719586	-18.66408958753685	3.840092912275992
