82

O	-3.5704114920344825	2.706961313782759	5.019368251706897
O	-4.259877472034483	-4.351279756217241	0.4278269907068966
O	-4.659771522034482	-3.038181296217241	0.011611708606896615
O	-6.041002602034483	-2.6583418462172412	0.2982130737068966
O	-4.0934295620344825	-2.608908156217241	-1.0213561552931034
O	-4.650088492034483	-1.324423206217241	-1.4842950182931034
O	-3.4642408120344825	-0.9462448562172411	-2.2788060382931032
O	-2.705796193034483	-0.786647806217241	-0.9890703772931033
O	-2.089924107734483	-1.859316606217241	-0.3632268742931034
O	-2.8715840700344826	0.314876082782759	-0.5975193822931033
O	-2.2313636136344828	1.189363204782759	0.2256653347068966
O	-3.583659082034483	1.880257359782759	0.49702299770689656
O	-4.381533422034483	0.782800064782759	0.9746162217068967
O	-5.818637352034482	0.5215296687827591	1.0042359217068966
O	-3.945810482034483	-0.231964096217241	1.4308819317068966
O	-3.9841757120344825	-1.3414400862172409	2.3172481517068966
O	-2.626174713034483	-1.250038816217241	2.4264903017068966
O	-2.1797676925344827	0.022339823782759005	2.6407262917068968
O	-3.107302521034483	0.668927477782759	3.397748591706897
O	-4.060588552034483	0.189711555782759	4.031297061706897
O	-2.7315154050344828	2.117427743782759	3.611657731706897
O	-4.439703952034483	3.956338833782759	4.920295761706897
O	-4.763728342034483	1.586574673782759	5.531437751706897
O	-2.6957991070344827	3.1273978137827587	6.370348551706897
O	-8.884479812034483	7.862479343782759	-1.5636762082931035
O	-10.606116712034481	5.997305313782759	-4.395774068293103
O	-8.539838662034484	4.3573233637827595	-7.1918992782931035
O	-11.130469112034483	4.674751123782759	-9.857614128293104
O	-11.481108522034482	8.43723512378276	-9.596753478293104
O	-7.748631582034482	9.062427603782758	-9.901863428293105
O	0.02582515796551732	12.040761643782758	2.7168969417068967
O	-2.6165555440344828	11.072466643782759	0.1780997487068966
O	-0.8405408420344829	8.29901826378276	-1.7211155682931034
O	-3.0480693230344826	8.54697963378276	-4.836894318293103
O	1.3208779079655173	11.917332343782759	-4.7800509882931035
O	1.272230177965517	9.130921203782759	-7.400853018293104
O	-0.7965785920344828	11.212813543782758	-9.800435898293104
O	4.576947557965517	12.125829343782758	-9.979241498293105
O	5.611182367965517	11.342007143782759	1.4355334817068965
O	-8.419982532034483	-8.12037358621724	-7.470545048293103
O	-11.694859932034483	-10.047203756217241	-7.285958588293103
O	0.713947487965517	-0.6611701862172409	-10.044694358293103
O	2.4842900279655176	-3.542073606217241	-8.251528548293104
O	-0.7072131720344828	-5.109655086217241	-7.230927128293104
O	0.9052126879655171	-10.03257205621724	-7.274456298293103
O	-2.703284090034483	-10.78209715621724	-8.199012708293104
O	8.971910317965516	-4.869559956217241	-9.568654708293105
O	8.466962317965518	-0.942785886217241	-2.4682633082931034
O	6.157382327965517	1.722269849782759	-3.8998101182931033
O	3.191685297965517	1.208794425782759	-6.187006288293103
O	5.073833747965518	2.294170853782759	-9.197580508293104
O	6.638917207965517	6.233240093782759	-5.199801028293103
O	6.801696697965517	6.011032913782759	-1.4183471182931036
O	7.377378547965518	2.645896963782759	0.1954442347068966
O	4.3312237579655175	1.142789374782759	1.3988699117068966
O	3.697374767965517	-2.135617826217241	3.2385945417068966
O	0.9226659279655172	-3.2393500562172415	1.0964439017068965
O	2.5409099579655168	-2.637899786217241	-2.1621229282931034
O	5.844588777965517	-4.161498376217241	-0.6588111112931033
O	3.9695771379655174	-7.3320446062172415	0.2876827957068966
O	2.551710297965517	-7.4042783062172415	-3.2329135582931032
O	6.0447735879655164	-6.926773306217241	-4.755248388293103
O	7.895789417965518	-0.3895107662172409	10.404424801706895
O	2.598966717965517	1.027119563582759	10.336209201706897
O	2.102370717965517	0.9562959855827591	6.513962631706897
O	4.505000467965517	3.774826063782759	5.799061321706897
O	7.1838276979655165	5.558233203782759	7.729340241706897
O	5.763280267965517	8.20031432378276	10.067204701706896
O	2.214262457965517	7.048082813782759	9.751032681706896
O	-2.8225350730344827	-0.427476596217241	11.889081001706895
O	-0.1388422220344827	-4.400237056217241	8.622440071706896
O	0.25825418796551736	-7.24522063621724	10.999346101706896
O	-0.0223061220344829	-9.213810856217242	7.798654511706896
O	1.3156661879655172	-7.000612126217241	4.989759571706897
O	4.446604817965517	-5.979997406217241	6.879436901706897
O	5.087509377965517	-8.95488287621724	9.189899481706895
O	-10.910777372034485	-6.915532976217241	5.921631111706897
O	-9.281023642034484	-6.138146306217241	9.250550221706895
O	-10.707838582034483	-9.317627156217242	10.730773501706896
O	-8.946525632034483	-11.265232956217242	7.9729516517068975
O	-5.533408032034483	-9.601049456217241	8.195932951706896
O	-5.283651262034483	-9.108427356217241	11.942595401706896
