82

O	-2.3449809257758627	2.7023702685862068	5.652297926344827
O	-4.578627696775863	-3.8452522114137935	0.9666567223448281
O	-4.825013846775862	-2.476308731413793	0.5624644543448282
O	-6.180851686775863	-2.049395141413793	0.9125805063448281
O	-4.271761356775862	-2.1574768614137936	-0.5506280786551718
O	-4.775649876775862	-0.8536955814137934	-0.9742086336551717
O	-3.6891536867758625	-0.1382683414137933	-1.586729853655172
O	-2.9966225377758624	-0.1836875214137934	-0.2515856126551719
O	-2.2427957757758623	-1.3741374514137934	-0.0012377417551718561
O	-2.3338655797758627	0.8268924065862067	-0.09096726365517185
O	-1.9762306849758626	1.6009775715862067	0.9369746823448282
O	-3.259403946775863	2.242968578586207	1.351152236344828
O	-4.100631356775862	1.0390128463862067	1.4344232463448283
O	-5.560566656775863	1.0050602805862068	1.6483829063448283
O	-3.7245124167758625	0.22843099858620664	2.221455846344828
O	-3.8971178967758626	-1.0075509314137931	2.906368336344828
O	-2.5844621177758627	-1.3134184914137934	2.852524126344828
O	-1.8245883177758626	-0.17603433141379332	2.995401926344828
O	-2.3805448007758625	0.6146190345862067	3.976505096344828
O	-3.3875655967758624	0.3759124935862067	4.657069896344828
O	-1.6876836217758626	1.9173721145862066	4.232576116344828
O	-3.0425934577758627	4.0245247885862065	5.555950466344828
O	-3.6111884667758627	1.7466359185862066	6.310182266344828
O	-1.3180651237758625	3.040218258586207	6.9256344363448274
O	-8.108869396775862	8.807754068586206	0.22169046334482814
O	-10.447093596775861	7.291387348586207	-2.370818533655172
O	-9.043958986775863	5.602071578586207	-5.532682943655172
O	-11.976283786775863	6.3360655085862065	-7.720739313655172
O	-11.865660306775862	10.095803318586206	-7.266205803655172
O	-8.180612296775863	10.348259108586207	-8.147060633655173
O	1.7763575732241375	11.801289248586206	3.1538689563448283
O	-1.3200085097758625	11.279756348586208	1.0333721253448283
O	-0.18872033677586253	8.436851938586207	-1.2300533336551718
O	-2.8254098557758627	9.074191268586207	-3.932487283655172
O	1.8409157632241375	11.968758848586207	-4.456423943655172
O	1.0710974732241376	9.353984088586207	-7.139289093655172
O	-1.1086404857758625	11.767085248586207	-9.087246673655173
O	4.233952093224138	12.135708248586207	-10.103552673655173
O	6.980117223224138	10.618597358586207	0.9419916593448282
O	-10.328376916775863	-6.7999475114137935	-6.324799113655172
O	-13.724387306775862	-8.387930271413794	-5.681579973655172
O	-0.9833619367758626	-0.1646279114137934	-10.016897273655172
O	0.7396616632241373	-3.310294381413793	-8.675406223655171
O	-2.4027390537758624	-4.593672161413793	-7.205480003655172
O	-1.3457925057758624	-9.657968651413793	-7.725441753655172
O	-5.115391346775862	-9.989989751413793	-8.086344413655173
O	6.755091343224137	-5.203289731413793	-11.090264373655172
O	7.800249473224138	-1.6586746214137935	-3.8529091536551716
O	5.600859983224137	1.3032613225862066	-4.776005013655173
O	2.262741763224138	1.2200247975862066	-6.5558270636551725
O	3.753021643224138	2.278729858586207	-9.792142723655171
O	6.367488153224137	5.806473138586207	-5.9644651836551725
O	7.131655253224137	5.363043768586207	-2.2772588636551716
O	7.587492503224137	1.8670524065862066	-0.9103731336551718
O	4.606858003224138	0.6175543175862066	0.7219988253448282
O	3.9056928232241375	-2.669119401413793	2.5123729363448284
O	0.7312754532241375	-3.3708640314137934	0.8104200213448282
O	1.8408433832241373	-2.7570197914137937	-2.6368826736551716
O	5.172672883224138	-4.693212771413793	-1.7668910936551718
O	3.1326424932241372	-7.699964081413793	-0.6539681646551718
O	1.1791981832241376	-7.434334521413794	-3.8972129036551717
O	4.416650983224137	-7.222878901413793	-5.946853143655172
O	9.349243193224138	-1.7750131614137932	8.950392156344828
O	4.298231033224138	0.17860421258620673	9.807091046344828
O	3.1927326632241377	0.38083056658620673	6.120620756344827
O	5.771487233224137	2.9652018085862064	5.132549706344828
O	8.890636893224137	4.358580698586207	6.667184756344827
O	8.153361693224138	6.996346258586207	9.307247176344827
O	4.492435543224138	6.229231658586207	9.527145606344828
O	-0.9203286667758626	-0.8171201914137933	12.189526826344828
O	0.7499667432241375	-4.840283661413793	8.353230966344828
O	1.2006170332241375	-7.840660011413792	10.517526426344828
O	0.2102714432241375	-9.592015951413794	7.332776846344828
O	1.3216571132241373	-7.366875531413793	4.433191296344828
O	4.801607573224137	-6.775679761413793	5.823907396344828
O	5.471378943224137	-9.928071851413794	7.8780746063448275
O	-10.523041456775863	-6.1068676414137935	7.322070226344827
O	-8.317622786775862	-5.679861991413793	10.373622926344828
O	-9.835373726775863	-8.773490841413793	11.946165926344827
O	-8.750244376775862	-10.738194351413792	8.869659926344827
O	-5.182197866775862	-9.448695351413793	8.600576186344828
O	-4.2960477067758625	-9.185879551413793	12.275286726344827
