86

O	-4.379252049829033	3.0957208684016133	-2.2785746329677425
O	-3.8096383098290323	5.231784828401613	-0.9266135809677425
O	-2.318858611829032	2.2366031814016134	-1.3702861609677426
O	-3.0222257268290322	2.2404831214016134	-2.5147127029677425
O	-4.035276979829032	4.055150008401613	-3.2939876029677424
O	-4.436976119829032	5.783368838401613	-2.1218997629677423
O	-3.087691549829032	1.5729636834016132	-0.4400000279677425
O	-5.881000709829032	2.779538458401613	-2.8537660929677426
O	-4.333929309829032	6.159436568401613	0.2772372470322575
O	-3.8566322098290318	0.6256312784016133	-0.8640142809677426
O	-4.393234809829032	3.6963140384016135	-0.7771637399677425
O	-2.228611664829032	4.944438358401613	-0.8514086059677426
O	-5.056285599829032	0.7482615084016133	-1.6664121179677425
O	-4.152779919829031	-0.5312792915983866	-0.02735153296774251
O	-4.694200789829032	-1.614904251598387	-1.0131198120677425
O	-4.154692279829032	-1.2115391015983865	-2.1655737829677424
O	-3.008274874829032	-1.7446954115983868	-2.2350366129677424
O	-1.996716220729032	-0.7869644215983869	-2.4663349729677426
O	-2.871440678829032	-2.8648707715983868	-3.1085126229677424
O	-2.294293465829032	-0.17727256159838678	-3.7226027029677424
O	-2.9924821138290323	-1.1396992115983868	-4.544950982967743
O	-4.260398649829032	-0.8549491615983869	-4.516137182967743
O	-5.1449470898290315	-1.8929765315983869	-5.0015774729677425
O	-4.6720574198290326	0.5151441944016133	-4.773030612967743
O	-11.646804529829032	1.2570383915016132	3.739981277032258
O	-12.731744659829031	-2.3852758515983865	3.1709138370322574
O	-10.484041209829032	-5.310989111598387	4.335460897032258
O	-13.300536659829032	-7.700946581598386	5.060412997032257
O	-15.119487459829031	-5.463649801598387	7.525985167032257
O	-12.008272709829033	-4.825844401598387	9.620976577032257
O	-4.558753579829032	8.318353648401613	7.906807417032258
O	-6.892022449829032	5.299401448401613	7.476315137032257
O	-4.421502589829032	2.435219988401613	7.198883657032258
O	-6.928747859829032	-0.2650015815983866	8.325094047032257
O	-4.292864839829032	2.2459973294016136	12.437559977032258
O	-3.553609959829032	-1.4511221415983868	11.823397777032257
O	-6.541011709829032	-2.5588715215983866	13.899502877032257
O	-2.050630183029032	-1.442632621598387	16.73006817703226
O	0.6350462101709677	7.619347678401613	10.300129777032257
O	-5.303360459829032	-12.285301441598387	-4.643196202967743
O	-7.427326659829032	-13.728219341598386	-7.451960622967743
O	-0.47567439982903204	-9.099232441598385	5.878609337032257
O	2.535469050170968	-9.009965741598386	3.538950347032258
O	0.3960629501709678	-9.394638241598386	0.4803073170322574
O	3.9464790701709678	-12.091110441598387	-2.2746404129677424
O	0.8635083301709678	-13.720626141598386	-3.8107593029677425
O	8.769134140170967	-9.945076541598386	6.023066617032257
O	7.616950300170968	-2.0140755915983863	4.673199477032258
O	4.239659720170968	-2.0054703615983867	6.401101347032258
O	1.436169990170968	-4.5249208115983865	6.039193817032258
O	2.3520697401709683	-6.172867221598387	9.296076677032257
O	2.6453276801709675	-0.5227723115983867	10.527820277032257
O	3.471408960170968	2.5102984284016134	8.450773337032258
O	5.631289330170968	2.0562273954016135	5.387504247032258
O	3.648518020170968	1.7592197274016133	2.3488194470322576
O	4.797442600170968	1.4057101584016134	-1.2887751309677427
O	2.434558310170968	-1.3746992715983868	-2.0777498519677424
O	3.080724020170968	-3.537875541598387	0.8211452170322575
O	6.871504350170968	-2.6934179915983867	0.2769286470322574
O	6.613275960170968	-3.9404324615983866	-3.3181418929677426
O	4.935585670170968	-7.0794472615983866	-1.9898852759677426
O	7.644459170170968	-7.574937171598386	0.6526416170322575
O	8.524352040170967	8.815184608401614	-2.2728653729677424
O	5.300620950170968	8.687261358401614	-6.621582542967743
O	3.136710730170968	8.754288238401614	-3.4304997629677425
O	2.2485427401709677	5.536945518401613	-1.5544019789677426
O	3.183495400170968	6.852775058401613	1.8720964070322577
O	5.086788760170968	9.817555798401614	3.1816992770322576
O	2.982916350170968	12.981583258401614	3.188307677032258
O	0.27925237017096816	11.576713858401614	1.0505560170322576
O	-0.699851159829032	12.411836558401614	-2.5544480529677425
O	-0.8087637398290319	8.458156878401613	-7.632805552967742
O	-0.09472314982903196	6.953325208401613	-10.987127932967743
O	2.952395890170968	4.021206298401613	-7.569801062967742
O	4.728338760170968	4.437360188401613	-10.733807642967742
O	4.804801420170968	0.6501485374016133	-10.437637732967742
O	4.822485240170968	-0.23119179159838676	-6.775099072967743
O	7.422021710170968	2.352173468401613	-5.774337482967742
O	9.552183640170968	2.685599858401613	-8.931742772967741
O	-4.441277619829032	7.958772068401613	-10.560966202967743
O	-6.098459239829032	-1.1038030615983867	-12.606738022967743
O	-4.469060279829032	2.324432088401613	-13.208177422967742
O	-4.086602459829033	1.5095266084016132	-16.899926822967743
O	-2.126720337229032	-1.6212991215983867	-15.895330822967743
O	0.1813349301709679	-0.002886491598386609	-13.329266922967742
O	0.7909654001709678	3.3869407584016136	-15.008614822967743
