48

O	19.46574486713675	-23.79244449828561	3.633100544497547
O	21.636188574316186	-22.704279437039933	3.178668136702173
O	18.530522764598956	-24.592366463632526	4.323440350052617
O	19.147664931586622	-22.616701111564527	7.316189680970367
O	19.208690709651965	-20.626867531746022	4.160857102308132
O	15.884067066128743	-19.929250828725785	2.8909722315518285
O	15.426821381174934	-23.78917143269983	3.4655266210718207
O	17.675686352861437	-25.48353537409204	3.5472062455117586
O	18.84673282498662	-22.114424321090503	8.67624485002385
O	20.209185381551475	-19.78959845649059	3.55666906851473
O	16.42510293970266	-19.28565118747523	1.693643845847796
O	16.517974497992412	-19.982069155307634	0.5780511635633818
O	20.057040024088508	-22.315238904805646	9.515587828971693
O	17.649534738906166	-22.568393859552245	9.415332802299341
O	21.223991259801238	-19.423729693290923	4.560513032830928
O	19.839245225687357	-18.83731595614742	2.4879991866199562
O	16.861813014969016	-24.181519255165576	2.479289664900344
O	20.821769937444742	-18.676049512717626	1.363447413091163
O	17.821707524099722	-19.40220104941853	-0.49920131771358367
O	17.998660317439306	-17.641101618522598	-0.18278859675732928
O	15.010351741144714	-23.302797659613358	5.740473894654891
O	15.853330620192931	-23.729858762104833	4.8409169586541
O	18.43900820490901	-23.711954482533688	6.818239057261963
O	15.45873408554381	-23.57737035522393	7.119068956878138
O	19.633574764086315	-21.18421799317163	5.354379219129777
O	14.407618049218108	-21.996863896286502	5.523683234128544
O	16.729788658323017	-20.83604297041713	3.571524741836447
O	14.84927826787719	-24.906688085894547	7.4149680800199365
O	15.362348030022257	-27.062280240891894	6.594383025791138
O	15.85364647161496	-25.89631821532537	7.0617804969741425
O	15.043903758418402	-26.851440322282517	5.142736540802943
O	16.236926632220133	-28.283088576884648	6.786112933510244
O	17.60434678820872	-27.67358562889351	6.699863358383103
O	17.97753454743736	-27.34933166473661	8.12080713328316
O	18.107348378730407	-26.276274872979105	8.839227564867754
O	19.4101604599569	-25.61536500864663	9.224709210915114
O	17.235472891687355	-25.865022986521506	10.011650212051208
O	20.863570476732338	-23.771816186199217	3.902544077044187
O	21.181610988306616	-23.841609732410877	5.105324056523229
O	18.64496580904142	-24.585458466969527	5.75674981157918
O	19.543900113523684	-25.349846362219456	6.144754858307225
O	18.747302154515832	-21.460557051929673	6.407365577064589
O	17.556516870780897	-21.50143208346297	5.969724796067201
O	18.09993396542022	-20.926830060139167	3.3180789941021978
O	18.369051629089327	-21.26601121500113	2.12166518091142
O	14.748586671402155	-20.724942549372976	2.4139866146820403
O	15.071776339499424	-21.46716389693435	1.4838807547382658
O	13.593887420181053	-20.377315583013832	3.00811052495634
