74

O	1.7521038000979627	0.3413823317148146	-2.9929051924074073
O	1.7794886200979627	1.7841054167148145	-3.2286820124074076
O	0.8670571900979629	2.5901010817148142	-2.7842067224074074
O	-0.5144094469020373	2.2366029347148144	-3.2919829024074074
O	0.5752569800979628	3.0447781917148147	-1.2898572124074077
O	-0.4704783099020372	4.040937621714814	-1.2554034244074077
O	-1.5046562369020373	3.7352019317148146	-0.3229713161074076
O	-2.8110409099020375	3.854335401714814	-0.4412728464074076
O	-3.2755160499020373	3.503140171714814	-1.8370270724074076
O	-3.530466619902037	3.0838722017148146	0.6408390705925925
O	-3.3261159799020374	1.6544620407148145	0.10874457259259246
O	-2.024421319902037	1.5413689407148146	-0.3760213974074076
O	-1.1017438739020373	0.8138850317148145	0.1923614565925924
O	-0.8804235349020373	-0.07533477828518542	-0.9461513774074075
O	-0.07471979990203725	1.0892934227148146	1.2034336575925924
O	1.204393200097963	0.4550702677148145	0.7541735575925924
O	2.2649429700979624	1.3760125737148146	1.1229562775925923
O	3.492384450097963	1.5334356357148144	0.7736159975925924
O	3.6644158900979624	2.6366856917148143	-0.19497485420740757
O	4.541358320097962	0.5086672127148145	0.8278388775925923
O	1.9102852300979627	14.886291391714813	-6.846625192407408
O	-4.538891559902037	12.463935491714814	-7.274742512407408
O	-3.055151119902037	9.723097451714814	-9.518100352407407
O	-1.0524683699020372	12.080003091714815	-11.748004912407406
O	8.389890920097963	7.509328591714814	2.3510966275925926
O	10.377459730097964	4.510355991714815	5.852112777592592
O	7.143228850097963	5.367953301714814	7.776350627592593
O	7.281161440097963	2.9364535517148145	13.340034587592593
O	8.454231020097964	2.1927380907148146	-8.056897252407408
O	6.894511030097962	3.657596541714814	-5.002043642407408
O	9.767269330097964	5.610926391714814	-3.4709441324074075
O	11.952676830097964	2.7182393017148145	-4.7083912724074075
O	9.937199230097963	0.3649870517148146	-2.5002660124074074
O	10.166544330097963	2.8358392817148146	0.41458835859259247
O	13.865501230097964	3.4350174117148145	0.036809586592592425
O	-2.097381356902037	-0.9657412982851856	-11.585368412407407
O	-1.3832735877020372	-3.8161302882851853	-9.105162372407406
O	0.7399075400979627	-1.6868205282851856	-7.133170532407408
O	3.6520336200979626	-1.8046929182851856	-9.402667232407406
O	3.668451680097963	-5.6047907082851856	-9.319094862407407
O	4.075994210097963	-5.535579748285186	-5.556605132407408
O	6.803279840097962	-2.8528152682851857	-5.676987652407408
O	8.383718990097963	-8.045429128285186	-6.505546232407408
O	-6.256874439902037	-1.8109942382851856	-8.997022912407408
O	-6.782347839902037	-3.1993443882851853	-12.512256812407408
O	-9.980142319902036	-2.6548749882851856	-2.4016169724074072
O	-7.960120309902037	-3.7510742082851856	0.6575667585925924
O	-4.9597568099020375	-1.9564157682851857	-0.49166479040740757
O	-4.6662029099020375	-3.2971774282851856	-3.9508401824074073
O	-5.5723716499020375	-6.664204458285186	-2.4391346324074075
O	-2.602620799902037	-6.499877198285185	-0.06236810340740756
O	-0.4647105569020372	-5.709654008285185	-3.1344467824074074
O	-1.8029648899020372	-8.481967028285185	-5.194409742407408
O	1.7982920700979628	-10.040316708285186	-1.2004540604074077
O	3.2520585700979625	-10.047894908285185	-4.723357282407408
O	-12.848454469902036	-0.7301758582851854	6.038915177592592
O	-11.012447029902036	-0.5885286582851854	2.6688411175925926
O	-14.029815769902036	-1.4590765582851855	0.5379562835925924
O	-17.173366869902036	2.3474755367148146	3.1986342375925925
O	-6.584900969902037	-0.8279584182851856	6.979951497592592
O	-2.447309769902037	-3.215270158285186	8.042582797592592
O	-3.6421078999020375	-3.476260988285186	4.425571277592592
O	-6.581280619902038	-5.7464328782851855	5.334224027592592
O	-5.448509969902037	-7.503157718285186	8.483435097592594
O	-2.036922963902037	-8.237654108285186	6.974568317592592
O	-3.776729029902037	-10.342363008285187	4.366988667592592
O	0.23336362009796274	11.862271091714815	10.111497787592594
O	3.2650259200979628	9.593697811714815	9.686057847592593
O	1.5555573200979629	7.242683251714814	7.279139987592592
O	-1.2837925993920372	6.404903461714814	9.749666287592593
O	1.3110829300979627	6.1426720917148145	12.435014587592592
O	3.1718176800979627	3.5212163217148147	10.494601787592593
O	0.12930679009796275	1.4417850851148144	9.422836887592593
O	1.8610665300979627	-2.296794018285185	11.859146987592593
