79

O	0.001516837581818864	-4.501562120145454	2.5672861119090906
O	1.7890841175818188	-4.398254390145454	4.595739211909091
O	0.7538024975818189	-2.364833610145454	1.648693761909091
O	-0.41284021541818106	-2.994326120145454	2.037490321909091
O	-1.208714262418181	-4.749509290145454	3.306850221909091
O	2.8904505075818188	-4.333432080145454	5.530653081909091
O	1.1107336175818188	-3.393177940145454	0.7645604309090909
O	-0.09693689641818104	-5.976915640145454	1.712912901909091
O	1.331544037581819	-5.824477480145454	5.129715231909091
O	0.12046653758181902	-3.968517810145454	0.1390695359090909
O	1.524472657581819	-4.513577060145455	3.0045991919090906
O	1.1392093275818191	-2.9444721201454542	4.719857131909091
O	-1.313006128418181	-4.0404065501454545	0.1650509169090909
O	0.509032727581819	-4.479785690145454	-1.049219848090909
O	1.396557497581819	-4.1569431301454545	-1.791457298090909
O	1.4618923375818191	-2.8535885501454543	-2.2418829880909095
O	0.9705954875818188	-1.884197200145454	-1.543980998090909
O	1.359757067581819	-0.9285315231454543	-2.6212218580909092
O	-0.4415465864181811	-1.750904150145454	-1.228262618090909
O	0.315986127581819	-1.2639250481454543	-3.6247760480909093
O	-0.6246550284181811	-2.175204010145454	-3.151056278090909
O	-1.001097245418181	-3.259829820145454	-3.593197698090909
O	-0.17586198341818104	-3.8112739401454543	-4.642598668090909
O	-1.745002853418181	-4.3365432301454545	-2.9725495080909092
O	13.19963632758182	-10.239760920145455	-2.835669888090909
O	13.041406527581819	-6.626736680145454	-1.609483768090909
O	9.37267202758182	-6.243386230145454	-2.045077408090909
O	9.146304827581819	-7.082755320145454	-5.7228473780909095
O	8.313456077581819	-4.354296560145454	-8.19527262809091
O	9.30946082758182	1.1525495998545459	5.966460331909091
O	10.025475827581818	-0.6454696321454542	2.6186696119090906
O	7.897962987581819	1.355718239854546	0.2366415899090909
O	9.91954142758182	0.3638310618545458	-2.8580551180909093
O	13.152532627581818	1.323555909854546	-1.164046538090909
O	11.85894652758182	4.759162989854546	-0.11149568509090908
O	10.397444127581819	5.314655979854546	-3.588260768090909
O	13.68197552758182	4.430772549854546	-5.288141958090909
O	13.285675027581819	9.586757709854545	-3.561591328090909
O	7.830941557581818	6.662911309854546	6.04165073190909
O	-2.4308447824181814	-5.637776820145454	-13.75724593809091
O	-3.402847032418181	-8.919989510145456	-15.392721838090909
O	-0.7011554874181811	5.282978449854546	-9.749335258090909
O	-1.730141840418181	1.6706711198545459	-10.28693793809091
O	1.2905740475818188	7.944358569854546	-2.661135878090909
O	2.458270067581819	5.768349349854546	-5.563586898090909
O	4.1489959475818186	8.672193559854545	-7.211921638090909
O	5.693367047581819	9.299023449854545	-1.621903538090909
O	3.9674596175818193	8.227590479854545	1.584737161909091
O	0.177941277581819	7.952469739854545	1.574589441909091
O	-0.9037002284181811	4.488047509854546	1.1398378419090909
O	-4.232602862418181	2.7031474198545458	0.9929834929090908
O	-3.580954132418181	0.6054482528545457	-2.0405508780909094
O	-2.336971712418181	3.4587814498545457	-4.100788078090909
O	-5.075556522418181	5.8650419998545456	-2.7073988680909093
O	-7.762587722418181	3.4707495898545457	-3.8564514080909094
O	-6.095370312418181	3.2634682998545457	-7.218616948090909
O	-5.937180992418181	7.100373479854546	-7.431414618090909
O	-6.8716928924181815	4.694678969854546	8.766587631909092
O	-8.085433712418181	-0.6061828301454542	8.351654531909091
O	-4.297334682418182	-0.06928446414545417	8.184243491909092
O	-2.505115912418181	0.6217780778545459	4.843340151909091
O	-0.5366341644181811	3.770358499854546	6.2111346819090905
O	-0.32714110341818103	5.671010839854546	9.228538271909091
O	1.4156178875818188	3.929970399854546	12.09600336190909
O	1.3391632975818188	0.5432880718545459	10.49796436190909
O	-0.913067847418181	-2.449381970145454	11.52960046190909
O	-5.153732752418181	-5.8330381401454545	7.662192971909091
O	-8.154395552418181	-7.427045440145454	6.069111511909091
O	-7.570222562418181	-2.793262810145454	3.3949314019090906
O	-11.15817287241818	-3.465548650145454	4.168477721909091
O	-11.373943172418182	-2.953640200145454	0.4505522879090909
O	-8.590441342418181	-0.5976423211454542	-0.4963301900909091
O	-9.307523582418181	1.8524997698545458	2.343328941909091
O	-5.089606142418181	-10.538904570145455	6.652455121909091
O	-6.212667482418181	-12.319433470145455	-2.658831938090909
O	-7.378646552418181	-11.790473070145454	0.9244708839090908
O	-10.483222722418182	-13.867967170145455	0.2500856319090909
O	-10.690458892418182	-8.219833130145455	-0.7499290210909091
O	-12.03545387241818	-9.124382790145456	2.7047997119090907
