29

O	14.935957718859001	-19.070956686093407	-0.9340826687678181
O	15.27621128675398	-20.21100882598756	1.3175027837402196
O	13.041629055967283	-21.77521697905873	1.895855296280168
O	14.189171807418575	-22.273355073766044	2.0229062301356278
O	12.872734350042883	-21.08150037647468	4.881733844752734
O	14.237658800005777	-21.50033447973376	4.863346902722743
O	14.696900015567394	-23.02773569849658	0.9899262102055619
O	15.974535119794986	-25.79128686011466	4.749423396389142
O	12.947134789729457	-20.40139891555742	1.75348137558501
O	14.829721375963851	-23.29324267852636	2.823833345392144
O	13.554060206844513	-23.843840025380032	3.370943186858864
O	13.859598921326693	-25.055984842312455	4.076091585219301
O	15.354320400084283	-23.570166991492187	4.6830330705216845
O	14.764610943901687	-24.92640950165481	5.1523623842159605
O	12.13763967907029	-22.506128505508627	4.926280971894849
O	11.42036393002061	-19.24943504023898	4.401959579418627
O	12.48992964901551	-19.827157216761975	5.056792101637552
O	14.71189035710659	-19.086766649832118	-2.324060906316835
O	14.07063531879015	-17.780336410270785	-0.4351463719808617
O	16.484459972830997	-20.847191566952134	1.786709794943862
O	15.276916993773042	-20.930121329947386	4.608982578606147
O	16.514397174943923	-18.82183409245274	-0.5487985386802583
O	15.742512511758873	-18.637081605583553	1.467988506058565
O	14.197801183403287	-22.76204872570406	5.067475441496502
O	13.98984280652655	-19.787255594755134	2.238768765053444
O	14.537278674370402	-20.397271049866678	-0.14088472212878678
O	11.554173262618756	-21.765721758516612	6.1858206692013304
O	12.384257315334924	-23.22908347301594	6.039772859419239
O	11.097140574094906	-21.958315815947724	4.332895579911648
