83

O	-1.5964684643779665	2.289569085325423	5.842501547661017
O	-1.6125070063779665	-4.684980834674577	2.178780937661017
O	-2.6111128333779665	-3.7693726146745767	1.7108287876610169
O	-3.8227758393779663	-3.839424644674577	2.523014707661017
O	-2.4250240503779663	-2.994084994674577	0.7236995016610168
O	-3.6682444593779664	-2.351807474674577	0.3406077056610168
O	-3.6467337393779666	-1.0824624446745768	-0.3205512043389832
O	-2.5462321803779666	-0.5534514946745769	0.48811555466101675
O	-1.2556612083779666	-1.1352519146745768	0.2887044706610168
O	-2.4132881393779666	0.6890833993254231	0.5056915406610167
O	-2.0577092073779664	1.455736748325423	1.5904282476610168
O	-3.2891876393779667	1.360675209325423	2.433741737661017
O	-3.489619779377967	-0.12917262267457696	2.513183557661017
O	-4.738391629377967	-0.7778468046745769	3.096903227661017
O	-2.7246414243779666	-0.717751744674577	3.209941577661017
O	-2.1110003113779667	-1.804253704674577	3.890046117661017
O	-0.9487576313779665	-1.678720154674577	3.172791447661017
O	-0.6499413793779665	-0.34649149467457685	3.157471657661017
O	-0.9687617873779666	0.22885630432542303	4.360980367661017
O	-1.3814677553779666	-0.40548845467457684	5.338065847661017
O	-0.6743544393779666	1.667799435325423	4.494760007661017
O	-2.495257271377967	3.4461872453254228	5.663142327661017
O	-2.5702070023779666	1.089310067325423	6.571507887661017
O	-0.6951819393779666	2.900029445325423	7.149204197661017
O	-10.276563629377968	5.596885805325423	2.807377917661017
O	-12.516406109377968	2.983906625325423	1.1635288476610168
O	-11.655389529377967	1.5602148833254232	-2.289720222338983
O	-15.170021909377967	0.9083514051254231	-3.376937462338983
O	-16.335014309377968	4.488289585325423	-2.945278362338983
O	-13.496716709377967	5.929256155325423	-5.017785852338983
O	-1.8108044564779666	12.221593465325423	2.269792357661017
O	-4.983313539377966	10.363453285325424	1.3052665576610167
O	-3.646956069377967	7.870925855325423	-1.2321524923389833
O	-7.034831269377967	7.185546355325423	-2.872595122338983
O	-4.212544219377967	11.474533865325423	-4.942836022338983
O	-4.747103459377967	8.431668735325424	-7.210875662338983
O	-8.162529809377967	9.662163005325423	-8.302877622338983
O	-3.9437371293779666	11.769598165325423	-11.055045772338984
O	2.478923030622034	12.684023465325422	-1.5679833123389832
O	-4.838561749377966	-13.943298234674577	8.961307457661016
O	-8.347275839377966	-10.538883734674577	-2.707633182338983
O	-10.498810969377967	-13.122825134674578	-0.9400287713389832
O	-3.8689294593779664	-1.4909434646745772	-9.252047272338983
O	-0.7590063493779666	-3.6110681646745775	-8.557228232338984
O	-2.5422888633779666	-5.778971494674577	-6.208660542338983
O	0.12947047062203332	-10.125750534674577	-7.011737762338983
O	-3.1400993193779665	-11.846429034674577	-6.142439012338983
O	4.427785790622034	-3.5078549946745774	-12.879865572338984
O	6.2755769606220335	1.0179205183254232	-6.405340472338983
O	2.928755690622034	2.848396595325423	-6.476775632338983
O	-0.5020011093779666	1.3622208993254232	-7.026355882338983
O	-0.5998520493779667	2.4835826153254232	-10.582847372338984
O	1.5568110606220336	7.139471205325423	-7.860346792338983
O	3.5530687506220335	7.461585115325423	-4.655774722338983
O	5.676438010622034	4.549397335325423	-3.527685822338983
O	4.025002970622034	2.529242935325423	-0.9914641533389832
O	5.399521680622033	-0.529403204674577	0.8581629516610167
O	2.3174973006220334	-2.530712834674577	0.3450385216610168
O	1.9375061406220333	-2.002471724674577	-3.291463072338983
O	5.830083640622034	-2.488224964674577	-3.591669072338983
O	5.549102430622034	-5.871452314674577	-1.8818050823389831
O	2.6843112706220333	-6.692067964674577	-4.249580562338983
O	4.784508160622034	-5.6045633546745774	-7.281571702338983
O	11.750443990622033	3.031073385325423	5.106740427661017
O	6.878605910622034	3.1424269453254228	7.641270037661017
O	4.673427890622033	2.471037895325423	4.546998867661017
O	5.565306710622034	5.653873705325423	2.765509937661017
O	8.285258490622033	8.258795185325424	3.154623657661017
O	7.472939280622033	10.759907275325423	5.913035847661017
O	4.614920640622033	8.754279525325423	7.334659747661017
O	3.475337690622034	0.632185686325423	11.646169527661018
O	5.184777350622034	-2.958252574674577	7.442169947661017
O	7.375883900622033	-5.322996124674577	9.310815017661017
O	6.157801080622034	-7.676505154674578	6.633715547661017
O	5.434002380622034	-5.576178294674577	3.538114047661017
O	8.663267890622032	-3.6194504946745774	3.690720077661017
O	11.067150190622034	-6.063729124674577	5.384264907661017
O	-4.507807329377966	-8.274199884674577	10.254477227661017
O	-1.7805316079779665	-6.723160754674577	12.400883927661017
O	-1.4492126833779666	-9.957156234674578	14.361350727661018
O	-0.7463117223779666	-11.752787534674576	11.072748627661017
O	1.7917565906220336	-9.302940634674577	9.633138847661018
O	3.6273778506220333	-8.313529514674578	12.794527027661017
