79

O	-0.9808987480666667	0.7457726497577775	-4.8516111824
O	1.1223722059333332	-2.0420914102422225	-4.446196022400001
O	-4.888230034066667	-0.4782104572422225	2.6157688476
O	-4.8930430140666665	-1.8340095202422224	2.1368296576
O	0.11564800593333335	-5.984396460242222	3.3454298776
O	-4.7846264140666666	-2.6815593602422227	3.2017595175999993
O	-4.156737024066667	-3.7707258802422228	2.8603865876
O	-4.183331344066667	-3.6481589402422228	1.5523510875999997
O	-3.8289263540666667	-3.0062656002422226	-1.0326066464000003
O	-4.326166734066667	-2.335486190242223	0.9518459975999998
O	-0.33167931406666673	-3.8419580602422227	3.4149828175999994
O	-3.4511788640666667	-1.8720517102422225	-0.12789547040000032
O	-2.841042444066667	-1.1561859542422226	-1.1549327814000003
O	-2.2477713520666667	-1.8902449002422224	-2.2467776124000003
O	-2.0258641560666666	-1.4375079402422224	-3.5118180924000004
O	-1.8612106230666665	-0.10491461824222251	-3.6160650124
O	-2.2947554890666666	0.6722125587577774	-2.6058297624
O	-3.2611329640666664	0.013844222757777469	-1.8364974524000004
O	-2.1000988020666664	-1.8573448302422224	0.4310510155999997
O	-1.6087261151666667	-3.0955362502422226	0.18350614659999964
O	-0.7218114710666667	-3.455560380242223	1.1508635975999997
O	-2.1504761440666664	-1.2812425202422224	1.7311527075999995
O	-1.4093599690666667	-1.9061797102422224	2.7483340075999996
O	-1.0628898330666665	-3.2424156202422227	2.5042962976
O	-0.9451077060666666	-3.9868773302422227	4.7044055776
O	0.5021727859333331	-4.755397660242222	2.9632450075999994
O	0.8988267559333332	-4.7102377202422225	1.4918178375999998
O	0.5412815159333333	-3.7532524702422227	0.6024227275999996
O	0.9581745359333336	-2.781430690242223	-0.4690457894000003
O	0.7625836659333334	-2.814995140242223	-1.8339303824000004
O	1.0393192559333333	-1.8046945702422224	-2.7153293824
O	1.0173244459333335	-0.5390433172422224	-2.2589344824000004
O	0.5121492959333331	-0.3393469711422225	-1.0213510224000002
O	0.6399825659333331	-1.4146358402422226	-0.1735312674000003
O	0.06228420593333328	-13.348034570242223	-7.9604933824
O	-3.3085269440666667	-11.860894370242223	-8.7993040124
O	-1.9446822990666668	-8.318098460242224	-8.4118369624
O	-10.016772104066668	-6.500774970242222	-2.5178694624
O	-7.853028264066666	-6.679336040242222	-5.6544204024
O	-8.051870964066666	-3.995980690242223	-8.3468414424
O	-16.005138034066665	-3.500955090242223	0.2996117575999997
O	-15.124183934066666	-0.3486107022422225	-1.6497899624000003
O	-14.394567634066666	-2.0913738602422227	-4.9907110024
O	2.334989755933333	-11.017910670242223	-3.5690248124000004
O	4.147906785933333	-7.707211900242222	-4.1317038324
O	4.364556325933333	-6.679145300242222	-9.3964969324
O	5.1955832159333335	-3.910110920242223	-6.9093914924
O	8.897256865933333	-3.992948730242223	-6.5528019524
O	9.633988565933333	-0.3197362413422225	-7.3068104224
O	7.305298895933333	0.3606731637577775	-4.3990992924
O	9.395274765933333	-1.7141692902422225	-2.0942977224000003
O	8.808813065933332	2.6327536097577773	0.8251320475999997
O	6.248803465933333	-3.7179627402422226	-11.2030754624
O	1.7964393559333331	3.1159948397577772	-9.5071816824
O	5.275135055933333	1.7255923097577774	-10.0841683224
O	-4.582662294066667	7.443533379757778	-8.2216965624
O	-1.7126116440666665	11.902688029757776	-8.8444473224
O	0.8127041659333332	9.436382599757778	-10.2021219624
O	-5.969984674066667	7.3459309297577775	0.08497256559999966
O	-4.221657024066666	11.651765429757777	-4.3980879324
O	-11.247456784066667	1.4190754497577776	12.1015495376
O	-5.088980374066667	2.5547535197577775	10.9298115376
O	-1.4970379600666666	3.668874339757777	11.1196326376
O	-3.809487724066667	7.055194129757778	7.4408091876
O	-1.4318666510666667	8.964949109757777	9.7014685376
O	-0.12286851406666655	10.104422429757777	6.3399918276
O	-2.9761377440666665	9.945528229757777	3.7829507276000003
O	1.8005604759333333	-1.5346883702422225	11.0587129376
O	-1.8108364630666667	-0.8448281172422225	10.6756629376
O	1.9183522859333333	-7.742388940242222	11.2998788376
O	4.4565420259333335	-5.303915280242222	9.9053852376
O	4.779104265933333	-4.412526830242222	6.2008249176
O	7.033856115933332	-1.8268760002422224	4.4324156676
O	4.0204897159333335	0.31702989175777746	3.1499787675999995
O	2.840241125933333	0.7079101547577775	6.7803846076
O	6.465355495933332	1.4148211397577775	7.895430167600001
O	6.728176135933333	4.144227999757778	5.2516976976
O	3.456347305933333	5.907211549757778	6.0387315576
O	3.392298585933333	5.549165849757777	9.8366386376
