24

O	15.180642589105775	-20.157762657928423	3.7440361741794264
O	15.965793227813549	-19.95456929717281	1.1522170227597206
O	16.57481429704522	-22.142538131087274	3.5623616744848206
O	15.203023488576562	-21.852934988500216	3.4549720438405647
O	15.518806335279951	-20.024375098143818	5.196796748315623
O	15.335849363160861	-21.297710408293703	1.2473737804153107
O	17.058080665307454	-22.017410853378543	4.977327605212436
O	13.656968116268413	-19.61739652091564	3.339789731032492
O	14.841549950975853	-18.90403646977437	0.4894512936491626
O	16.66719457753043	-22.875556502771634	5.933512094117244
O	16.40377576108922	-19.55736148391801	2.723231171872319
O	17.18482531265253	-19.799084485609008	0.035523633294835655
O	17.647755160603644	-23.55557359915804	6.84477640285262
O	15.493063425623262	-23.72874443774919	5.523096126688733
O	15.971820179811726	-24.386409976026933	4.222896469927588
O	16.939894824798245	-25.44082426662469	4.688055544839686
O	16.34714648115786	-26.564611527573604	5.119344050624698
O	17.084511387395306	-27.4316751983006	6.097166646080453
O	15.447396539305222	-27.214377769564457	4.10826312248544
O	17.276925098480103	-28.75592056641365	5.418505335795488
O	16.213819558000516	-29.669184098408866	5.957673513766913
O	16.501682843995344	-30.203886398912097	7.155546023123599
O	17.88120524686908	-30.785022738616625	7.266902009638123
O	16.078966909743972	-29.3643896662411	8.327457839439061
