85

O	-1.4130910443731344	-0.07757066574029858	-2.4788611177752236
O	-2.8866331223731345	1.2023756905597014	-1.7108005377752238
O	-1.5439700803731344	0.7974049772597014	-0.9747940067752237
O	-1.6258273443731344	-0.19103830574029845	-0.07807588277522359
O	-0.8455387682731343	1.8738186642597014	-0.2519095747752236
O	-3.8497045423731344	1.8067045042597014	-0.8086957717752236
O	-2.4399537523731345	2.4518029942597015	-2.7997115677752236
O	-3.8772540223731347	0.26794914625970145	-2.6519291177752238
O	-2.0569493523731346	0.5859861712597014	-3.771933277775224
O	-2.4231938023731345	-1.3174707257402984	-2.4584772077752235
O	-0.04152347537313439	0.4005995532597014	-2.760038077775224
O	1.7548017876268656	1.7228449702597013	1.0408017822247766
O	2.5377444076268656	0.09440174425970138	-0.46044593977522363
O	1.3601317776268655	-1.7232410457402987	0.5655004022247764
O	0.4626725276268656	0.21710187525970148	0.6962294622247763
O	2.8715741076268655	1.1195750426397015	0.5290703022247764
O	1.3715690676268655	-0.5204637457402985	-0.14446697477522363
O	0.46012778762686557	1.4906717872597015	0.41417226222477643
O	-6.334361462373135	12.411398214259702	-0.4468806917752236
O	1.7643588876268654	13.042568514259703	9.189110882224776
O	0.3978676176268655	14.040605114259701	5.700772142224777
O	5.071804527626865	11.125558214259701	5.946149112224777
O	2.2066174776268657	9.678303904259701	3.9187640022247767
O	3.2083876576268655	11.407559514259702	0.7003576022247765
O	6.823538927626865	10.255228524259701	1.1120387722247762
O	5.659170447626866	6.6686710342597015	1.3314201822247762
O	3.0848445876268653	6.666203094259702	-1.4101969067752236
O	5.424825087626865	8.2897675342597	-3.9661313377752236
O	8.019940657626865	5.609816844259702	-3.326449797775224
O	3.769142277626866	3.8128880542597017	-6.426153877775223
O	7.251155217626865	3.435022294259701	-8.043730877775223
O	7.823508117626865	-0.05341088574029862	-6.505130547775224
O	4.395679067626865	0.02565937425970155	-10.987140327775224
O	1.2476760776268656	1.9706229792597014	-10.362929477775225
O	-0.4094937893731344	4.349679804259702	-12.753195427775225
O	-2.5989339923731345	6.791484764259701	-10.806438227775224
O	-2.8016018423731346	8.173361294259701	-7.299892047775224
O	-5.572947812373134	10.322883794259702	-5.914578967775223
O	-7.098121372373135	10.651450624259702	-9.420170867775225
O	6.645280197626866	1.0806096608597013	7.866751192224776
O	9.926827417626866	0.2450228222597014	6.006551712224777
O	6.512866487626866	-3.834037915740298	6.599381392224776
O	7.1043010576268655	-2.6832266857402987	3.0275573622247762
O	10.185540117626866	-4.835489815740298	3.0007550622247763
O	7.994305727626866	-7.849328915740298	3.887854762224776
O	5.328265357626866	-6.679965815740299	1.3335202622247762
O	7.9189740576268655	-6.7618751857402986	-1.4951657507752236
O	9.750144617626866	-9.968160385740298	-0.4410601347752236
O	6.511091357626865	-11.898973285740299	-0.3382763737752236
O	5.587364047626865	-10.560295585740299	-3.8172363277752237
O	2.8442774376268654	-7.2995730257402975	6.919371542224777
O	-0.1430659943731344	-5.009905815740298	7.470978252224776
O	0.6817420076268655	-4.3278824757402985	11.154724072224775
O	4.0264800276268655	-2.979018275740298	10.024289072224775
O	3.3319983976268652	-1.4308416757402986	6.570582642224776
O	0.12918812062686558	0.32905669225970147	7.5420504422247765
O	-1.2455063463731344	0.20936717925970139	11.115050572224776
O	1.5957602476268655	1.9296438062597014	12.995235272224775
O	1.8368583476268654	5.1512046342597015	10.832793872224777
O	-1.7836711923731343	5.522357974259702	9.665552472224777
O	-5.033023052373134	-0.41349479574029857	10.806987072224777
O	-5.384815582373134	-4.092948955740298	9.889496572224775
O	-8.998950252373135	-3.4621043957402984	8.979003452224775
O	-8.050823392373134	-0.41414113574029865	6.826761232224777
O	-5.435855482373134	-2.2346452657402986	4.700177022224777
O	-7.961999782373135	-5.116260955740298	4.230095382224777
O	-10.409770512373134	-2.5862418157402987	2.8725593222247765
O	-6.875205232373134	-4.565365095740298	-0.7010202408352236
O	-10.627456152373135	-5.263120605740299	-1.4725656777752236
O	-10.872653982373134	-1.9024074957402985	-3.316572437775224
O	-7.751121132373134	-2.644046915740298	-5.4183984977752235
O	-10.610781852373135	5.3997110642597015	-5.294489637775223
O	-8.433082852373134	7.564693054259702	-7.525896607775223
O	-6.094450932373134	4.692863174259702	-8.203996827775224
O	-5.285578692373135	-1.6361124257402986	-8.895058667775224
O	-2.0924067123731342	-3.6263150957402983	-9.240141877775224
O	-2.0608939223731344	-6.260036925740298	-6.550969617775223
O	-2.7297863123731343	-9.406832685740298	-8.680863287775225
O	-0.23492072937313435	-8.414205095740298	-11.370161427775225
O	2.3519019876268654	-7.449393385740299	-8.673361727775223
O	1.9592964276268656	-10.916286085740298	-7.003455227775223
O	0.8982762276268655	-9.332282385740298	-3.7132342777752236
O	-0.20207457637313442	-10.963521985740298	-0.5155270507752236
O	-3.6362581823731346	-9.214586885740298	-0.5923739377752236
O	-12.499643182373134	5.233072584259702	-1.2878477117752236
