18

O	16.4190475908309	35.874415446428834	-8.483900939262965
O	14.474096241139504	36.32775096834215	-7.842685579888806
O	14.998814061929325	34.88886523318585	-8.24608362942219
O	14.727550084520558	34.4779711849382	-9.489227251439573
O	14.552769535739047	33.77005633360167	-7.398530945409232
O	13.02535274452298	36.38933108715781	-7.7805321092958355
O	15.007093497834742	36.56121984495157	-6.227840545193403
O	14.824012419625221	37.791436173320555	-8.53217091480416
O	16.61383228811785	37.12467148120089	-7.521707831359966
O	16.23312171405343	36.759585611724674	-9.802984178148503
O	17.301636362837804	34.97687673286794	-7.70649103792859
O	15.414986836133762	30.997176192116772	-7.55144845033864
O	17.539280704006615	31.57973339443168	-8.367888208236774
O	16.797581837242554	31.999702169594944	-10.60768099641305
O	15.393215857906316	32.36242441931605	-9.031723316380337
O	16.701804999284263	30.56540330661055	-7.7265350524514504
O	16.817364420606395	32.31659061000691	-9.247516268473518
O	15.092005655587284	32.402028533388936	-7.763162325062762
