83

O	-1.6303630157007474	1.3422607593582083	-0.6668954541232831
O	-0.2960754697007474	3.0835124493582082	0.7535770338767169
O	2.4745117692992524	-2.455779200641792	-0.26869416412328306
O	2.1318278992992523	-2.2590288806417913	1.036064183876717
O	-0.1053297097007474	0.6860129983582084	1.2916094538767169
O	1.4103636492992526	-1.8085487706417915	-0.8455387871232831
O	1.2265653392992526	-0.6151547606417918	-0.2047008151232831
O	-1.6620989457007473	0.35911044935820835	-1.617538376123283
O	1.1408140992992526	-1.3780028506417918	0.921539193876717
O	-1.8078765207007474	2.807981339358208	-1.441615586123283
O	0.9269173492992526	0.7732626293582083	-0.6407196001232831
O	-0.6799793949007474	3.000192109358208	2.096100393876717
O	-0.06221367770074737	1.3779101193582084	0.17228538587671688
O	-0.054047262700747445	3.798492409358208	-0.6069608351232831
O	-2.658870620700747	1.4203158523582085	0.6141290098767169
O	-2.0490848307007474	3.498171219358208	0.576026326876717
O	7.099720089299253	11.325708259358208	3.477227723876717
O	15.212046329299252	1.7423759703582085	4.131647603876717
O	13.830851829299252	5.060079669358208	2.6925309838767166
O	13.482387929299252	0.5251239343582084	-0.4039195471232831
O	10.229162629299251	2.3674029293582084	0.3386027488767169
O	10.558314629299252	4.668939529358209	-2.6656292961232833
O	11.270608929299252	1.6990591903582084	-4.965503736123283
O	8.074782739299252	0.03645866235820838	-3.8124338661232833
O	5.812722439299253	3.0196319393582085	-3.8285297861232834
O	6.781900809299253	4.082323749358208	-7.359423876123283
O	5.958952939299253	0.6199557273582084	-8.649529776123284
O	1.4615867592992526	3.6127861393582084	-7.670754616123284
O	1.7308109492992527	2.3602454393582084	-11.259609326123284
O	-0.06752730570074739	-0.9571124206417916	-10.465591726123284
O	-3.4666078807007477	3.5119049793582082	-10.940147926123283
O	-2.868135530700747	6.1160394093582084	-8.317138356123284
O	-2.7863222607007474	9.843393349358209	-8.909682556123283
O	-0.7961268466007474	11.47864145935821	-6.082187076123283
O	1.9063236792992526	10.551143169358209	-3.6213980161232833
O	3.160970549299253	12.681986159358209	-0.7490266971232831
O	1.1068051592992525	15.637575759358208	-2.0434491061232833
O	7.100123589299253	-7.540629600641792	0.1861564858767169
O	2.6084380092992525	-9.83099524064179	-0.3667618158632831
O	2.0217018792992523	-7.3678585806417916	-3.232539306123283
O	1.6031652092992525	-10.48954934064179	-5.446847786123283
O	-1.2302004497007473	-11.596887640641791	-3.1274258061232834
O	-2.5830017207007474	-7.956707180641792	-2.981314706123283
O	-2.933600020700747	-7.9206747206417925	-6.804390126123283
O	-4.222356340700747	-11.49751944064179	-7.280485476123284
O	-6.985244060700747	-10.93494364064179	-4.779657516123283
O	-7.941070000700747	-7.659018900641791	-6.5449524461232835
O	-1.4335032427007475	-10.05703894064179	2.6625234838767167
O	-0.5555353797007474	-7.255471340641791	5.085175173876717
O	2.044654089299253	-9.37134554064179	7.005820953876717
O	3.904993309299253	-9.786045140641791	3.746765063876717
O	3.1983340392992528	-6.524989990641792	1.8203039738767168
O	3.7110094392992528	-4.111874460641792	4.6615317838767165
O	4.807219339299253	-5.445404390641792	8.134325943876716
O	8.180429189299252	-7.035942950641792	7.316681703876717
O	9.760179829299252	-3.988101390641792	5.510519923876717
O	8.032213219299251	-1.0685420906417915	7.281821033876716
O	4.693811479299253	-7.682826440641793	12.649887473876717
O	2.692602419299253	-3.564423440641792	10.723978973876717
O	-0.7670292168507474	-5.150703970641792	10.540579173876717
O	-2.1354316207007473	-2.273198220641792	12.578495173876716
O	-0.3920922847007474	0.28617696235820833	10.281302573876717
O	-1.8214169907007474	-1.1350094606417918	7.040695773876717
O	-5.311863070700747	-1.2208083706417916	8.676247263876716
O	-4.947841930700747	2.4622127593582084	9.466256353876716
O	-6.907044240700747	1.2116133423582083	4.562056803876716
O	-9.148569350700749	3.4276587193582086	6.686436813876717
O	-7.3883198107007475	6.597296079358208	5.423811463876716
O	-7.663793920700747	5.521900589358208	1.7610654338767169
O	-2.4322586407007476	12.032418159358208	3.5918871438767166
O	-0.9277040117007473	13.430282659358209	0.38313986187671695
O	-2.5650046007007474	10.689909079358209	-1.650589266123283
O	-5.888907980700747	10.005110519358208	-3.4157894661232833
O	-7.514338970700747	6.668954059358208	-2.4297613461232834
O	-8.130302710700748	3.922877759358208	-4.955307286123284
O	-8.890952720700747	0.7667868433582083	-3.003120156123283
O	-12.658847470700747	0.4005830143582083	-3.8601074661232833
O	-9.092852320700748	-1.2234391106417914	-7.621644786123284
O	-11.191758970700748	-4.081513640641792	-6.069375606123283
O	-8.831029520700747	-4.380917220641792	-3.113024276123283
O	-9.027442200700747	-6.5462201306417915	-0.05745273912328308
O	-9.058317880700749	-3.508156750641792	2.319923753876717
O	-1.4744719517007474	10.799313729358209	7.747104043876718
