16

O	16.322132954861505	35.19386039426334	-9.225120467774952
O	14.32508591915943	35.765311403135044	-7.635391020563194
O	15.64905915139109	33.13244949038179	-7.859828620087999
O	15.045615013813851	34.263965927385584	-8.435200599509082
O	14.989538410012912	37.054460555136444	-8.329704998633098
O	13.193592841369318	36.17061627766239	-8.62317175780904
O	15.417205085703296	35.77562881006239	-6.54716752933726
O	14.031797724825406	33.82195982769824	-9.142197786882571
O	15.465175530212601	31.977997341013673	-8.763506151456065
O	17.332981386513268	34.424660123096956	-9.700274663288393
O	14.48854060315783	31.566318398497877	-9.627224429209484
O	16.940758715125007	36.24929026462914	-8.125738614437932
O	14.424408030075119	30.236997459187563	-9.535410763724123
O	15.377680381568572	35.9992826249684	-10.273261269031243
O	15.718270376107814	29.893735757925768	-9.285314589359285
O	16.35304047093405	31.128975268591336	-9.339780792497608
