83

O	-3.128619076709091	-0.21893873324242386	-0.44344749367575764
O	-2.1217144767090907	-0.46991860324242374	1.4113257363242424
O	0.5286034532909092	1.099140766757576	-1.0238957366757577
O	0.9017129832909092	0.1830216607575762	1.0484646463242424
O	-3.022755596709091	-0.9064234832424237	-1.6378870536757577
O	-0.7221317117090909	1.2735156077575762	-0.26252005907575765
O	-4.099039096709091	-1.2985047032424237	0.27063664532424236
O	-1.4497863637090909	0.032325381757576155	-0.2718908625757577
O	-3.7051535267090907	1.250924686757576	-0.16973614157575767
O	-0.3749054887090908	-0.6984590832424239	-0.7285976056757577
O	-1.4424924697090908	0.33122362175757614	2.184966686324242
O	0.8820204832909091	-0.14642015324242375	-0.30145506307575765
O	-2.209255376709091	-1.9865586132424236	1.0198770263242423
O	-3.617725886709091	0.20310497575757613	1.6411674763242423
O	1.3727785132909094	1.4505308147575762	1.2924021363242424
O	1.8392063132909093	2.423996536757576	0.3985789033242423
O	1.7215524732909093	1.9422550827575762	-0.9503364866757577
O	-10.13397572670909	5.472005876757576	-7.883697583675758
O	0.5607706132909092	9.264624706757575	-13.283520933675758
O	-2.788718356709091	9.793281646757576	-11.408067633675758
O	1.9146337432909093	10.559345426757575	-8.645517403675758
O	-0.5516656647090907	8.026015296757576	-7.236031573675758
O	-2.435405156709091	10.600309616757576	-5.178012933675758
O	0.8295747732909091	11.956077236757576	-3.7451772836757575
O	1.7499424632909093	8.501279446757575	-2.5541571536757575
O	-1.5674366327090907	7.403523336757576	-1.1980896946757578
O	-2.0790971967090908	10.604423636757575	0.8620319163242423
O	1.2905760732909093	10.109002776757576	2.5179133263242424
O	-2.5863653367090906	6.710642846757576	4.511455626324242
O	-0.9011182099090908	8.919722936757577	7.156046596324242
O	1.9255477432909094	6.3781266167575765	7.831465186324243
O	-3.0147425367090905	5.071299906757576	10.214170566324242
O	-5.749898426709091	4.429824996757576	7.727449426324242
O	-9.31344331670909	5.619355876757576	7.961702526324242
O	-10.86670601670909	5.694112506757576	4.463842536324242
O	-9.69496325670909	5.977848386757576	0.8835600963242423
O	-11.79111197670909	5.519414926757577	-2.231824443675758
O	8.64316998329091	3.7047944667575763	-4.781293073675758
O	10.04626892329091	0.18475182375757615	-1.3932487736757577
O	7.980583893290908	2.0996404367575763	1.1352225163242424
O	11.072364323290909	2.4645551067575764	3.2287614063242422
O	11.36665432329091	-1.3523195132424237	3.2488504563242424
O	7.560851593290908	-1.680322893242424	3.856083806324242
O	7.84373102329091	0.44307482275757615	7.053072406324242
O	11.13198642329091	-0.9963309632424239	8.361211646324243
O	9.80556442329091	-4.515395893242424	8.141560066324242
O	6.602349253290909	-3.4437272232424236	9.977507766324242
O	9.22951352329091	-4.788681873242424	-1.1755777926757576
O	6.424207773290909	-5.0860903132424236	-3.7321745136757576
O	8.76212746329091	-4.748573213242424	-6.772545403675758
O	9.83514802329091	-1.3938640432424236	-5.403394213675758
O	6.701641963290909	-0.03425603324242388	-3.5791747836757573
O	4.181328843290909	-0.9455026732424238	-6.246424863675758
O	5.339749953290909	-2.5754271232424237	-9.577102733675758
O	7.592490723290909	0.1562915217575762	-10.999014833675758
O	5.092334953290909	3.1196624367575763	-10.737911633675758
O	1.7516778432909093	1.3109550237575762	-11.176641933675757
O	2.8192244032909093	-5.395632023242424	-10.297033733675757
O	3.7507307932909093	-8.214417833242425	-7.903719773675758
O	0.44787348329090926	-9.891851563242424	-8.697422713675758
O	-1.4985897737090907	-6.616541933242424	-8.128347963675758
O	-0.0030229807090907945	-5.981195643242423	-4.6723493736757575
O	-0.7647763657090908	-9.626826463242425	-3.7165897336757574
O	-4.378795986709091	-9.061648363242425	-4.688569293675758
O	-3.020560726709091	-7.693086363242423	0.3724324053242424
O	-5.800815946709091	-10.276549663242424	0.07919218032424236
O	-8.45874594670909	-7.5158419832424235	-0.16055440307575766
O	-7.103015346709091	-5.6578910032424234	2.900304526324242
O	-12.68729347670909	-1.5121145832424236	-2.0220434236757576
O	-13.42865767670909	1.9176770047575762	-0.5523314946757576
O	-10.88766837670909	1.4046935677575763	2.186402086324242
O	-10.622638786709091	-0.14206192324242373	5.655165636324242
O	-7.794491276709091	-2.7039565832424235	6.039213216324242
O	-4.917763966709091	-2.1253228232424237	8.421685366324242
O	-2.190961736709091	-4.549440963242423	7.472743846324242
O	-2.4394241767090907	-6.940471233242424	10.503489766324241
O	-2.6580892767090907	-4.141720673242424	13.061677866324242
O	0.2111305032909092	-2.2707215332424235	11.269126866324243
O	2.443735053290909	-5.4200708332424234	11.503504366324242
O	2.8579178432909096	-5.537400993242423	7.7350709263242425
O	4.625583993290909	-8.049348923242425	5.585379356324242
O	1.4071725032909093	-8.915080113242425	3.6474585963242427
O	-11.66819957670909	-3.6166484432424237	-5.787191783675758
