83

O	-1.9284838096196961	2.0544508008787874	-0.7482945564848487
O	-1.406401134619696	2.5774477508787874	1.3732780575151513
O	1.845814280380304	-0.8916778491212127	1.2091975575151515
O	2.1384654903803035	-0.6515560491212125	-1.2508301294848485
O	1.155397270380304	0.21305722087878753	-0.7097854004848485
O	2.9458959703803043	-1.5786920091212127	-0.5925517864848486
O	2.9900550203803036	-1.4008781291212127	0.7500459375151514
O	1.1762844803803039	0.09079754087878755	0.6136850315151514
O	0.07068514238030388	1.2723011376787874	-0.8726680934848485
O	0.49008417038030383	1.4835958338787874	0.8379260275151514
O	-0.8371062706196961	1.1893674498787874	0.3494859875151514
O	-2.732635089619696	3.1224907408787876	-1.0011165334848486
O	-1.111913852619696	3.6601832908787877	-0.4943456424848486
O	-3.1235301996196965	1.7369160788787874	0.4821217715151514
O	-2.063186799619696	2.1599777268787874	2.5106330975151514
O	-0.48957691361969613	3.9117248408787875	1.5148806375151513
O	-2.657762169619696	3.7152066208787877	0.9947316375151514
O	2.7862911003803035	9.418808900878787	9.900346547515152
O	12.018158920380303	0.8612420778787875	10.370836347515151
O	10.585274020380304	4.409180590878788	9.794903247515151
O	12.322996020380304	1.5337109158787874	5.413488137515151
O	8.717347100380303	2.7358273008787872	5.3644428975151515
O	9.579060320380304	6.106563850878787	3.8175102775151513
O	11.660798920380303	4.392894390878787	1.1061533875151515
O	8.699097270380303	2.2423053378787876	0.1671516585151514
O	6.008764120380303	4.879783700878788	0.30385102151515136
O	7.9053831103803045	7.335230530878787	-1.8797340924848487
O	8.338850130380303	4.663532140878788	-4.535502232484849
O	3.255570610380304	6.807930400878787	-4.483601562484849
O	5.0481942803803035	7.112672380878787	-7.832975192484849
O	3.807673440380304	3.6790658208787876	-9.069106602484847
O	-0.02365090361969613	7.803305240878787	-9.338695372484848
O	-0.9723504756196961	9.163387200878788	-5.978992362484849
O	-1.491488688619696	12.761941240878787	-5.0368205724848485
O	-1.0234482506196962	13.167935240878787	-1.2659338544848486
O	0.7625273803803039	11.434578040878787	1.5597947175151514
O	0.4357216203803038	12.203707240878787	5.252439467515151
O	7.976482230380304	-6.359694529121213	0.41702023251515147
O	4.529020720380304	-8.380643539121213	-2.6869578624848485
O	4.555579490380303	-5.037804859121213	-4.495575412484849
O	5.565116850380304	-6.962212639121212	-7.610103612484849
O	2.3936969403803037	-9.068529559121213	-7.208118322484849
O	0.35575333638030393	-5.886384659121212	-6.327891582484849
O	1.3724464703803039	-4.291759859121213	-9.669854932484848
O	1.114503350380304	-7.409565039121214	-11.877568452484848
O	-2.405737719619696	-8.086588399121213	-10.720970452484847
O	-3.339443609619696	-4.417599879121213	-11.397286252484848
O	-0.1559585566196961	-10.081338259121212	-1.8881473824848487
O	-0.8129955456196961	-8.543374529121213	1.5241352875151513
O	1.341741540380304	-11.102198059121212	3.4208576175151517
O	4.268604080380304	-10.025275759121213	1.2929332675151515
O	3.6113247603803034	-6.2875216891212125	0.5743721605151515
O	2.5958635203803038	-5.316848269121213	4.052484137515151
O	2.6304293703803037	-7.876081099121214	6.920923067515151
O	6.334541100380304	-8.795518459121213	7.025013297515152
O	7.7759607103803035	-5.197630109121213	7.229990367515152
O	4.969045860380303	-3.3762933491212124	9.061963007515152
O	1.422935840380304	-11.785035859121212	9.847776647515152
O	-0.610308977719696	-7.371472929121213	8.925287617515153
O	-3.3674513596196958	-8.910478459121213	6.783321217515151
O	-5.9509597096196964	-7.186482339121213	8.959107637515151
O	-4.103390589619696	-3.8109279291212124	8.680332087515152
O	-3.9887555996196964	-3.923907159121213	4.880488527515151
O	-7.701551979619697	-4.7470328191212126	4.759477187515151
O	-8.396403779619696	-1.6853207291212124	6.880745497515151
O	-8.172074669619695	-0.8921530491212126	1.5198360675151514
O	-11.421456979619697	0.13045895087878745	3.1667212775151516
O	-10.084886109619696	3.6259977308787876	3.969808317515152
O	-8.823641529619696	4.1624754308787875	0.39435129051515144
O	-6.077921989619696	9.594423280878788	6.388745687515151
O	-3.8392538896196964	12.231348940878787	4.808135427515151
O	-4.038125919619696	10.524559570878788	1.4443458275151513
O	-6.2753871496196965	10.428685130878787	-1.6182767224848487
O	-7.449476319619697	6.950843820878787	-2.6570696024848486
O	-6.512318079619696	5.459125980878787	-6.014184002484849
O	-7.2697961596196965	1.7424655598787875	-5.8366616924848485
O	-10.281848039619696	1.5613329698787874	-8.200039842484848
O	-5.331665389619697	1.8087514458787874	-10.474453752484848
O	-7.208622959619697	-1.5301001891212127	-11.050121252484848
O	-6.031472009619696	-2.880277659121213	-7.692740812484849
O	-6.851684259619696	-6.127589549121213	-5.999601032484849
O	-8.353198459619696	-4.3586400191212125	-2.9279881924848485
O	-6.378028879619697	6.778209870878787	9.795882547515152
