17

O	14.434667689382525	36.24161092718021	-7.61804080404887
O	16.53801401616498	35.45336555692071	-8.984841151939433
O	15.90926987784333	31.084487868305164	-7.2856773240403445
O	15.28375739218791	32.174997960522326	-7.6922502251442
O	14.871961203067562	31.75544001487641	-9.075170664592598
O	16.067361845724143	31.13575889054235	-9.539086638167827
O	16.346372651456864	29.841345570842524	-9.051556952540444
O	16.798724346337266	30.142283866691663	-7.815556700567771
O	15.21904694317773	33.58206565329563	-7.4019245306750285
O	15.065159993347134	34.67524150604331	-8.316642975835624
O	17.515040322530588	34.48700632501268	-8.910600284692675
O	17.16316669376016	36.660761079112866	-7.931226561431777
O	15.871421332536684	36.25350464334581	-10.23625356604395
O	14.125316192162995	34.30318847239417	-9.188288091184065
O	13.061851699793412	36.0745809701065	-7.476941252321326
O	14.644196332065205	37.374593018411424	-8.851338593270276
O	15.584820001050067	36.46658075807587	-6.477211756418468
