82

O	1.190206944378788	2.599567431635455	1.3290083994090909
O	1.8500014343787878	0.5606501576354551	-0.17277638859090919
O	-0.6552055342212122	1.067216546635455	-0.4006541195909092
O	0.35471477437878784	1.1332583146354551	0.5732895534090907
O	1.6401180443787875	-0.39038284836454484	-1.1215306795909092
O	2.6382673343787877	0.16042170863545513	1.1890011194090908
O	2.590211554378788	1.8495184316354552	-0.8757358925909091
O	-0.10542643162121224	0.506649561635455	1.630880889409091
O	-1.4512029246212124	-0.1608526023645449	-0.1973617838909092
O	2.7784841843787875	2.401982861635455	1.163616129409091
O	-1.773082145621212	-0.952630068364545	0.8733515594090908
O	1.5821899543787876	2.055814051635455	2.742238659409091
O	-3.033612585621212	-1.369354338364545	0.6918272164090908
O	1.1701025543787877	3.3553785416354547	-0.015622335590909198
O	-3.1044270956212126	-1.474401918364545	-0.6651727735909092
O	-1.7950482156212124	-1.176937848364545	-1.0280229275909092
O	-3.0984745256212123	12.472216531635455	5.7139851494090905
O	-14.04076277562121	6.383574581635455	4.867393379409091
O	-11.515476475621211	9.181056261635456	3.994406149409091
O	-12.638507975621211	5.397493461635455	0.17590019240909083
O	-8.967862555621211	5.812426651635455	1.1743542094090909
O	-8.340767585621212	8.547518051635455	-1.381205330590909
O	-9.944057695621211	6.445786341635455	-4.1428225605909095
O	-7.595795385621212	3.606388491635455	-3.3477119105909092
O	-4.423868255621212	5.577789911635455	-2.8768563405909093
O	-4.818424155621212	7.465679581635455	-6.1678910105909095
O	-5.177253485621212	4.182738361635455	-8.01540408059091
O	0.019151192378787818	5.233684601635455	-6.624585720590909
O	-0.5195172316212122	4.746528591635455	-10.37980148059091
O	-0.019200418621212245	0.9278296316354551	-10.152656020590909
O	4.733001804378787	3.9586597016354554	-9.974328860590909
O	4.966639504378787	6.1625407116354545	-6.952207850590909
O	6.1995159443787875	9.724325631635455	-6.894755410590909
O	4.780554024378787	11.485644631635456	-3.807756730590909
O	1.8158186943787875	11.146753731635457	-1.489161220590909
O	1.2380987743787877	13.090114231635456	1.718039669409091
O	-9.509053575621211	-4.386741648364545	-0.6937640795909092
O	-6.057327025621213	-7.9700302383645445	-1.6829149705909092
O	-4.546840445621212	-5.456799718364545	-4.12829842059091
O	-5.115370055621212	-8.114844708364544	-6.8236996605909095
O	-2.9539676456212125	-10.510632668364543	-4.7633010505909095
O	-0.4396036246212122	-7.640037868364545	-4.028967470590909
O	0.08846990437878777	-7.1056499783645455	-7.8031569605909095
O	0.08982686837878773	-10.778143868364545	-8.87824978059091
O	2.7603051643787877	-11.619702468364544	-6.354363410590909
O	4.864089294378788	-8.633623578364544	-7.553219700590909
O	-2.491055245621212	-10.086591368364545	1.2077813094090908
O	-2.4606533356212124	-7.620444008364545	4.101062709409091
O	-5.719137555621212	-8.952973208364543	5.660757439409091
O	-7.451399415621212	-8.155687488364544	2.398185099409091
O	-5.5732044356212125	-5.077213998364545	1.0389397794090909
O	-5.371416615621213	-3.1521993483645447	4.275748089409091
O	-7.0113410256212125	-4.555448988364545	7.476329179409091
O	-10.681721495621211	-4.709746498364545	6.439474319409091
O	-11.02955157562121	-1.049738538364545	5.190977329409091
O	-8.486147765621212	0.753223713695455	7.410548609409091
O	-4.480456625621212	-3.951449538364545	10.305630719409091
O	-1.770813125621212	-6.581725038364545	9.806144319409091
O	0.40807186437878784	-4.713480308364545	12.263481919409092
O	-0.2419821286212122	-1.380413028364545	10.452395719409092
O	0.7442253043787878	-2.6479119883645446	6.9783822594090905
O	3.910894414378788	-4.224571488364545	8.553243019409091
O	4.8188692743787875	-0.8417926383645449	9.97577311940909
O	6.405343104378788	-1.8387682283645448	4.873765029409091
O	9.196703534378788	-0.951139518364545	7.310190449409091
O	8.711425954378788	2.792200091635455	6.635526559409091
O	8.714303674378789	2.306839531635455	2.8389634894090907
O	6.068560854378788	9.857363991635456	5.822561029409091
O	5.284515404378788	12.186426431635455	2.9071650294090907
O	5.978251314378788	9.428556881635457	0.4099045364090908
O	8.911663654378788	7.895700651635455	-1.4898328405909091
O	9.248511264378788	4.096434971635455	-1.0931051205909093
O	8.961185444378788	1.747817001635455	-4.046238490590909
O	8.450552744378788	-1.724287488364545	-2.645347850590909
O	11.913861224378788	-3.2535211483645448	-3.5901164905909093
O	11.871510824378788	-1.809050058364545	-7.095129820590909
O	8.19577130437879	-2.904165948364545	-7.535870280590909
O	9.112279424378789	-6.525677308364545	-6.516228810590909
O	6.633776994378787	-6.430828628364545	-3.629229460590909
O	5.951032074378787	-9.002135828364544	-0.9866237825909092
O	6.919060364378788	-6.596273618364545	1.863051949409091
O	4.525170054378788	8.340129031635456	9.70474121940909
