14

O	16.335310486607206	35.64714258050934	-8.62654267394274
O	14.466848390928337	35.93665541334373	-8.009639255615387
O	15.008851813001463	31.657424409991208	-8.949994314630574
O	15.959782450764823	30.604692174020634	-8.960438241847012
O	17.215039274177006	30.95255132154526	-9.359863696644899
O	15.475801418842499	33.16200333312768	-8.894779363906173
O	15.017297726270607	34.46155685608131	-8.465145772015974
O	13.023884667392602	36.11286325853776	-7.862456764964678
O	14.551095983123158	37.30138420377925	-9.00370994380571
O	14.985715300051375	36.61241662918858	-6.492303533847442
O	14.605826434491172	34.0732253219366	-7.2420514454960925
O	16.409543916778656	37.058490873110046	-7.966553742021519
O	17.19980496156802	35.0648679990834	-7.590377254298821
O	16.02623501937726	36.22588534303816	-10.066512751415596
