26

O	14.097392758341057	31.303045854755997	-7.873485224632009
O	14.932974741098464	31.3587623477908	-6.5219125939921625
O	15.953989150262645	32.55703649640975	-8.202593368173185
O	15.890642808299598	31.337831588078533	-8.979388964148075
O	14.507836860733963	30.693522581153438	-8.996808673845308
O	14.963401694002862	34.80393787073364	-8.564919649582155
O	14.762184785356787	29.273461780294404	-9.329758033181108
O	14.539271925525709	28.58286627618431	-8.199556706022872
O	15.611597975176998	27.84320047338811	-7.665172797860392
O	16.68465937072427	28.636230130923675	-7.8012443885103835
O	17.070332800128092	28.56368464628609	-9.053398377105493
O	16.089782965022874	29.25176559425674	-9.812164890622737
O	17.874012065075867	29.101928798776104	-5.979890732239027
O	18.220949312927495	27.69565202138679	-5.885960251694177
O	19.209295657910452	28.630825724879134	-6.291640075324411
O	15.892768108957561	32.42209604133528	-6.90879467309734
O	14.834287046624379	33.41592383537218	-8.513927200641586
O	15.86343343817927	34.97601436818179	-11.207137248392248
O	15.173214156902265	37.05004253876547	-10.070490508131485
O	13.492560625471796	35.4673476061944	-11.156111951354415
O	13.175632327509051	36.87686479314888	-9.506557787130065
O	12.348221382806562	34.65197453338533	-9.53460036783961
O	12.655006068870001	36.21509460716314	-7.442611366125138
O	17.27688373664347	29.696876736548212	-7.031577916825174
O	15.016043986670104	35.335379589299095	-10.278145105115353
O	13.431648493478376	35.59786012009649	-8.624162831149558
