91

O	-0.5261965632176928	2.3574840371384616	0.08450939918461553
O	-1.3936796012176929	1.4972719561384618	-1.5379422098153845
O	-2.1971601452176928	0.44539347413846175	-1.2385450508153846
O	-2.145598678217693	0.6671448281384618	0.057622939184615474
O	-1.2709921687876928	1.4036285081384619	0.7017132591846154
O	-3.033107285217693	-1.5544070528615386	-2.8474465908153848
O	-0.9804083682176928	0.6813016631384617	1.9971469391846153
O	-1.3086644643176928	-0.7029851228615384	1.8429190391846153
O	-0.5875581222176929	-1.3884932128615386	0.9132007691846153
O	0.3679040447823072	-0.5368119128615382	0.44669380918461554
O	1.1813904447823071	0.04959642813846177	1.4180821291846155
O	0.34129434478230714	0.7735501394384617	2.1407605091846156
O	2.0838256947823073	-0.37510096286153816	-0.9923981802153845
O	2.9436675647823076	0.3040986011384617	-0.015197688815384525
O	2.859066064782307	0.7345750072384617	-1.3444642458153846
O	-0.2150869252176928	1.8564998771384618	-1.2012199688153846
O	-2.455627815217693	-0.7770046128615383	-1.8922447148153845
O	-3.9587795052176924	-1.6947552828615384	-5.290260110815385
O	-4.966734375217693	-0.1451903708615383	-4.790689440815385
O	-4.157963525217693	0.5285319461384617	-3.6853664808153845
O	-4.643802575217693	-3.1299923328615384	-4.124449640815385
O	-5.496395285217693	-0.7726790728615384	-2.8924116108153846
O	-5.7646532252176925	-1.9955019228615383	-4.346926440815384
O	0.740297474782307	-0.7290569128615382	-0.8934952072153846
O	-3.333990135217693	-0.6756655728615383	-4.426711370815385
O	-4.722323155217693	-2.2556629828615384	-2.9154654208153845
O	-2.742804675217693	-13.903144902861538	-0.011442661815384558
O	4.897378454782308	-10.245683602861538	11.777741789184615
O	1.8053034247823072	-8.472224292861538	10.390066289184617
O	2.0791933947823074	-10.784535502861539	7.296011459184616
O	5.737523504782307	-9.674441502861539	6.829835529184615
O	4.882128014782308	-6.0230645528615385	7.3136436191846155
O	2.3983014047823072	-6.620409652861539	4.464867769184615
O	4.926856554782307	-8.368957622861538	2.2057321591846155
O	7.481327994782307	-5.565560222861539	2.7732636091846152
O	5.079350054782307	-3.0359935228615385	1.7347750191846156
O	3.560949134782307	-4.954982592861539	-1.3417264258153845
O	6.954011674782308	-5.549786632861538	-2.8698776708153844
O	7.793256424782307	-1.8351219928615383	-2.707355590815385
O	4.335907974782307	-3.0275324628615383	-6.921466800815384
O	7.641343444782308	-1.3494818628615386	-7.9971476808153845
O	6.209096994782308	2.2399249371384617	-7.615523310815384
O	4.380617604782308	-0.4753880328615382	-12.244711010815385
O	2.219111274782307	-3.464320082861539	-11.395248210815383
O	2.5097681347823073	-6.789084882861538	-13.179220210815384
O	1.0574342747823071	-9.472560302861538	-10.887494580815384
O	0.5076192047823072	-10.062625902861539	-7.227144840815384
O	-1.4027463402176927	-12.949465302861539	-5.687956960815384
O	5.428101954782307	-9.292438702861539	-9.076457020815385
O	14.193791174782307	-2.7759062528615384	-2.7878341608153843
O	11.564429774782308	-5.377162452861539	1.0168501791846154
O	13.722874974782307	-3.724687552861538	3.7237825491846155
O	10.649679074782307	-5.364927802861539	7.532464109184616
O	2.0955669347823074	1.6210161711384616	11.851763589184616
O	4.969369314782307	1.5888726691384618	9.329625689184615
O	1.708051734782307	6.003619807138461	9.244087289184616
O	1.5731470647823074	3.8707032371384615	6.155144589184616
O	4.659441204782308	5.702374507138462	4.673641819184615
O	2.943293084782307	8.969024317138462	5.236373049184616
O	-0.17169455521769272	7.8107228971384615	3.4759477791846156
O	1.813128584782307	6.284297607138462	0.5662080191846155
O	3.642122094782307	9.49272466713846	0.2757029191846154
O	0.3043096747823071	11.336668397138462	-0.1492579238153846
O	-0.8541723792176928	8.666383197138462	-2.5883045508153844
O	2.164577954782307	9.236873447138462	-4.923790930815384
O	2.1125345547823073	13.003337597138461	-4.694903080815385
O	-0.8737972422176928	10.748852337138462	-8.709599510815385
O	-4.893955565217693	9.139935137138462	2.1216024391846156
O	-6.769928785217693	5.859712017138461	2.8722848591846155
O	-6.8096894652176925	6.350470047138462	6.671453469184616
O	-3.010611075217693	6.634836877138461	6.624339499184616
O	-2.0978388992176926	4.4195288071384615	3.8669947191846155
O	-4.396163065217693	1.4158411501384616	4.663873169184615
O	-6.618632255217693	1.5255162511384617	7.726950719184616
O	-3.9337675652176927	1.7486742611384618	10.456850989184616
O	-1.7728888022176927	-1.3182477828615382	9.305057289184615
O	-4.453180375217693	-3.5939189628615384	7.768016979184615
O	-10.049509645217693	0.12088763513846168	6.508119899184615
O	-11.623470725217693	2.9176075771384617	4.491564479184616
O	-14.124907125217693	0.37166594113846174	3.1689566791846153
O	-11.356681625217693	-2.1573911228615383	2.1495358491846153
O	-9.377784075217692	0.2508502681384618	0.15238753918461545
O	-12.607284825217693	1.3530231001384618	-1.5616016888153845
O	-13.307217725217692	-2.2831496128615383	-2.4258566308153844
O	-10.155180675217693	0.41893928113846174	-5.756792540815384
O	-3.2847537052176925	-0.13241574386153832	-12.640368910815384
O	-5.075800455217693	2.4806884371384617	-10.631020730815385
O	-1.2672808590676927	5.311996437138462	-12.669511010815384
O	-3.373280915217693	8.513233827138462	-12.302502910815384
O	-4.461674545217693	7.376665647138462	-8.855241030815385
O	-9.134200155217693	5.859142927138461	-6.5561588108153845
