26

O	13.573561702097514	29.577762633799733	-9.017927864167776
O	14.877107486003544	30.847374634767057	-7.867301854092973
O	14.902409876174524	31.75664724502419	-8.932079187587048
O	15.462265072798633	30.760144571206784	-9.63285305467354
O	14.778431952422785	29.622146578702473	-9.589227470312222
O	14.933502436303764	34.265909586188776	-8.197737954664397
O	15.573977054405228	28.362830293240847	-9.5531918883322
O	16.915642156251543	28.83431489223192	-9.645122582155954
O	17.74154200071282	28.71659299277444	-8.504595001075652
O	16.76104624128771	29.092198539122943	-7.664234527663984
O	16.32144768227345	27.84491677662154	-7.342541253919353
O	15.33312374082193	27.793689355375914	-8.292684246626932
O	17.864738180824464	29.511674976291307	-5.879131760091692
O	19.13879716650187	28.99094654899116	-6.327051728204306
O	18.183634605517177	28.074859833054074	-5.828972854486791
O	13.68203137341584	30.360345371387815	-7.809694858490487
O	15.380408027863316	33.037218876237795	-8.594578615058769
O	13.805538813497709	36.51265241112125	-7.9038324299172995
O	13.829429968485089	36.92143088338625	-9.447150662684058
O	13.878554621996997	35.10188979440848	-10.36423014607789
O	15.66826761505068	36.75789362000561	-8.439464390600824
O	15.90416013564996	34.913800632245774	-10.507030496774412
O	15.554626915924894	36.37387891186991	-10.369735048442676
O	17.1383109434388	30.205432604558645	-6.842428209743688
O	13.5603872471698	35.29694450469429	-8.738422956329938
O	16.122111860602573	35.465489001489885	-8.986779321388871
