20

O	15.793517206883246	33.99910272721418	-7.043105852410045
O	14.473390421835758	35.70541860381085	-7.83382427457109
O	16.30904883683448	35.63112609534797	-8.782769637552821
O	13.942694052234922	31.034800700630733	-9.163804154043811
O	13.862829060282989	29.758984752223355	-9.134947686971756
O	13.084473914977105	35.70140802579639	-7.386080158529032
O	15.019218554644777	31.617681920967954	-8.443897708628231
O	15.678235118618344	30.487012513594415	-8.214562636197602
O	14.162236302523484	37.07909937619276	-8.808796821821526
O	16.98561525971791	30.36084502827777	-8.017197573879132
O	15.043759512523591	36.53025750201969	-6.374921943198053
O	17.41233877585849	29.099215964006305	-7.622548524363148
O	16.319108088345747	36.978891450574075	-7.936430967124117
O	16.55678722225343	28.03233668357457	-7.651827129090268
O	15.687882616159872	36.38312523620901	-10.068165374360214
O	15.249324827660496	28.1976432052336	-7.9498862587088155
O	17.719889410131152	35.54770659251607	-8.193307488291403
O	14.951465206745095	29.420331130891736	-8.475828963409883
O	15.1055772263575	32.9895944086089	-8.773873045676016
O	15.287862936359558	34.326762141421455	-8.293135264826356
