85

O	-0.7558921841823535	2.465299747150001	-0.6127455541250003
O	-1.1103182307823536	2.512451677150001	1.4321264578749997
O	2.1833101982176464	-1.542053102849999	0.5714517808749997
O	0.9119966882176466	-0.9928921828499992	0.8517157458749997
O	0.17323361521764646	-2.1146618828499992	1.1372884508749996
O	0.5673597582176465	-3.3399807928499996	1.5877284778749996
O	1.7161665682176466	-3.7391700228499998	1.0651617358749996
O	2.6422547982176465	-2.76080046285	1.1024938818749996
O	0.6725739182176466	0.4487633351500009	0.7293744538749997
O	-0.47307528378235353	1.2693453081500008	0.6140122718749997
O	-1.7574624417823537	2.1434377331500007	2.675758267875
O	-2.5367638717823535	3.3332205671500006	0.9203751478749996
O	-0.06564412278235354	3.7448307771500007	1.7460375878749996
O	-1.4792395717823537	0.3799026891500008	0.5858172528749996
O	-0.8252741447823535	4.007446657150001	-0.2180966431250003
O	0.5773878982176465	2.5957719371500008	-1.2039749421250003
O	-2.3242550617823534	2.431833207150001	-0.9982562621250004
O	-0.03897798978235356	5.66308472715	12.628323267875
O	4.025577768217647	-6.129215222849999	14.331179467875
O	4.392590818217647	-2.2721296828499993	14.323680567875
O	7.059455458217647	-5.166117002849999	10.466429467875
O	4.666749558217647	-2.459001742849999	9.263812027875
O	7.291186298217647	0.28735155715000094	9.366704587875
O	9.746006308217646	-1.905279782849999	7.425287007874999
O	7.1758677182176465	-2.381750952849999	4.690702707874999
O	5.897410088217646	1.1694786211500008	4.474937497875
O	9.366184108217645	2.707897647150001	4.233168347874999
O	10.221830708217645	0.4266798301500009	1.3350545078749996
O	6.908488138217646	4.627222087150001	-0.12575986212500032
O	10.217896508217645	4.431976367150001	-2.0793698321250003
O	8.743629768217646	2.072187192150001	-4.759621092125
O	7.275019378217647	7.502535217150001	-5.2995456421250005
O	5.2146000682176465	8.759058017150002	-2.420370642125
O	5.5858234582176465	12.09621101715	-0.7174178651250004
O	4.115230138217647	11.87303791715	2.802407117875
O	3.4062692582176464	9.21414402715	5.384150797875
O	1.5036910782176465	9.67478492715	8.607854187875
O	1.4698304582176465	13.464913317150002	8.053633317875
O	3.5826942182176467	-9.73567278285	1.8797243478749996
O	6.6047321282176465	-9.67731228285	-0.4968146531250004
O	1.8136432682176467	-9.64060718285	-2.889482932125
O	3.9431525782176466	-6.509468512849999	-3.3367972421250003
O	5.683305158217647	-8.33067387285	-6.162572922125
O	2.2672362982176466	-8.76276268285	-7.834186572125
O	1.3247453682176467	-5.127464622849999	-6.953301632125001
O	4.407882888217647	-3.8175904328499994	-8.832662252125
O	4.272645588217647	-6.22365830285	-11.804663932124999
O	0.6819208482176465	-5.31198843285	-12.505071432125
O	1.5824486682176464	-1.589209672849999	-12.332494932125
O	-2.8548589917823533	-9.022217882849999	-4.725930522125001
O	-4.611306171782354	-7.716187882849999	-1.6215763021250003
O	-4.825685741782354	-11.156893082849999	0.08635725547499969
O	-1.0525612237823534	-11.35855688285	-0.1357437761250003
O	0.11728441421764646	-7.77637052285	0.1604023527749997
O	-2.1537676817823534	-6.72949724285	3.009416237875
O	-4.516208931782353	-9.25975378285	4.634309087875
O	-2.0007833517823537	-11.78715998285	6.006465587875
O	0.26488256321764647	-9.310783782849999	7.960737047874999
O	-2.2472276017823534	-6.5858348928499995	8.887288717875
O	-7.897225341782353	-7.479098552849999	5.101669317874999
O	-9.460468121782354	-7.33870940285	1.6321792478749997
O	-11.984176491782355	-4.834639512849999	2.926620037875
O	-9.203042901782354	-2.6954651928499995	4.527362657874999
O	-7.112832101782353	-2.399393622849999	1.3531620778749998
O	-10.314859611782355	-1.4939344828499992	-0.6017175211250003
O	-10.869984991782355	1.3190248229500008	1.8645373378749996
O	-7.576970851782353	2.463125037150001	-2.2462882521250003
O	-10.786058291782354	4.642446217150001	-2.030899622125
O	-8.963594291782353	7.07149555715	0.33111701887499967
O	-5.890212911782354	7.31138805715	-1.9515244421250004
O	-5.034780191782353	10.226194437150001	5.983408477875
O	-1.5741929647823536	11.73890521715	6.441528477874999
O	-0.5632365407823535	10.659569417150001	2.963693447875
O	-0.7296438033823536	11.96440291715	-0.6246620541250003
O	-2.3058384617823533	9.52307155715	-3.1225464021250002
O	-0.3112532737823535	8.023332517150001	-5.973404682125
O	-2.2427274317823533	5.056800557150001	-7.256248862125001
O	-3.4626801817823534	6.518376697150001	-10.629917332125
O	-0.08695535578235347	8.016843607150001	-11.518408732125
O	1.6674163682176464	4.747323547150001	-10.443432032125
O	-0.6490365019823535	2.692692497150001	-12.760553832125
O	-1.9066403517823534	0.6223391831500008	-9.820042592125
O	-4.547577751782353	-2.0311476828499995	-9.746877742125
O	-6.7116184317823535	-0.09270312284999904	-7.2367078921250005
O	-8.010342601782353	7.54035636715	7.859312417875
