82

O	0.31625967831818225	1.453376188271212	-2.779009028348485
O	-1.2926262316818176	-0.103523599728788	-1.4222181623484853
O	0.13811846731818234	1.314606568271212	0.16776288465151468
O	0.24428308131818233	0.700768038901212	-1.0927121173484853
O	-1.9220006616818175	-0.541398255728788	-0.30195643934848526
O	-2.2797417116818175	0.974628977271212	-2.1778139583484855
O	-0.7392096549818177	-1.180448905728788	-2.503563168348485
O	1.3526396883181824	-0.003965867728788042	-1.0629476663484851
O	0.7529452683181822	0.435058631271212	1.1822173916515148
O	-0.8065125137818177	0.741011842371212	-3.683054198348485
O	1.8071917783181823	-0.43826516572878793	1.2045606316515145
O	1.190453198318182	0.434833004271212	-3.568388808348485
O	2.4049820383181824	-0.293605778728788	2.3888279916515147
O	-0.6921560960818177	2.550963104271212	-2.3838935383484854
O	1.3557920183181822	-0.012454212728787994	3.211545031651515
O	0.2834389783181822	-0.10997849872878795	2.332149321651515
O	6.583471408318182	10.395723924271213	-6.810382528348486
O	12.701102398318183	9.144692754271212	4.075658221651515
O	10.479016298318182	10.988494354271213	1.5014686316515147
O	8.154949128318183	9.198628714271212	6.144251281651514
O	6.632657388318182	7.962087974271212	2.858208061651515
O	4.294121218318183	10.937295654271212	2.5550190716515147
O	3.1188926983181826	10.483056524271213	6.1640331216515145
O	2.2192635183181824	6.899084604271213	5.424478431651514
O	0.6246801783181822	7.373581954271213	2.0470105216515146
O	-1.6592900036818177	10.182874204271213	3.2493526916515147
O	-2.922836621681818	7.967653804271212	6.044896821651514
O	-5.086124281681817	6.632505864271211	1.1885680316515148
O	-7.678503561681818	7.533519784271212	3.8537818716515146
O	-7.875024791681818	3.909855414271212	5.164158291651514
O	-10.672015541681818	4.850802244271213	0.3588220356515147
O	-8.432966031681818	5.8000707642712115	-2.4927771583484852
O	-9.108480701681817	8.496397154271213	-5.039330688348485
O	-5.788445991681818	9.620970694271213	-6.575206578348485
O	-2.127706191681818	9.668580804271212	-5.637622628348486
O	0.7608993083181822	10.618589694271213	-7.907007008348486
O	5.363382388318183	-0.299849898728788	9.016177041651515
O	2.3719155883181826	-4.393242095728787	8.840480391651516
O	-0.4404955196818177	-1.962262885728788	7.968073631651515
O	-2.2223939416818177	-3.294393235728788	11.081445041651515
O	-2.013238921681818	-6.804348565728787	9.567232141651516
O	-2.9756691116818175	-5.377990875728788	6.082388241651515
O	-6.236931671681818	-3.9484075457287884	7.543506771651514
O	-7.130368181681818	-6.871250105728787	9.845734941651516
O	-6.855721931681818	-9.326992945728788	6.999088611651515
O	-9.063935231681818	-7.067773345728789	4.808867661651514
O	2.3488815183181826	-8.405452935728787	5.765383171651514
O	4.620171778318182	-7.114914705728788	3.003543671651515
O	7.8589015183181825	-7.6105990557287875	5.024987611651515
O	6.420594428318182	-5.302494895728788	7.649013571651515
O	4.230941928318183	-2.832762905728788	5.6600725016515145
O	6.6523766483181825	-2.183663895728788	2.841195431651515
O	10.150052098318183	-3.813626275728788	2.8712575316515148
O	11.645618598318183	-2.334250275728788	6.056454831651514
O	10.946986998318183	1.4049699502712119	5.277193051651515
O	11.104558498318182	1.4248658072712121	1.4538474716515148
O	10.771790898318182	-5.034550995728788	-0.7202742593484852
O	8.642123998318182	-8.170376675728788	-1.0969533563484852
O	9.214618168318182	-8.035334855728788	-4.829424958348485
O	8.263747008318182	-4.306980695728788	-4.936318108348486
O	4.922730508318183	-4.724647005728787	-3.118562608348485
O	4.1352307383181826	-7.718358175728788	-5.4436809683484855
O	4.722650258318183	-5.478180695728788	-8.431289398348484
O	-0.2573905356818177	-5.373588995728788	-6.260219828348486
O	-0.10071068268181771	-6.3177581757287875	-9.948241678348484
O	-0.2636341136818177	-2.630753145728788	-10.987119758348484
O	-3.2296296516818175	-1.910723585728788	-8.679095658348485
O	0.8721443383181823	4.801772494271212	-12.002876058348484
O	-0.8685550636818177	8.024186224271212	-10.943312658348484
O	-3.2897485516818175	6.096404464271211	-8.764857568348484
O	-6.634512511681818	4.278371724271212	-9.039327428348484
O	-6.596725521681818	0.677509096371212	-7.720168948348485
O	-8.747783031681818	-0.40214159572878794	-4.799743518348485
O	-7.390822201681818	-3.717685995728788	-3.597296458348485
O	-10.324392061681818	-6.010977895728788	-4.7641323083484854
O	-13.002308101681818	-3.6541045157287884	-3.4806754283484853
O	-11.053781201681817	-3.186094825728788	-0.1811623333484853
O	-10.891391601681818	-7.0233458257287875	0.31199867165151474
O	-7.087151091681817	-6.936690535728788	0.39778790265151476
O	-4.642596831681818	-9.771851945728788	0.6164590916515148
O	-2.9961531316818175	-8.853162835728787	-2.743436938348485
O	4.838962668318183	2.829038774271212	-12.361399258348484
