20

O	16.266070217852388	35.853351132819135	-8.661186009011434
O	14.465333155734086	35.847211745907714	-7.321439846529618
O	14.085608437518818	31.465054058117374	-9.019161029862445
O	13.978950945293	30.17469531752262	-9.23789000900056
O	15.520958400191622	36.466424453173786	-9.672034886820404
O	15.23541789108307	31.91852779840091	-8.370088981246404
O	15.70494931790681	30.663256739098884	-8.125144938309031
O	17.30196812615476	35.62916888363121	-7.566757322137429
O	17.017973723972755	30.368056116744114	-7.950141722487721
O	16.225133694468557	37.39008417459686	-7.771227547407009
O	17.327560853276637	29.087817087065325	-7.592848455926862
O	13.145757938704229	35.98470648433714	-7.126264248821281
O	16.387843062749305	28.103427063742977	-7.669773751603724
O	15.402807575848755	36.42142795459329	-6.104890345671236
O	15.119889898414769	28.381014744697556	-8.067823217885762
O	14.187080137968078	37.290760648078304	-8.25481553861723
O	14.8904319647059	29.673418235803855	-8.431310964140117
O	15.635134025183955	33.222472981920525	-7.694565251165728
O	15.174622492367392	34.51326121674907	-8.295434713613737
O	14.097597255897938	34.002677213992605	-8.928783255416228
