96

O	-1.7165214796451613	-0.3051707079677418	-2.9983184550822575
O	-1.4959708016451614	0.540126603032258	-1.8286018650822575
O	-2.5420029476451615	-0.15795857796774182	-1.0490145240822577
O	-1.9677656266451615	-1.339180277967742	-0.2431548040822576
O	-0.8617656346451614	-1.196555897967742	0.6021550549177423
O	-0.18943176864516142	-0.02802075896774192	0.5256239849177424
O	-0.8334258646451613	0.6997390790322581	-0.5512708990822576
O	-1.2656262596451613	1.948093802032258	-0.2341306280822576
O	-0.8150250046451614	2.808772122032258	-1.4124263490822577
O	-1.3555336816451613	1.890108864032258	-2.461736515082258
O	-0.12773350664516137	2.292963392032258	-3.1015580650822576
O	0.21244686235483856	1.347832998032258	-2.3529775250822578
O	0.5362028923548385	2.394766822032258	-1.4027659410822575
O	0.8018254223548387	0.22656774303225813	-2.6415141850822574
O	1.0519106023548386	0.11023086203225807	-1.0783293930822575
O	2.181338182354839	0.9731018307322581	-0.8565416370822576
O	2.7792136923548387	-0.06821817796774188	-1.5798342610822576
O	2.0893294523548382	-1.419798547967742	-1.1593625980822577
O	0.8884802623548387	-1.2810917179677421	-2.035960685082258
O	-2.2240358676451617	2.484211692032258	-3.4278573650822577
O	-2.2381231576451617	2.6656833920322582	-4.585992915082258
O	-3.6685126276451614	1.941381912032258	-3.1220317750822577
O	-3.8713368176451617	0.8583487718322581	-3.927612335082258
O	0.9428047923548386	0.3231705170322581	1.3603879849177425
O	1.7002984923548385	-0.822753077967742	1.8336055049177422
O	0.8510762123548385	-2.024337757967742	1.8821593349177426
O	1.5723692223548384	-2.749431457967742	2.7730333149177424
O	0.6771255623548387	-3.5422842879677416	3.6350146449177427
O	1.2569849023548387	-4.025824577967742	4.612916404917742
O	-0.6667857996451614	-3.1725884179677424	3.4365645349177423
O	-1.1642386836451615	-2.558247067967742	2.4073384349177425
O	-0.3476954196451614	-2.401672397967742	1.2254567149177424
O	-0.3413156786451613	-3.401527147967742	0.17532409091774237
O	-1.9322735316451614	-2.415940937967742	-1.0323780790822576
O	-8.373458037645161	-4.607611087967742	10.591579054917743
O	-7.041592277645162	9.82741902203226	1.6696790149177425
O	-9.288489547645161	7.704758432032258	-0.6039237919822577
O	-7.601472417645161	5.010522382032258	3.9109096149177422
O	-6.564308377645162	3.4630807820322578	0.6852563949177424
O	-9.569651067645161	1.3563044160322582	0.06619256391774242
O	-9.403942817645161	0.1561627070322581	3.6879987549177424
O	-5.749060437645162	-0.728492717967742	3.451144644917742
O	-6.227877317645161	-2.458387677967742	0.06354472291774238
O	-8.916384847645162	-4.618479707967742	1.7864389349177423
O	-6.666176847645161	-5.565474797967742	4.703472014917743
O	-3.8258226276451612	-6.040294117967742	2.1910675449177424
O	-5.864121757645162	-8.888643487967741	0.5749712649177423
O	-2.4918243576451613	-10.018193147967741	4.611246704917743
O	-1.4232036156451613	-11.583004847967741	1.3076389749177424
O	3.3306243023548383	-12.952204147967741	-7.728606345082257
O	4.231132932354838	-10.198248547967742	-2.5989200650822575
O	4.819366172354838	-6.486865897967742	-2.3951707050822577
O	8.21358989235484	-7.040808507967742	-0.9565771690822575
O	4.353592812354838	-6.972679067967742	2.5737947649177424
O	6.4910938523548385	-3.839562587967742	2.8499714349177423
O	6.689103002354838	-7.108416117967741	7.369788744917743
O	4.924371612354839	-3.7364326279677424	7.709195624917744
O	8.356045782354839	-2.163930217967742	8.214371774917742
O	3.1273877623548385	2.844800902032258	10.229268354917743
O	-0.7753144636451614	-1.922052727967742	9.719279554917742
O	-1.2731431486451614	5.783582302032258	10.541815754917742
O	-2.760455187645161	11.047520852032259	8.804721164917742
O	0.6269905523548387	10.301907942032258	7.264049994917743
O	-2.982060067645161	14.14411525203226	4.587725994917742
O	-1.8915601126451613	12.36845895203226	-1.0451791500822576
O	-0.4932293176451614	10.148875682032259	1.7546173949177426
O	3.139791992354838	11.030161752032258	2.2887370649177425
O	4.3152193623548385	10.216872622032259	-1.2821078280822578
O	3.139617192354838	6.748273402032258	-0.7911380580822576
O	4.0418704323548384	6.206314082032258	2.9348527549177423
O	7.546747612354838	7.604977312032258	2.8052516849177422
O	8.69968314235484	4.399612322032258	1.0708120149177425
O	7.165779342354839	2.250458382032258	3.839357404917742
O	8.737628642354839	4.419202572032258	6.499422284917742
O	12.049294962354839	3.908253722032258	4.7308056449177425
O	11.183940462354839	0.7978440940322581	8.960870284917743
O	11.22107956235484	0.4857772360322581	-2.5827298050822574
O	9.10322306235484	-2.320737607967742	-4.1929724250822575
O	9.38814736235484	-0.4794555679677418	-7.505596475082257
O	8.123048732354839	2.844669132032258	-6.107228355082258
O	5.269820502354839	1.245332840032258	-4.363099795082258
O	4.223089552354838	-0.852206617967742	-7.405675575082258
O	3.9059384723548387	2.229140342032258	-9.631430825082257
O	1.2234099323548386	3.687451102032258	-7.497926825082258
O	-0.4250949756451614	0.09155891303225805	-7.177573695082257
O	-0.6411723856451614	-0.271832007967742	-10.956965145082258
O	-4.415860447645161	3.231935462032258	-9.185075155082258
O	-5.7286341376451615	-0.23158142796774184	-10.131763525082258
O	-10.15185404764516	2.765052012032258	-5.6496692950822585
O	-11.32855263764516	-0.6839194879677418	-4.488994965082258
O	-9.065627747645161	-3.764175277967742	-4.477672365082258
O	-10.096489807645161	-7.169777987967742	-3.083834495082258
O	-5.197062637645161	-9.27598384796774	-4.963776955082258
O	-6.878150807645161	-7.779642987967741	-8.038686235082258
O	-2.4509742176451614	-11.09941764796774	-9.059082345082258
O	-2.0780064976451613	-7.461884417967743	-10.148472535082258
