94

O	2.1643024044590904	2.2034758759272726	-2.7852148254848483
O	5.50837454445909	1.6374583019272726	-2.0134991264848483
O	3.45552147445909	2.2716607959272728	-2.8390147354848483
O	-1.14715980254091	1.4701624569272727	-3.6494563754848484
O	4.27004644445909	1.6242466289272728	-1.8858423324848483
O	-4.14032024554091	1.7245190109272728	-0.05122116548484823
O	3.5452878144590896	0.8071437219272727	-0.8950927724848483
O	-5.8729827055409105	-0.6424591040727274	-1.2554568751848483
O	2.2944628344590905	0.5754679069272727	-1.3484845463848483
O	-7.602761505540911	1.3851345579272727	-1.1402278154848484
O	1.7443542144590902	-0.3714053640727273	-0.28111383648484833
O	0.54858922445909	-0.042274704072727376	0.4902332245151517
O	-0.4092526755409098	0.07274253592727264	-0.7148888274848483
O	0.05718303445909001	1.2786035839272727	-1.4764326034848483
O	1.35331726445909	1.1746198671272727	-2.179057464484848
O	-1.1122140115409098	1.6546732809272726	-2.3058596554848485
O	-2.5011817455409098	1.6511706839272726	-1.8601018804848484
O	-2.86924163554091	0.3386956199272727	-1.2659790328648484
O	-1.77839723954091	-0.007914034072727283	-0.32034821248484824
O	-2.38645693554091	0.027802965927272716	1.0016713745151518
O	-3.8071735855409097	-0.3774943840727274	0.7474136945151515
O	-4.10356332554091	0.4764105299272726	-0.5066538614848483
O	-3.13751964554091	-0.5605155140727274	-2.373764515484848
O	1.03813891445909	0.21872210392727265	-3.3313861254848485
O	-5.46364459554091	0.3787440029272726	-0.8339451594848484
O	-6.29369634554091	1.4162378609272728	-1.5764747294848482
O	-4.90172561554091	0.2218033289272726	1.5707044745151517
O	0.19834098445909	2.1862803659272725	-0.41495985248484835
O	5.71053287445909	10.077527645927272	-8.032834745484848
O	-8.46614563554091	11.041504775927272	1.0755247945151516
O	-4.33641116554091	10.224076475927273	-2.0607267514848484
O	-5.41658601554091	6.534126905927272	-2.388184855484848
O	-5.79913093554091	6.776263665927273	-6.182270305484849
O	-2.4068375135409097	8.454183325927271	-6.457177845484848
O	-0.81205809354091	5.884713375927273	-4.130056395484848
O	-2.47884800154091	2.9786938759272727	-5.936045615484849
O	-0.90734027754091	4.371192815927273	-9.197583005484848
O	2.58369262445909	4.735597245927273	-7.831894335484849
O	2.15374918445909	1.3456891329272727	-6.087356995484848
O	1.7941902044590903	-0.2781657840727274	-9.520545275484848
O	5.17533758445909	1.0556641477272726	-10.581900925484847
O	6.6567517744590905	0.1578952369272727	-7.210230005484849
O	5.51013999445909	-3.4444836840727273	-7.646730115484848
O	9.98754272445909	-5.189580584072727	-7.133788425484848
O	5.14624532445909	-12.549110714072727	-5.722064055484848
O	1.33660321445909	-12.622240214072727	-5.515983645484848
O	1.4350391044590902	-13.759009414072727	-1.8947335624848483
O	3.8964009644590902	-8.164451224072728	-2.7281144654848486
O	2.06494717445909	-6.227397814072727	0.012717904515151757
O	4.71944964445909	-7.415680554072727	2.4332689945151516
O	7.66217918445909	-6.269683564072728	0.28856146451515174
O	5.90022928445909	-3.011509024072727	-0.19234790548484826
O	5.07321369445909	-2.279535294072727	3.4608026245151513
O	8.60390412445909	-3.315591644072727	4.593969264515152
O	10.36247992445909	-1.1303380140727275	2.0025944245151517
O	8.11485529445909	1.8403641019272725	2.7496340745151513
O	8.75235472445909	1.3154274089272726	6.397835914515152
O	12.50337552445909	1.3386915429272728	5.9334517345151525
O	5.43500225445909	7.965344755927273	5.468332334515152
O	6.40107164445909	7.061470225927272	-0.5285626664848483
O	2.40030987445909	11.996417285927272	3.879444554515152
O	-2.43339457754091	14.430994785927272	5.819183354515152
O	-1.91132277854091	11.270919985927273	7.843499064515152
O	-10.002366765540911	7.955230535927273	6.321469614515152
O	-6.19410976554091	7.945660165927273	6.2457800245151525
O	-4.84615340554091	2.658983915927273	6.602193204515151
O	-1.52297247884091	4.407218065927273	7.542011214515153
O	-0.11614482554090988	-0.0999311440727273	9.997470214515152
O	2.51559533445909	1.3360503619272728	7.726404574515152
O	3.8376838144590897	3.540560695927273	10.492430614515152
O	4.03089927445909	0.4148748839272727	12.631031614515152
O	6.774956934459089	-1.3134837740727274	10.600760814515152
O	8.59321282445909	2.0162606309272726	10.470299114515152
O	8.51988342445909	2.3639752459272727	14.255533814515152
O	0.34122939445909006	-5.860651324072728	9.138965414515152
O	-0.027282735540909986	-7.373648024072727	5.646725304515151
O	-3.3779874855409098	-8.769745934072727	6.705463954515151
O	-4.62696377554091	-5.347482054072727	7.801128204515152
O	-3.36602961554091	-3.535141654072727	4.689872314515151
O	-4.81208556554091	-6.054017104072727	2.4128787145151516
O	-8.32047678554091	-5.807458074072727	3.884462384515152
O	-8.45466461554091	-2.2222458340727274	2.8755354645151514
O	-6.78452127554091	-2.985294834072727	-0.4705759514848483
O	-9.46905574554091	-5.7561753440727275	-1.1711614264848482
O	-11.56846427554091	-0.9125636340727272	-1.7606021524848483
O	-10.83332753554091	-2.7646762140727272	-4.986035325484848
O	-10.99519611554091	4.004762525927273	-6.311862635484848
O	-8.61098969554091	3.4970982659272725	-9.227871125484848
O	-6.0094120955409105	0.7137384869272727	-9.365247325484848
O	-3.40929093554091	0.31588482892727265	-12.122496285484848
O	-1.83197754754091	-4.523045864072727	-9.712901665484848
O	-5.55145363554091	-4.911254824072727	-10.318139375484847
O	-2.80414646554091	-9.633832614072727	-9.020054845484848
O	-5.48991078554091	-8.499631554072728	-6.553157065484848
