97

O	2.6964780973638454	-1.0846451394738454	-3.1756027389384616
O	1.5917813873638451	-1.2721977694738453	-4.070523678938462
O	0.3685723073638453	-1.1669054594738455	-3.3662304689384612
O	1.4589140473638453	-0.7412474594738455	5.182897261061538
O	0.3232839573638454	-1.1748106994738454	-2.0277912589384615
O	1.337317827363845	-0.9562194094738455	-1.0453781169384615
O	2.532112027363845	-0.6338236694738456	-1.7613983389384615
O	-0.9538484406361547	-0.9554001994738456	-1.3223618209384616
O	-1.2094391896361547	-0.8237878094738457	0.08070373606153847
O	-0.06240190963615466	-0.6493575294738455	0.8378018010615385
O	1.1292812973638453	-0.7266726694738456	0.1328025410615385
O	-0.2566095136361547	-0.48979959947384566	2.283061891061539
O	0.8705949573638453	0.13494955452615442	3.1616231310615386
O	1.893571107363845	-0.6247851494738456	2.4401033710615385
O	1.9607530973638454	-0.18755870947384568	1.1753755510615385
O	-1.2691385146361547	-0.5931425594738456	3.2283773210615387
O	-0.6571992076361547	-0.37279840947384557	4.5927161710615385
O	0.7013101573638453	-0.8613941894738456	4.208182371061539
O	1.0071909173638454	1.0340628765261544	1.6656302410615382
O	1.4820363873638454	1.1353977125261543	3.871363861061539
O	2.043284047363845	1.8049780675261544	1.3530298610615383
O	1.7118259473638453	2.4954409505261546	0.2940163070615384
O	0.5214226573638453	2.3932716105261544	-0.33162110863846156
O	-0.3747314356361547	2.1443698305261543	0.6640395110615385
O	-0.019715628636154725	1.8479182005261543	1.8831161210615386
O	0.5281961273638452	1.9657552605261546	-1.5536101189384617
O	0.6997356173638453	1.9313076305261543	-2.9780444689384615
O	-0.8256264646361546	1.6215575265261544	-1.9966787689384615
O	0.6843637473638454	-2.6508184394738454	2.2319961210615387
O	1.5996902473638452	-1.3876311794738454	-5.306887748938461
O	0.5844699573638453	-2.0208092894738456	3.3669162010615388
O	-0.018652915636154677	-3.4944492694738454	1.0062920110615383
O	1.733957707363845	3.0788923305261546	-16.20041295893846
O	10.627745427363847	-5.398883109473846	-7.492381578938462
O	6.401565517363846	-10.584863679473845	8.045000761061539
O	7.752762517363845	-8.329447239473845	3.4492896910615385
O	6.297444897363846	-5.0554721894738455	4.755264231061538
O	9.500710627363846	-3.0839882694738456	4.408022341061539
O	10.033626027363846	-4.501827249473846	0.9114305110615384
O	6.4844011773638455	-3.7439737194738454	-0.08166420093846155
O	6.636303727363845	-0.24413528947384566	1.4013785410615385
O	9.824803927363845	0.32477482152615433	-0.7927310509384615
O	8.214406367363846	-0.8932677294738457	-4.019819088938462
O	5.122954387363846	1.0135294723261543	-3.0867991089384614
O	7.0520662873638456	4.330871550526155	-3.1754310489384614
O	7.889746347363845	3.6322398605261546	-6.790412758938461
O	4.349969177363846	2.459167860526154	-7.5679467589384615
O	2.983115097363845	5.777975440526155	-6.269653668938461
O	0.7154733273638453	6.8443447505261545	-10.421215558938462
O	-3.550767152636155	12.478987020526155	-4.788046838938461
O	-2.9805265226361546	12.513517620526155	-1.0045176779384615
O	-6.577113592636154	11.460323620526154	-0.3129005769384615
O	-6.818576072636154	8.750331460526153	-2.9725966589384614
O	-3.4658282826361546	7.249864250526154	-3.4304162189384613
O	-4.379563022636154	4.150430290526154	-1.1823229259384616
O	-7.359632262636154	3.6417763205261546	-3.3146985789384615
O	-5.574059702636155	3.7836661405261545	-6.705533128938462
O	-3.107418292636155	1.3623042645261543	-5.357570338938461
O	-5.482143612636154	-1.2126265494738453	-3.8844520189384615
O	-7.567823352636155	-1.1385807994738455	-7.056156288938461
O	-4.583893082636155	-1.6191413794738456	-9.402994568938462
O	-3.145077602636155	-4.424526699473845	-7.289739998938462
O	-6.546961552636154	-6.010486159473846	-7.221789098938461
O	-6.863098822636155	-5.920343729473846	-10.978799758938461
O	-1.5529081006361547	-10.950802879473846	-4.607645028938461
O	2.7000023973638454	-7.0004365794738455	-6.5756847189384615
O	2.5262651773638454	-13.338139379473846	-2.2075832189384617
O	3.201144187363845	-16.23757957947385	2.7133506110615384
O	-0.030843879636154647	-11.055704879473845	7.066419261061538
O	-3.5288330626361546	-6.766571259473846	6.212149091061539
O	-3.9501109726361547	-8.869919909473845	2.9635737510615385
O	-8.648820402636154	-6.430903929473845	2.270458461061539
O	-6.430740812636154	-6.4979595894738456	-0.8309122299384615
O	-7.761824862636154	-9.901898779473845	-1.7960489789384615
O	-11.025563872636154	-6.009270239473845	-4.309815108938461
O	-9.484569452636155	-8.805026839473845	-6.376376148938461
O	-11.079704172636154	-1.1765758394738457	2.1166542910615385
O	-9.008389822636154	2.012296310526154	1.9517177110615382
O	-10.003178952636155	2.7417616005261545	5.517883321061539
O	-8.740751092636154	-0.6401206494738457	6.676227601061538
O	-5.443642502636155	-0.46262906947384563	4.766061901061539
O	-4.748471172636155	2.9448302405261546	5.937995631061539
O	-5.143165542636154	2.1033698405261543	9.627785841061538
O	-2.330471332636155	-0.37424582947384566	9.323515141061538
O	-0.3537558596361547	2.1302022705261545	7.232653461061538
O	-0.7256338892861547	4.835607640526154	9.877721441061539
O	2.809786427363845	1.1495084915261544	11.490897341061538
O	4.3027049473638455	4.393597990526154	10.260504841061538
O	9.080131147363845	-0.5003099594738457	9.69024264106154
O	10.786664727363846	1.4044447885261544	6.873191951061538
O	8.898030577363846	3.6889336405261544	4.506887891061538
O	10.447730627363846	5.444654130526154	1.4699701910615384
O	5.550174017363846	8.147839680526154	0.7010692910615384
O	6.493543177363845	8.912361960526153	4.2759027610615385
O	5.805745567363846	12.628405720526155	3.6380628310615384
O	2.325876977363845	12.033470520526155	2.2139410610615387
O	1.4450101873638452	9.755377080526154	5.159843501061538
