33

O	38.270298161637385	28.540886544775855	10.26566502995085
O	38.71776464594319	29.940269301789304	10.230082948448166
O	39.96825911342392	30.15014421554367	9.954892195148487
O	40.98672695290749	29.097453298447615	9.89645950520097
O	41.0684840512601	27.71930646612877	9.642136345278445
O	42.0353850586883	27.477411588186573	8.632799346718107
O	42.590723654089416	28.34850709230238	7.674532167722712
O	42.89775928216647	29.47499805542831	8.352632171414927
O	42.39231192293189	29.27228282013404	9.699188886840059
O	40.265462466153295	31.315196540353256	9.454084224428467
O	39.7443160497597	32.429601095529364	8.8460831624245
O	40.52383932083224	33.138181394322565	7.858114681772811
O	39.874147563136816	33.54218578914675	6.6931394342058645
O	38.51043267935996	33.513171091270785	6.708277553028846
O	37.987743915218026	33.98752739326114	7.851176962181527
O	38.57727340210433	33.19780350295219	8.90923598608193
O	36.73302386041183	34.221140476351685	7.259061230125415
O	36.49965293405132	33.186658540681144	6.371673736038025
O	37.64036759185721	32.60611845337921	6.170542691064087
O	38.21364863410739	31.349433941613484	6.358088965996549
O	37.77304610325314	30.24379330619545	7.21028592594406
O	38.18319659436306	28.905884093643483	7.422798651085674
O	39.39834579701614	28.429345490491176	7.167450533078139
O	39.94272691569373	29.62278459463309	7.169753462622156
O	39.435529413982344	30.76146706605445	6.679201085888341
O	39.34839597509631	29.559368869908752	11.587598656156418
O	40.13655126575941	30.526283836232313	12.094928264193891
O	39.74997978800195	31.68174309681959	11.906183063843946
O	41.524198090743404	30.41208042300194	12.52539150064258
O	39.87668057922866	27.275042171905298	6.719612948489996
O	41.41116422805795	30.946962598347426	13.735132420837523
O	41.788600800210524	29.149554142824986	12.794952425372967
O	42.18525926245855	31.293489865552345	11.841163393493975
