31

O	45.010442592361024	25.57831416079775	12.808088442991952
O	44.188364584193295	25.36373863951233	14.105512653031893
O	43.590868647570225	26.647299095208723	14.158720683934044
O	43.26054181163188	27.541262673350975	13.188337673363915
O	43.75180830778325	26.96023943831504	12.06005105892934
O	42.82423059046479	26.46582040145641	11.19485836791666
O	42.496811534861045	27.655752460591128	10.295802481952412
O	41.066021819879495	27.461130877934366	10.054343517818054
O	40.60394607885117	28.29518195070965	9.004602127854158
O	41.50819295091187	28.870651234546074	7.969429464747326
O	40.50532266347595	29.20485554622158	6.916742376220947
O	39.45517597859188	30.184520262415617	7.3465248199432525
O	39.51413711327524	31.204083763447393	6.483752573698116
O	38.5187268675446	32.24782136138872	6.80998083496004
O	38.114784134270685	33.059031085649856	5.964868636251929
O	38.004087169281256	32.16069882270842	8.048619365862466
O	38.54174335625672	31.33865224895125	8.903702256442937
O	38.70450428835738	29.94232041341272	8.518029631328298
O	39.541280247455504	29.133816532863953	9.408673018884182
O	39.380226739949634	29.243406071217912	10.840252317959132
O	39.39052306602714	27.996324866184516	11.733521635813831
O	40.486160836986336	27.06605705536925	11.303540793339112
O	41.6731815737979	26.69505460659527	12.094620520166838
O	42.09316086179824	27.912018516744865	12.66392970497389
O	41.69857656833437	25.75723830128014	13.23781815784081
O	41.380567153925064	24.564070319034844	13.21089670376378
O	40.54392340086202	26.326730426139537	14.139765033630518
O	40.829101439326344	25.787493024596465	15.359631818554387
O	39.72353226525298	25.77685880393632	11.392727853401421
O	40.7392119978124	29.53864477324172	11.10397752560834
O	37.45463550385331	29.11433808014266	8.56193287336076
