28

O	37.740701532090945	32.012383774992415	9.366870283979972
O	37.30822807193167	34.024026895310975	6.56306061794602
O	37.30384690506929	32.96168020445907	8.60559273860071
O	37.70899428152945	28.987946601184447	11.226068285860116
O	37.781263591863066	33.13003038994828	7.28797714528156
O	41.941395702320555	27.4104844891571	12.036447614749324
O	38.713840072144876	32.08457810179039	6.821935669998644
O	40.88541583191852	24.36618965200107	12.08448816463196
O	38.598542022684946	31.00977248480115	7.6368926926996785
O	41.88337135885478	24.63399147288287	14.44448688856617
O	39.531798385924425	30.015292655946848	6.941736578908033
O	40.67717444875669	29.418763696100985	7.633531893111493
O	39.87427392898509	28.760109403157443	8.777371620039075
O	39.32939606724315	29.903180720037998	9.588622939557606
O	38.27655460576376	30.733798741578514	8.961991929717302
O	38.987030890310805	29.32860146550115	10.90507366401917
O	39.789765457826114	28.34958555914399	11.631119122601946
O	40.12440033726649	27.17783649204572	10.772778161243068
O	40.55990355232333	27.710391612296185	9.471685815525333
O	41.98416973064139	27.416715359701065	9.397406918395548
O	42.113527640254105	26.12906136135232	10.153570262620212
O	41.24215029509786	26.453775836977435	11.400661740165795
O	38.96526248574819	26.31100054607649	10.82614139489059
O	37.06045873143485	29.803391847315925	8.985297806454783
O	41.362559426743765	25.418748652074836	12.318024316031444
O	41.12855955345918	25.594061792382618	13.80297227706205
O	43.36831271087473	25.959676009066975	10.942398525147256
O	40.47750121525999	30.697240929570043	9.694316465525278
