28

O	37.727320373148956	32.01236573340231	9.372365399043492
O	37.29726204809015	33.998863880597106	6.549669092331888
O	37.30860763052834	32.9691935347125	8.608198860800613
O	37.738881225482785	29.1254514297578	11.351263103758725
O	37.781881357391825	33.12103093463144	7.287558469296095
O	42.01193308415629	27.329914277726235	12.049888517945604
O	38.70783284486583	32.068629404941184	6.829757435900779
O	40.8314116186838	24.386956502494808	12.065914885670011
O	38.60654246525339	31.005482364068744	7.656352586485541
O	41.959675032744094	24.606990676609037	14.47322772824495
O	39.51853756277292	29.987244519667023	6.970841571392814
O	40.668623669379016	29.405988397885036	7.658300995255539
O	39.87355763127759	28.766677463686097	8.816817613859218
O	39.33279103237831	29.920762550323023	9.608822133876846
O	38.27205394800681	30.734786917113446	8.979013100166632
O	39.01207121437737	29.33120212313706	10.930345650058968
O	39.83718525808741	28.36596087409725	11.648286994652194
O	40.16776257788355	27.199478145192415	10.787428403990614
O	40.62635316718435	27.758865998041852	9.490864754001766
O	42.03490569746346	27.405008639645818	9.39333103801825
O	42.12463047240098	26.10660814679209	10.137276153105944
O	41.270645004053485	26.455056134497223	11.37783197001141
O	39.00362576179269	26.332024943677276	10.79469794769882
O	37.06679582744868	29.79245154512044	8.99622293691884
O	41.3515548623632	25.414477678160658	12.31438387796104
O	41.174088679510575	25.535783084473152	13.821208462222012
O	43.35956649820797	25.789959600904766	10.918093874580448
O	40.49438746759891	30.70282416826798	9.706804050400697
