96

O	-0.2425866203125001	-0.9303440032734374	-4.155862656723437
O	-1.5987845983125002	-0.41364257327343745	-4.218284726723438
O	-1.8791420643125	0.18593031472656263	-2.9479081467234374
O	3.4652684356875	-2.398295803273437	3.7282804432765624
O	-1.2956647263125	-0.21022650827343736	-1.8157839267234372
O	-0.0037801953125000676	-0.8451273932734373	-1.6150476667234375
O	0.2752497556875	-1.4980096932734375	-2.8846127767234377
O	-1.5330851243125	0.3932688457265626	-0.4646598006234375
O	-1.3804527613125002	-0.33682911327343734	0.7788159132765625
O	-0.24879469831250012	-1.1593564232734375	0.7776316332765626
O	0.16822960768749995	-1.4207359132734374	-0.49788735702343745
O	0.6163808656874998	-1.3104654432734373	1.9539740032765622
O	1.8789185556875	-2.186506143273437	2.0084122132765625
O	1.5327555756874998	-2.6751476932734373	0.9166367532765626
O	1.5956158356875	-1.9780315932734376	-0.22564734872343745
O	0.30986685568749994	-1.0980086632734374	3.3328546732765623
O	1.3820350256874998	-1.7323849132734375	4.123072223276563
O	2.4830524756875	-1.7501997432734373	3.1084610832765622
O	2.0301833856875	-0.6175795432734374	0.33790340327656254
O	3.3073792656875	-2.1303966132734375	1.6019619032765626
O	3.2419389556874996	0.09781687472656264	0.37510640227656256
O	2.8387549956875	1.4047949537265625	0.2591432372765625
O	1.8051682456874998	1.6955886017265627	-0.5286577093134375
O	2.1442692656875	0.7170108843265626	-1.3335304857234376
O	2.2783281856874997	-0.5608164532734374	-1.0335286497234375
O	1.1119698456875	2.513447686726563	-1.2649713857234375
O	0.3042488756874999	2.411105976726563	-2.5332627067234377
O	-0.2718977613125001	2.4677275767265625	-0.7549787707234374
O	1.7632022356875	0.5267501837265627	2.6569873832765625
O	-2.0796360743125	0.047596483726562666	-5.269237206723437
O	2.5357864356874997	-0.37077897327343745	2.6242912832765626
O	0.5680807756874999	1.5225318237265626	2.1661958132765626
O	-4.5967590343125	7.542337656726563	-14.115196486723438
O	0.9085555756874999	-6.386706933273437	-12.386107986723438
O	2.2532044456875	-14.094486323273438	2.6268813332765624
O	2.3355180656875	-11.325600423273437	-1.8358965967234373
O	3.7206174356874997	-8.375218603273439	0.1947356922765625
O	6.879276045687499	-8.048033083273438	-1.8772685167234373
O	4.877804255687501	-8.287428413273437	-5.1105414267234375
O	2.3824389456875	-5.775979013273437	-3.8493538967234375
O	5.1226288756875	-3.4047903932734376	-2.6025547867234375
O	6.6215052656874995	-3.595215823273437	-6.252944326723437
O	3.3575783556874996	-2.7848987432734376	-8.022472166723437
O	2.6475275156875	-0.17389115127343735	-5.4155291067234375
O	5.8033958556875	1.7793418367265625	-6.4575322767234375
O	4.3463955256875	2.0722250367265627	-9.934500446723439
O	0.8639433756874999	2.9241473267265627	-8.617683586723437
O	2.3701548156875	5.839227366726563	-6.621786686723437
O	-0.5528786023125001	9.133490336726561	-8.665035226723438
O	2.2167735656875	13.748324976726563	-1.4162361327234376
O	4.3869694956875005	12.262066376726562	1.3612187132765627
O	1.6292953056874997	12.697232376726562	3.9642881632765623
O	-0.016050785312500038	8.884187846726562	-0.5158764590234375
O	-1.2851788193125002	5.8767412667265635	1.6916295932765624
O	-4.660873234312501	7.561646546726562	1.6974456232765625
O	-4.9026623743125	8.049963296726563	-2.1066186267234372
O	-3.9102794843125	4.504561556726562	-2.5328287967234377
O	-6.3558877143125	2.9265285567265624	-0.04011961072343745
O	-9.2018192443125	4.977463496726562	-1.4363004657234375
O	-8.4660229643125	4.076519256726563	-5.089639846723437
O	-8.0262483543125	0.3858561457265626	-4.297063716723438
O	-11.2373269743125	0.5157032747265626	-2.3321332567234374
O	-13.1320778743125	2.0029352367265627	-5.227599996723437
O	-9.2553401043125	-6.665737933273437	-3.2546248567234377
O	-5.0449039843125	-4.528459213273438	-7.150042866723437
O	-6.6581022643125	-11.261585723273438	-3.7092987967234374
O	-5.5243711443125	-15.631451923273438	-0.1704437857234375
O	-2.9089999343125	-11.373994923273438	5.374780963276563
O	-3.3453518143125	-6.076889353273437	6.780386643276563
O	-6.231692064312501	-6.460247303273437	4.2773024832765625
O	-8.4912471943125	-2.2182554832734374	6.5701337132765625
O	-8.4694912443125	-2.1277165132734375	2.7957494132765626
O	-11.6894850743125	-4.068802843273437	2.6363953232765622
O	-12.9982417743125	1.4543979757265626	2.6283849132765624
O	-14.4081829743125	-0.8407681932734374	-0.05486295872343744
O	-7.397804794312501	3.3080878867265624	8.087071373276562
O	-4.2394743743125005	5.083480896726563	6.862985043276563
O	-2.9047770343125	4.904470276726563	10.400271313276562
O	-3.3803156143125	1.1199583547265626	10.478289513276563
O	-1.9067426043125	0.4449468617265626	7.037427633276563
O	1.0336097656874998	2.6363711067265627	7.755048703276564
O	1.9948559156874999	0.7850060682265626	10.926035213276561
O	2.4405158856874998	-2.3901102432734374	8.968256373276562
O	4.285355365687501	-0.3413630232734375	6.255710223276563
O	6.7300956256875	1.1232941237265626	8.712108163276563
O	7.8734605656875	-4.054462113273438	7.8522053032765635
O	10.164117025687501	-1.5662179032734374	6.123176743276563
O	10.4335118256875	-7.514516103273438	2.7523740432765624
O	11.354590725687501	-5.677141163273438	-0.4317688961234375
O	10.2669310256875	-2.1488362632734375	-1.2264149827234374
O	10.933746625687501	-0.3608246832734374	-4.562464866723437
O	8.7089766556875	4.3034677767265626	-2.3160742967234373
O	11.4536858256875	3.3228405167265627	0.08713442227656254
O	12.6991268256875	6.938671836726563	0.08828735327656256
O	9.3057927256875	8.444138446726562	0.9082476232765625
O	8.796634345687501	5.9299979067265625	3.7408551232765626
