34

O	40.339462658430215	25.936887423941126	11.390398066853935
O	41.22093071188688	27.091349230654675	11.53750025598216
O	40.12645904757705	27.93946040290952	12.05913404338861
O	39.39969827581749	28.69922606228181	10.932627045110893
O	40.08870151163568	29.465935078870544	9.986287635221085
O	41.43371691321212	29.346844567847658	9.975553445449021
O	41.722272427187356	28.319976721172583	10.958581171148253
O	42.61150873277026	28.670817233270416	11.92394865313048
O	43.54576335483164	27.467013577696655	12.025015599441867
O	42.448230572261146	26.454695853034984	12.113209995529742
O	43.37776733000016	25.732315941870343	11.280572417550976
O	42.74141261476261	26.452071541821994	10.476600078029627
O	43.8423544187581	27.381079130051912	10.645900102810483
O	42.040516059882904	26.119260876454092	9.434564884959363
O	42.10903079375961	27.660811804771406	9.06234179631176
O	43.41892245817359	27.80640448074944	8.485861635333276
O	42.77850728761318	27.039584312640514	7.502596693922764
O	41.275789580480875	27.50236012086799	7.4178368889080755
O	40.78525020789958	26.71203007497606	8.585934534848846
O	42.51425047460285	25.553503461689807	13.219617407112587
O	42.62999806197762	24.39980420797	13.392790470253246
O	41.346718577829805	25.957304300895622	14.193537693382472
O	40.27759954155251	25.16402545194071	13.892287585430921
O	42.317241865950635	30.101935359702516	9.108750450504935
O	41.7002088876903	30.517227135951348	7.8606817598185454
O	40.23937512434688	30.620614547677857	8.011072774972922
O	39.98501944783873	31.456539355836348	6.973665510091449
O	38.88376157689755	32.37600883849022	7.312628054093129
O	38.774128168501086	33.30944633042233	6.510745966209577
O	38.54621125312794	32.272948680965406	8.675563714431046
O	38.808557184379566	31.283029118940927	9.472692878442711
O	39.30614808684089	30.047694751276495	8.911929806197056
O	38.40391043370836	28.996177674413005	8.484369512769016
O	38.45256232827306	27.90568607833927	10.425897949551507
