47

O	41.39873479120671	29.267851564932595	7.563314268816223
O	39.106562040397634	30.983846612175466	10.325743993860607
O	41.1940825707813	29.06907198654706	8.972531003698643
O	40.100659291607315	28.32035558019702	9.099277438206448
O	36.92071729558235	33.81211994205103	7.148416194595872
O	41.388659156602564	29.475624782957947	12.529638773117235
O	40.10989696339041	27.103826763739963	8.401644207109488
O	36.26675035640125	33.663350130851335	8.162633403505811
O	39.38465590343175	33.03013376380215	4.620886169425853
O	38.875451508386945	26.425156382876164	8.562365879870894
O	38.20221538407596	31.654409960969947	5.56237238308705
O	36.364524126449986	32.5578998201544	3.275939568550471
O	37.88588245030612	27.30448136431848	8.1390982931245
O	34.90208295778507	32.75513468557284	3.9799841073305844
O	37.8604254316401	28.38800758827662	9.05599015294753
O	39.01314592806216	28.490922956860153	9.850405891415239
O	38.66579266180664	28.53210292879989	11.199010117482416
O	37.63725429908898	29.547729614264714	11.368328167074775
O	37.75850529889918	27.354455729998918	11.384224321332146
O	39.33183741292896	28.45227300621717	12.438767379077515
O	40.4411349292652	28.987650448595673	11.614615825421705
O	39.95063699775031	30.278616108685632	11.15878286731293
O	38.9605018428057	31.75227050252543	9.257733923117648
O	40.12692517531715	31.987770178863123	8.717282842156212
O	40.340630533767914	32.81908568508408	7.537759174010305
O	41.621589664040094	32.483040517865355	6.834993636439007
O	39.38543504526056	33.71703450174035	7.19491822181905
O	38.152928484379764	33.35798099995049	7.621646830822536
O	36.743597711831406	32.43728288140862	8.521596028702133
O	38.04166991938707	32.53629485207666	8.668978309461709
O	36.706861628922546	34.99976082809017	6.412389769415943
O	35.57386663451195	35.121764629132784	5.70769519190359
O	35.7724993817761	35.53641773511293	4.427042284876471
O	36.828170004196124	34.98499802257238	3.7624790228058855
O	37.46418289922343	33.99867351561085	4.463265922806442
O	37.73438820972269	34.73080276097773	5.568399054564786
O	38.23638437889554	32.74961442237343	4.621529439929185
O	39.11998033277505	30.703410047969683	6.120061962892601
O	38.43115213704324	30.05916775586964	7.029820936281824
O	37.14341151834758	30.53695709049679	6.572268191044722
O	36.80572688373714	31.464270853582125	5.488281152000077
O	36.10496175332987	32.17404981016672	4.500849618495842
O	40.79781922782194	27.589634240866985	11.608561784473935
O	36.70717732039408	26.70753678517159	7.969572939043315
O	41.916874816218396	27.136225387709832	11.097983572227289
O	41.04894778073667	27.115867951662857	12.905114758519112
O	39.95795475025836	26.47286996171531	11.396127317675333
