31

O	40.63977951189253	31.748842385263604	9.680591111387058
O	39.418843815227305	31.964108578408606	9.196508417494702
O	38.89655033857962	31.085431762812217	8.460968868422274
O	38.1309881808244	30.068258399168776	8.692075821649844
O	37.70245414155502	29.692544761801706	7.327835720596131
O	37.09051280276402	30.802391588447875	6.71517020725074
O	38.31990455000375	31.352949560866193	6.256228154471816
O	39.121400997505006	31.76675292574386	7.202720035483904
O	39.19460646629317	29.119556756581975	8.904755679117876
O	39.12481398244808	27.908685492259128	8.254679618963168
O	39.92784868620535	27.178603725128497	9.212172347334747
O	38.82980998838075	27.009504979784616	10.11207669040503
O	38.87933342605935	26.219371513351845	11.223187934639268
O	40.11900315126985	26.33390444699733	11.841069379373744
O	41.2600019955424	26.790133605421257	11.267447241322863
O	40.97191048840535	27.31901642360423	10.078751546483879
O	42.308921682187865	25.92506195988245	11.80760485629446
O	42.569496200635655	24.970004051463686	13.091765932003721
O	43.71367812134583	25.42905212892825	13.915489300204413
O	42.75824703181749	23.50649622266191	12.923969642126265
O	41.16575022691461	25.166964219683948	14.072840828312453
O	37.66606695803555	28.060202932214395	7.761552960651794
O	36.99410547695699	27.813229906082174	9.146734607714798
O	40.482690002984754	29.39835681612495	9.252809775148643
O	41.041422173452574	30.614750524498064	9.132056638849713
O	41.946289630239036	31.05298407186718	8.164712009924955
O	42.84465638828358	29.89558869867107	8.826661856694002
O	42.39940438208318	28.826251319980273	8.021475810495387
O	40.926332707713854	28.852933216698002	8.016931949265723
O	40.32437914411473	28.78884336330247	6.699269527379654
O	41.07763950784614	29.612439936055374	5.887675925454246
