99

O	-0.691238205369014	1.7703669993098596	1.521747463678873
O	-1.870776005369014	-0.5438820656901402	2.779860513678873
O	-1.7410549653690142	1.0727287753098596	1.6889845436788726
O	0.8143443746309859	3.7002219543098596	0.31029091367887285
O	-1.187617215369014	-0.1728431756901403	1.7539585736788728
O	4.830337494630985	2.96076228430986	-2.326277816321127
O	-0.07128259836901413	-0.7427215856901401	0.8526291936788729
O	1.8124591646309862	2.33098458330986	-3.2608750463211273
O	0.9349254246309858	0.061030224309859715	0.9701350336788729
O	4.106050804630986	4.7696492743098595	-3.236687086321127
O	2.294169634630986	-0.24861353569014044	0.1980845736788729
O	1.768686894630986	-0.8651263156901405	-1.066274945321127
O	1.3571241346309857	0.5882130873098597	-1.328116393321127
O	0.5391828386309859	1.3531375983098597	-0.4545155613211271
O	0.6355155746309858	1.3867889733098597	0.9989169036788729
O	0.634596111630986	2.7729537743098596	-0.7420177133211271
O	1.995988564630986	3.0148813943098594	-1.128274739321127
O	2.925807994630986	1.9384449763098597	-1.2577658003211272
O	2.554671824630986	0.7728407273098596	-1.821163207321127
O	2.719494884630986	0.2492630943098597	-3.1134391363211273
O	3.9996080946309864	0.9467325093098596	-3.3895820463211273
O	3.7706913946309863	2.1964924663098597	-2.524165086321127
O	3.920749204630986	2.06894823130986	-0.341082852321127
O	1.550661094630986	2.1698875673098597	1.7915519936788726
O	2.824368394630986	2.9544277243098596	-3.299884466321127
O	2.830133854630986	4.3344964843098595	-2.833453076321127
O	3.753507964630986	1.5357326220098597	-4.793753486321127
O	-0.7456040223690141	0.7421444863098596	-0.6615680493211271
O	-5.252403085369014	-3.8862999856901403	14.057267743678873
O	-8.784991835369013	-3.1896860256901407	12.830829743678873
O	-8.866222925369014	1.3926224913098597	8.265285083678874
O	-11.011843955369013	3.4587194043098597	5.901356613678873
O	-9.400881755369014	5.729751014309859	3.3169851536788726
O	-11.241841755369014	8.90727070430986	4.253126883678873
O	-12.052808955369013	9.34953694430986	0.546695773678873
O	-1.711213875369014	7.0997759943098595	-11.709235456321126
O	-3.614989165369014	6.97479088430986	-6.766845156321127
O	-0.018731386369014114	6.94505931430986	-5.529677436321126
O	-0.3124480531690141	10.14017353430986	-3.432984856321127
O	-3.545490815369014	8.81702592430986	-1.955858566321127
O	-2.1426527153690142	5.4788944443098595	-1.214628238321127
O	1.056479274630986	7.00210964430986	0.2962770236788729
O	-1.1906333323690141	8.92690054430986	2.6481265336788726
O	-3.222833715369014	5.950107154309859	3.776150623678873
O	0.13122827563098588	4.0849661743098595	4.027220093678873
O	1.2836190546309858	6.29524306430986	6.704530613678873
O	-1.7842977053690139	5.5355002143098595	8.852567053678873
O	-1.498771335369014	1.8504581713098598	8.109022273678873
O	2.116177734630986	1.8110736083098598	9.336499643678874
O	1.216248374630986	-1.6645570056901404	12.624637843678872
O	12.210660644630986	-0.028143575690140255	9.664825543678873
O	13.483431744630986	-3.191618305690141	8.004975543678873
O	7.3941027446309855	-2.35549095569014	7.3608422436788725
O	6.968573674630986	-2.85180579569014	3.5783132336788728
O	6.862462554630985	-6.59045122569014	4.284288533678874
O	4.175137684630986	-6.45794661569014	7.014146403678874
O	2.345668454630986	-4.257146395690141	4.768480503678873
O	2.501210724630986	-6.325724785690141	1.4745522236788728
O	-1.513705155369014	-7.92015567569014	5.146823583678874
O	-2.742878725369014	-6.3686765956901406	1.8944991036788728
O	-2.2865258753690143	-9.65441414569014	0.18028945367887295
O	-7.131859875369014	-8.78849534569014	2.747324023678873
O	-7.219162095369015	-8.94834234569014	-1.0499971313211272
O	-7.453244185369014	-12.73669134569014	-0.939010904521127
O	-8.048061805369015	-7.101653185690141	-7.046094586321127
O	-6.1581691553690145	-5.1435233656901405	-4.397412716321127
O	-8.414118725369013	-4.20543909569014	-1.469115349321127
O	-6.632024045369015	-1.3226774656901406	0.3189281636788729
O	-9.638189905369014	-0.30949518569014023	2.386436093678873
O	-10.547564455369013	2.08543489030986	-1.569530241321127
O	-10.238212985369014	-0.7313411556901401	-4.104964696321127
O	-8.015173985369014	-1.0341655956901403	-7.147706596321127
O	-9.772346605369014	-3.2468142556901407	-9.683471436321128
O	-7.238871225369015	0.9323806163098597	-12.483125656321127
O	-4.711835675369015	-1.8265950856901403	-11.947290056321126
O	0.18840933763098588	0.8917003113098597	-12.136969656321126
O	3.928292954630986	-1.6989719856901402	-9.023898286321126
O	0.804409094630986	-3.7461309356901404	-8.303699436321127
O	4.048139394630986	-7.742181225690141	-6.887676786321126
O	1.219046364630986	-7.02931502569014	-4.490086596321127
O	-1.0867418923690142	-9.32127204569014	-6.461890226321127
O	1.626918404630986	-11.94923434569014	-6.2138261963211265
O	-2.396740385369014	-12.482232345690141	-2.823200686321127
O	8.536933034630987	-8.88632224569014	-3.350017716321127
O	9.640382454630986	-6.384801335690141	-0.666936996321127
O	12.734992644630987	-5.7221261056901405	-2.728420876321127
O	10.653069044630987	-4.897281525690141	-5.809349716321127
O	8.150606764630986	-2.6901538756901404	-3.919079956321127
O	10.924216444630986	-0.9035952656901405	-2.136501436321127
O	9.704135244630987	1.9765656253098598	-6.499274036321126
O	9.299902974630987	3.4437926143098596	-2.963090996321127
O	9.714536644630986	7.72524156430986	-6.158756636321127
O	4.869981824630986	12.42292555430986	-5.2529778563211265
O	3.7308706546309858	13.12316335430986	-1.680562784321127
O	4.6554909246309855	10.913041644309859	1.3165551736788728
O	3.344270714630986	11.43833193430986	4.843703093678873
O	6.750270434630986	7.25968978430986	6.584057153678874
O	9.041870784630987	9.780421104309859	4.890096463678873
O	11.586736044630987	5.848300554309859	7.947450723678873
