97

O	-3.2332018380333336	0.9894120407916662	3.251657026783333
O	4.206391381966667	-1.8420685422083336	-4.146216483216667
O	-1.3756349990333332	-2.7803131722083334	3.2353574667833334
O	-2.8629089480333336	0.5926351806916663	1.9845520067833333
O	0.35298043196666673	-3.694145362208334	-0.34161050421666656
O	-2.1261073780333333	0.7482197955916663	0.7052474267833334
O	-0.9310600060333332	0.3744846617916663	2.6237830667833335
O	-1.0281454510333332	0.04118329079166627	0.28360886878333347
O	1.0636738219666668	0.8248306017916662	1.8558740267833334
O	-0.3380609300333332	-0.6985779322083338	-0.7323944622166665
O	-0.6056553560333332	2.7805439077916665	3.5256137067833335
O	0.3090004219666669	0.1721785277916663	-1.9034708932166664
O	-3.2230022880333333	-2.4547138422083337	2.582290996783333
O	1.474125011966667	0.6287852446916663	-1.1214604512166666
O	2.1162880519666665	-0.5553603222083338	-1.8799491732166667
O	2.5024879819666666	-0.7320123322083337	-3.1091943032166665
O	3.2897887019666667	-1.9527422322083337	-3.3365741432166667
O	3.143187591966667	-2.8683622522083336	-2.3390702032166666
O	2.3726025919666665	-2.7323604722083337	-1.3241163312166666
O	1.2972357919666668	-1.8073509122083338	-1.5296412832166664
O	0.35235585196666674	-2.3222927522083334	-2.5285842732166666
O	0.7239706919666669	-1.4766803822083334	-0.21613299321666657
O	0.26411879196666677	-2.6600256222083334	0.5427412417833335
O	-1.0253127100333332	-2.3529034122083337	1.0543529367833333
O	-1.5249310200333333	-1.027483252208334	1.2164327667833335
O	-2.959140268033333	-1.328543712208334	0.7229512267833335
O	-1.9204300480333332	-0.4265089622083337	2.4513255867833332
O	-0.0674376830333332	1.0426187077916662	1.8590386667833334
O	-0.0684481050333332	2.412061277791666	2.184952486783333
O	-1.1785313560333333	3.1268195877916662	1.8609211767833331
O	-0.16188837403333323	4.229101397791666	1.6328378267833332
O	0.12892208696666685	4.015396137791666	3.0228709067833335
O	-2.747756738033333	-1.4609480122083336	3.1666374167833333
O	-0.11081155603333315	-1.4074457622083334	3.532511926783333
O	2.2307226619666665	1.5739756297916663	-1.9118177432166665
O	1.8156500119666668	-0.9569447622083337	0.3926571437833335
O	-1.0232997770333332	-0.8263822422083337	4.510198316783334
O	9.725568831966665	-10.307505862208334	1.8900734267833332
O	2.602134301966667	1.1688788497916662	12.258578086783332
O	4.231522771966667	-2.6641664622083336	8.859423136783333
O	0.9164199019666668	-2.4805740422083336	7.270578046783333
O	-0.0994604560333332	-6.030218832208334	7.7180361767833325
O	3.3844448519666672	-7.264655562208334	6.546527806783334
O	3.1373473419666666	-5.104378942208334	3.4292908767833334
O	-0.3610000420333332	-6.357662912208334	2.5857863567833332
O	0.9463102019666667	-9.843422262208334	2.775937976783333
O	3.8338256019666668	-9.120706842208333	0.3859671997833335
O	1.4090516119666667	-7.112333192208334	-1.7781995832166664
O	-0.6096403770333332	-10.271342762208333	-2.4163984132166667
O	3.405532411966667	-8.807113122208333	-5.731812783216666
O	-0.0009467250333331512	-8.722347232208334	-7.427035763216667
O	-8.849429648033334	-5.080570592208334	-11.051952813216667
O	-3.479952748033333	-3.1472554822083336	-9.931664713216668
O	-2.8177932180333336	-0.29259801520833373	-7.465934813216666
O	-1.3989993500333333	1.6849967377916664	-10.398533663216666
O	1.9719310719666667	-1.4611081422083334	-7.982078133216667
O	2.662138661966667	2.1957002277916664	-7.1392656632166664
O	6.851061991966667	-0.2820017012083337	-9.845979553216667
O	7.408894961966667	0.6022216653916663	-6.153245793216667
O	8.176888881966667	4.120325307791666	-7.147661573216666
O	10.538284231966665	3.2944186677916663	-0.22069439621666656
O	9.509034631966665	-2.7321597322083337	-1.1531731902166666
O	11.074083131966667	1.8982719377916664	4.807323716783333
O	9.968851831966665	4.450293737791666	9.838624286783332
O	8.431016581966666	6.606836607791666	7.110401296783333
O	6.076699601966667	6.739910777791666	12.536914086783334
O	0.29171526196666675	6.945160507791666	10.784320086783334
O	2.8885384119666666	6.233635167791666	8.054878676783334
O	0.05780312096666684	10.364463907791666	5.099795596783333
O	0.06905215496666683	7.119087627791666	3.2278118267833333
O	3.8010639419666674	6.936468947791666	2.0321080467833332
O	3.907353641966667	10.439678997791667	0.7527783567833334
O	1.8769517719666668	9.392589217791667	-2.2932061632166665
O	4.213912241966667	6.495910647791666	-2.9073217432166665
O	7.239419921966667	8.839013887791667	-2.5725341932166668
O	5.592860291966667	11.165354537791666	-5.076710173216667
O	9.408347231966665	8.057435867791666	-6.958273443216667
O	-1.9972203780333333	9.005489707791666	-6.674387633216667
O	-3.9498463580333336	5.738125287791666	-7.214891453216667
O	-7.040602708033333	7.548926367791666	-5.946503533216666
O	-5.318332918033333	8.558685577791666	-2.6932915732166665
O	-3.8176885780333336	5.1418176077916655	-2.1828207632166667
O	-7.121822648033333	3.4023142777916666	-2.850776273216667
O	-8.954054508033334	5.397588897791666	-0.19140269921666658
O	-6.796498268033333	4.128127277791666	2.506267526783333
O	-7.016818678033333	0.5731692301916663	0.9449898467833334
O	-10.757044268033335	0.5977160432916663	1.0232708767833336
O	-8.867614408033333	0.01246379479166626	6.024144546783333
O	-10.137403218033334	-3.1316656922083337	4.443405886783333
O	-5.648103638033333	-4.740154632208334	9.410060986783334
O	-4.956314598033333	-7.933882172208334	7.581682946783333
O	-5.163613678033333	-8.453768992208333	3.8168097967833337
O	-4.2732069780333335	-11.735039062208333	1.9711410667833333
O	-6.074620168033333	-9.281294022208334	-2.794361803216667
O	-9.037688628033333	-9.212593542208333	-0.41042708721666654
O	-10.193967148033334	-8.037198572208332	-5.776117023216667
O	-10.868377068033334	-5.247359522208334	-3.3002721432166666
