109

O	-3.1955878091643832	5.033297819178084	2.3177355626328766
O	-0.12014383916438343	-2.3815970308219163	0.6303817946328765
O	-1.7143949501643834	3.4098154791780835	6.177066782632877
O	1.4445627608356166	3.2976777891780835	-0.34947797436712347
O	-0.24820890916438332	-1.2586696708219165	-0.32482412036712344
O	-1.8134537591643833	0.6850607881780837	3.7770784226328766
O	0.3788994108356165	3.6540820491780837	2.6433371426328764
O	-2.8575110291643835	3.0357165091780836	3.6444645226328767
O	2.4918312708356165	1.0865911981780836	2.5364255826328765
O	-1.7008171681643833	5.410398619178084	4.631412182632877
O	-3.8865670491643836	-5.720821916410657e-06	-1.4902053473671235
O	-3.740636539164383	-0.6421812608219164	-0.2642139763671234
O	-2.7361807491643835	0.6027561061780836	-2.0028314373671234
O	-2.5895726091643834	-0.1159002408219163	0.36696321963287654
O	-1.7016685561643834	0.8441542041780836	-1.0890794893671234
O	-2.4589022591643834	2.9995856091780837	1.3171351126328765
O	-0.07588767916438344	1.8014036961780837	4.001576242632877
O	1.5550441608356165	-0.6622873508219163	2.4857613826328766
O	-0.7851820851643834	-1.3800791908219163	1.6636471426328765
O	-0.4631522121643834	2.346347159178084	0.4431960316328765
O	1.8902248108356168	0.09790646917808354	0.15687892563287653
O	-0.5426397111643834	3.5641272691780834	5.473287862632877
O	-1.4877767341643835	-0.5158279108219164	-0.6253076903671235
O	-1.9472564871643834	4.298162339178083	1.9536269226328766
O	-1.5616284471643835	1.9997775861780838	2.0648874426328767
O	-0.3991048611643834	0.3606809361780836	3.6207195926328763
O	-0.7190537591643834	1.1743710733780837	1.3462109326328764
O	-0.08536734916438338	0.3770606791780836	2.2226746226328764
O	0.8701682108356166	1.9324830571780836	-0.10993380426712344
O	0.5339522108356165	-0.7211583508219164	1.4382376626328766
O	1.2443087108356168	1.3273428129780835	0.8023782036328766
O	1.0044342008356164	-1.0293178708219162	0.18980804663287654
O	-1.0997469461643834	4.364718349178084	4.342616232632877
O	-0.6217318491643834	2.6529499291780834	2.9367089426328765
O	1.2023563008356164	0.9738955661780837	2.2627174826328766
O	-1.7080046091643835	3.6202331491780835	3.2631387926328763
O	7.975527750835617	-11.637504670821917	-7.919163147367123
O	4.739080080835617	-12.890540170821916	0.004831737632876559
O	2.5492159608356166	-11.579127870821917	6.091251282632877
O	4.3743596708356165	-13.383190570821917	8.850719912632876
O	-7.443566209164383	0.7671835761780836	12.186445122632875
O	-3.8674262491643834	-2.6700388308219165	10.393342122632877
O	-1.9316456521643834	0.32518847217808367	8.976878042632876
O	1.2656499708356166	-0.4343457308219163	10.928719622632876
O	1.0922647908356167	-4.103112650821917	9.899297022632876
O	0.44742279083561654	-3.202692310821916	6.278188712632877
O	3.1721484008356162	-0.5713915008219164	6.291633522632877
O	5.583796550835617	-3.3928324408219166	7.410424492632877
O	4.531545110835617	-5.819025130821917	4.693147942632877
O	4.551567400835617	-2.9524331508219164	2.2114433626328767
O	8.401033360835617	-2.5840880008219163	2.8726878826328766
O	9.028494920835616	-6.158215790821917	1.9117894126328765
O	6.728855320835617	-5.869152030821917	-1.0666645623671234
O	8.704602420835617	-2.8813361108219167	-2.3811795773671234
O	9.480102020835616	-4.957612830821917	-6.651863487367123
O	11.301423920835617	3.5768324591780836	-8.660026877367123
O	10.754657920835617	6.484983079178084	-6.235261167367123
O	8.144317010835616	8.049810179178083	-8.514847037367124
O	6.249526790835617	4.855036159178084	-9.299518827367123
O	6.457526930835616	2.5287628791780836	-6.340482257367123
O	2.913365370835616	3.4383050491780836	-5.085746037367123
O	1.6355873608356166	2.7783456691780835	-8.501208547367124
O	3.2868477808356165	-0.6681505008219164	-8.834346027367124
O	1.9809112208356168	-1.5052053108219163	-5.456582147367123
O	-1.6451600001643834	-0.40831187082191644	-6.064642177367123
O	-1.7548372001643835	-2.1247133508219163	-9.424679137367123
O	-0.3695080491643834	-5.419224880821917	-8.095741087367124
O	-2.665214229164383	-5.394532840821917	-5.115850587367123
O	-5.547328929164383	-4.639821710821916	-7.445638567367123
O	-4.742032029164383	-7.560733770821917	-9.707184597367124
O	-4.245682099164384	-9.946856870821916	-6.836589567367123
O	-7.571572369164383	-8.848331870821918	-5.357067917367123
O	-11.967153079164383	-7.534764640821917	-0.9745677283671235
O	-8.294426339164383	-6.5118024008219155	-0.7641427993671235
O	-5.934001779164383	-9.514973170821916	-0.7555530753671234
O	-2.5344910591643837	-8.348864740821917	0.5941286896328766
O	-9.216500099164383	-7.219143290821917	4.423692592632877
O	-12.542259179164384	-4.552784890821917	8.273590872632877
O	-12.619304179164384	-2.4622494208219163	5.111015722632877
O	-10.627776459164384	5.178679489178084	9.064479592632877
O	-10.233642479164384	2.344815429178084	6.574489662632877
O	-8.004893299164383	4.842783189178084	2.2150041726328764
O	-8.954149399164383	1.4413750701780836	0.7639775416328765
O	-9.068666119164384	3.8625123591780834	-4.090151037367123
O	-7.408947689164384	0.40944728317808365	-3.9252637073671237
O	-10.722401769164383	-1.2805287008219164	-4.589725097367123
O	-11.070372589164384	1.0140932951780837	-7.593005417367123
O	-8.172616039164383	-0.48639425082191634	-9.608729727367123
O	-9.469660239164384	-3.9383617808219165	-8.687599597367123
O	-5.405492489164383	6.824424629178084	-7.608299217367123
O	-1.6680534141643835	7.123460069178083	-6.781638107367123
O	-2.253069569164383	10.736073859178083	-5.937428317367123
O	-4.998140379164383	9.865286559178083	-3.4546952773671236
O	-3.0552858991643834	7.090436829178083	-1.8151291673671235
O	0.032140450835616674	9.213213029178084	-1.5591553873671236
O	-1.7219801401643835	11.990125029178083	0.3575359446328766
O	-2.5605116791643834	9.579198839178083	3.0942587926328766
O	0.9101991408356165	8.006847309178085	2.9408442326328763
O	0.4889646508356167	9.757681749178083	7.987684282632878
O	4.263002070835617	9.560995489178083	7.732284102632877
O	2.1811223208356165	5.152557239178083	12.629839622632876
O	5.191108960835616	2.9552234391780834	11.937949322632877
O	6.893309330835617	2.6940777391780837	8.539087052632876
O	9.781068420835616	0.3177717381780837	7.753813802632877
O	10.167733820835616	2.7361765191780836	2.6662383026328764
O	10.537569520835616	5.598182849178084	5.130109472632877
O	13.606848220835616	6.800472209178084	3.2279220526328767
O	11.923608520835616	6.810177289178084	-0.16092411656712344
O	8.961262120835617	8.741854009178084	1.2815450926328764
