36

O	41.23048968946128	27.560129061342646	11.532495064536374
O	38.24951545134882	27.78688970663183	9.07925938638131
O	43.16127989178491	30.446089925766586	10.744996982937739
O	39.00158685865798	26.810222322133015	9.639068039000781
O	41.03396282134099	26.648797007539834	13.906125220314427
O	39.65827681386395	23.846135083201247	13.936107174095195
O	39.12602150423023	26.579167126351923	11.008725701758905
O	39.47828818836306	25.468619656272285	11.93510469708766
O	41.55208479552724	24.048904432975924	12.17271448943275
O	39.96499688439795	27.512191019530775	11.42869008849579
O	41.18549941397708	28.7659812846063	12.379764964953939
O	40.68360011432953	29.444077108769424	11.121473299905974
O	39.598649660573265	28.753546520865537	10.998344787104488
O	38.93813113780456	28.696945712251576	9.814715215982556
O	41.375999693296585	29.340480113845455	9.789156201564635
O	41.417774259242655	28.6464322784925	8.537299757169372
O	42.05301068116837	27.389788226150444	8.407990248951934
O	43.17304512309937	27.17400972816427	9.248737882489129
O	43.655375845311305	28.318270500515638	9.950981406632588
O	42.62295977593508	29.440811417182832	9.849931666501657
O	44.23582365062919	30.4080453415245	11.62144943309351
O	40.64745686527647	27.83007913228249	13.42592157532167
O	40.972967468044125	26.229517761206978	15.32917236919715
O	42.44391613018106	26.52135464616301	14.020775684552763
O	42.91222440577351	26.781294131877555	12.600614807213052
O	44.08600208388479	27.487164313665073	12.866282905121977
O	45.38985684889734	27.055293277040644	12.576702761198737
O	45.566029522243305	26.119336948034356	11.564483120709845
O	44.54342773315807	25.29989143053514	11.523433419056174
O	43.36242459414848	25.669566640936736	12.021227574997477
O	41.534397622036295	23.547855343707823	13.699417637675719
O	38.30614321502056	28.23900144194982	7.604346867169797
O	38.8302483376585	29.682443554537517	7.343784772376088
O	36.88294039097974	28.74529171007135	7.294305045846148
O	44.380142586291306	26.77032940248577	8.735868409530157
O	40.3555288673065	24.41964830605183	12.808116991736625
