14

O	35.29593991265429	33.44889542561737	-0.6232067388697269
O	35.33095754566432	32.19390267419777	0.08957739466155079
O	34.72025558095874	33.69049654743211	-2.9693563020197526
O	33.823897590774514	32.173050865915336	0.12061491503166288
O	32.49345722086293	31.494128653671652	-1.962149773453782
O	35.65307584822798	33.28317476470763	-2.109688460494926
O	34.83530417629689	29.523238644535585	-1.695784486098817
O	33.574791236606536	31.914217817863964	-1.3340035666683434
O	35.0371650727599	30.79519102808832	-3.373364408013705
O	34.82949114028518	30.14068534039799	-0.5002051096451163
O	36.83741421276273	31.4808206713696	-2.8122967493384383
O	34.818839018520805	31.378021302182596	-2.286896834869518
O	36.63089861878044	31.21977877870838	-1.5249488278189531
O	35.56234365423861	31.278918011610106	-0.9297037293825596
