38

O	35.976767937349265	33.81373777000427	-4.0992237064545165
O	36.54108280928474	33.63881351409741	-5.186556885947062
O	35.81271663573009	34.06837455701185	-6.359753116640187
O	35.43328263947307	33.22526632529986	-7.446163161939379
O	34.495239132563796	32.74663097069798	-8.334527994448026
O	33.92176795969172	33.10606531069014	-9.611246867993454
O	34.528503033719325	32.20646883885107	-10.682712360871276
O	34.48668943020202	30.90433433213451	-9.956222101080371
O	35.709732333056635	30.874888214677465	-9.081556967541967
O	35.18320191522623	30.055766272327084	-7.978701232192948
O	33.808861432818254	29.767550790357003	-7.854223920958024
O	33.04063146882165	30.039213778985086	-6.926682893236425
O	33.28641659213585	30.489204939069374	-5.547488697180094
O	32.25262465292354	30.303565628708412	-4.708069177989859
O	31.79539373089394	31.378269977483306	-3.9517041135401305
O	31.770926736608782	32.53767702963424	-4.644655361453275
O	30.713133588840087	32.64142484600791	-5.7552025415891475
O	31.612496866183587	33.283135286735636	-6.658403119623822
O	32.822869106177755	33.85105476078428	-6.151951854686794
O	33.06356194121759	32.784639084471316	-5.113646828631483
O	33.93234820965719	31.68097403838516	-5.205330917979326
O	31.541423850512647	32.92519035789915	-7.931239390916344
O	31.188781576136762	31.625629405118367	-8.014477587890555
O	30.468677235141147	31.154461050486095	-7.128721147982873
O	29.856821355276608	30.120591239372366	-7.397247638123209
O	30.766698746441516	29.345798083737435	-8.1579742865864
O	31.373968527069383	29.707436959911604	-9.41533926478427
O	31.959359526448427	29.25888364330264	-10.53103207458438
O	31.357230168065918	29.899845825985246	-11.658009059499793
O	31.532246379712436	31.32818984775258	-11.452281593499851
O	30.660751126377168	31.571204221647413	-10.467849022398301
O	31.20665758239345	31.106396189278964	-9.329242606101857
O	28.46101324149409	29.77563092152362	-7.564744156311596
O	28.101124548073336	28.920368412135694	-8.656596761675448
O	26.883803303116927	28.31442063157306	-8.571113308390252
O	26.157892073613866	28.14599187407324	-7.366895249896992
O	27.055949327888268	28.142539736274816	-6.409369253191296
O	27.823237760285505	29.271480100222057	-6.5009613027425175
