80

O	-0.2118838455384613	0.9201753275692306	-1.675081365806154
O	-0.016733355538461447	-1.3711480094307693	1.301417284193846
O	-0.23310834553846127	2.1985664905692306	-1.049383100806154
O	1.8299607544615388	1.8044998505692307	-0.7868949648061541
O	0.7358648544615387	1.9558586605692307	0.06591097919384598
O	1.1794328844615385	0.6562150660692306	2.183065624193846
O	0.5390775644615386	0.8675354895692307	1.039316354193846
O	0.2909156644615387	-1.4429630094307695	-1.824460065806154
O	0.28905659446153864	-0.4054253594307693	0.4553275891938459
O	-0.6457820245384613	0.08506764956923063	-0.660230151806154
O	-0.7793403875384614	-1.2968047094307693	-1.0305159108061541
O	-0.30112456553846134	1.0570693045692305	-3.0474191358061544
O	0.5250792744615387	2.0172878505692307	-3.8258900258061543
O	0.25553770446153856	2.824775560569231	-4.982889775806154
O	1.0692187944615386	2.928638940569231	-6.222007695806154
O	5.099996224461538	-0.1700633924307693	10.575392264193844
O	7.360268004461538	-6.041507729430769	7.893638914193846
O	5.300308454461539	-4.635573669430769	5.029473134193847
O	3.0493390144615384	-6.24261351943077	2.430321664193846
O	0.3777797144615387	-6.50040473943077	5.165224624193846
O	2.4856962744615387	-9.027913739430769	7.022960094193846
O	2.4555666044615387	-12.82281074943077	6.522177324193846
O	6.249121294461538	-13.08288544943077	6.475166964193846
O	7.273453514461538	4.268226920569231	9.291558714193846
O	9.758873764461539	1.7720248405692307	7.786567884193846
O	9.231780664461539	-0.07275550143076936	4.484942094193846
O	10.684815764461538	6.18986645056923	4.716544444193846
O	7.301532774461538	4.80098028056923	3.5370736441938457
O	6.859064644461538	5.75754792056923	-0.15746050640615405
O	10.567692264461538	6.392172360569231	-0.9264823828061541
O	9.790340664461539	6.72854301056923	-4.6538737758061535
O	8.661535164461538	3.044050910569231	-4.784698055806154
O	12.221303964461539	1.6942112605692308	-4.471639015806153
O	10.837826864461539	1.3746416485692308	-9.753685515806154
O	8.479704734461539	-3.0630767694307695	-7.255569125806153
O	6.585727044461539	-5.915573309430769	-5.545224765806154
O	6.390901184461539	-4.836964149430769	-1.854288515806154
O	9.076730564461538	-4.097055859430769	0.8110240441938461
O	10.618244264461538	-0.7362501094307694	-0.12634851780615403
O	5.298633344461539	9.88813450056923	3.140773804193846
O	4.429309204461538	9.49277852056923	-0.517600662806154
O	1.9917978244615386	10.62435435056923	-3.276139785806154
O	-0.5613386455384614	9.34501453056923	0.640147091193846
O	-3.754547765538461	9.53956812056923	-1.371558915806154
O	-3.3646426555384616	6.92932091056923	-4.064618995806154
O	-2.5629568055384615	9.129248030569231	-7.073944735806154
O	-4.678741825538461	12.11407645056923	-6.052865175806153
O	-6.456993125538461	12.08712545056923	-9.461951315806155
O	-0.4658021395384614	9.488842380569231	6.629134294193846
O	-2.0412499355384615	6.670156400569231	4.528483184193846
O	-5.1436204555384615	5.854998170569231	2.476508104193846
O	-7.283803535538461	2.873775000569231	1.535626154193846
O	-9.74696645553846	1.9100287905692306	-1.178082320806154
O	-9.672803005538462	-1.3004297194307692	-3.2161172258061543
O	-5.9333309455384615	-1.1667789794307692	-4.091607915806154
O	-6.239160495538461	-0.6483347894307694	-7.929816545806154
O	-5.729969715538461	-3.8475634294307692	-10.005611635806154
O	-9.28727100553846	-3.48331941943077	-11.327684635806154
O	-11.044894265538462	-2.947694809430769	-8.007815075806155
O	-12.736393835538461	-5.520321859430769	-5.830123365806154
O	-10.68111498553846	-5.62336102943077	-2.6512261958061543
O	-5.685933545538461	12.01119425056923	8.200280754193845
O	-4.691651555538462	8.402178900569231	8.766617044193845
O	-6.324723305538462	5.261288810569231	7.443210094193846
O	-4.2531993155384615	2.1824682605692307	6.445127754193846
O	-5.0819036255384615	-1.2481169794307694	8.038564614193845
O	-8.785271645538462	-6.89401847943077	7.530929774193846
O	-8.875196785538462	-7.88454798943077	2.345410584193846
O	-5.885964805538461	-9.65920484943077	3.9292181441938454
O	-0.9408608135384613	-9.979538849430769	2.711563264193846
O	2.1048709244615385	-11.991970949430769	1.630826094193846
O	1.9628166044615387	-10.44409564943077	-1.914304785806154
O	-2.2155547035384613	-7.06840098943077	-2.474328375806154
O	-5.669238965538462	-7.214893569430769	-0.818144564806154
O	-7.551959475538461	-3.9596532894307694	-0.12107550480615403
O	-10.566320215538461	-2.709434869430769	1.8908281741938462
O	-10.70954384553846	-1.6304310294307693	5.566462954193846
O	8.08124332446154	9.75214845056923	-10.143073605806155
O	0.4682573544615387	-5.69967152943077	-12.768863935806154
O	3.5683921944615387	-7.41173413943077	-11.365952235806155
