15

O	35.13387193206201	31.94416615687519	-0.5761157444862117
O	35.99347995598003	33.373322184973	2.7952901424469134
O	34.73345979497685	30.622402193996344	-0.23137974292784036
O	36.82010223661982	30.33476557917255	-0.022499039598306014
O	35.728618562780525	30.324496936485367	0.8468635145773402
O	36.533260758612336	30.945092189948024	3.156751461832492
O	35.8613127393603	31.183271602210606	2.0366487536563276
O	36.3147834196952	34.033370517426036	-0.25954451821895996
O	36.0009756621353	32.56944002247197	1.7485271389780597
O	34.96497725403596	32.62660102327316	0.6160892257308256
O	35.24772635418628	34.03388974078237	0.5519642840221244
O	35.01078636493086	32.141960468432984	-1.9383720256216492
O	35.51680860580777	31.177707724362964	-2.9506997913091446
O	35.02234042943191	30.755793483033692	-4.231647517320727
O	35.77112995197396	30.693755501352936	-5.513733036057273
