16

O	36.42232252017119	31.313467641314393	-0.13390956864907078
O	35.371951296690185	32.2004490520703	-0.31055299307878825
O	36.23918324137456	30.238618695528867	-0.9462323947098288
O	36.925310138833	31.22323097925276	1.1942504326701942
O	34.28509502408267	31.579625719947014	-2.298999199587901
O	36.258611391952414	30.23058814598389	1.7716038536046463
O	36.62831689638507	32.117269355357365	2.3204921482729235
O	36.85445904560922	31.683552012799097	3.5867899994716366
O	35.43274850918235	32.74454195012968	2.154404731356756
O	34.700888902444575	32.63024169156557	3.299432383738031
O	34.784682912967	32.810046576520804	0.9049099393964541
O	33.95248677899185	31.490856682134652	1.0587390206638139
O	33.318286186821105	31.676036999408076	-0.16721019015484395
O	34.27658563905992	32.08948688004265	-1.0623806288096127
O	35.52418506784181	31.68576261359039	-3.0487934674297508
O	35.268908263361666	31.061339883836933	-4.407405523546794
