100

O	-1.4495864644520968	-1.045729410041935	-5.635453813677419
O	-2.0160653643520967	-2.098187990041935	-5.314867153677419
O	-3.025194311352097	-1.9913079300419352	-4.28449596367742
O	-3.002474931352097	-2.6825726000419348	-3.03680793367742
O	-3.1081345413520967	-2.701690810041935	-1.6632432136774196
O	-4.135822001352096	-2.7921380500419346	-0.6514373556774197
O	-4.1249505513520965	-4.205179100041935	-0.0781692096774197
O	-2.651725741352097	-4.404106290041935	0.04482420832258033
O	-2.1734442313520965	-4.832787390041935	-1.3150358666774196
O	-0.8174767163520967	-4.2636605300419355	-1.2710753636774197
O	-0.4230295013520968	-3.3532982500419353	-0.2695632866774197
O	-0.01713869135209678	-2.1937535900419354	-0.3921163237774197
O	0.4579865886479033	-1.4378540000419349	-1.5617106036774198
O	1.1874500686479033	-0.348699584041935	-1.2626478246774195
O	0.8356073386479033	0.874864101958065	-1.8241068736774197
O	-0.5003018613520969	1.0718888619580649	-1.8632557136774197
O	-1.1926755923520966	1.294166157958065	-0.5089232535774196
O	-2.311325207352097	0.48064437995806497	-0.8599549246774196
O	-2.528201201352097	0.14767835395806495	-2.2333175136774197
O	-1.0680920723520968	0.020437500958064958	-2.5870742936774196
O	-0.3132242213520968	-1.162701680041935	-2.6949088536774197
O	-2.8052921513520968	-0.301230876041935	0.08765040532258028
O	-1.8099459903520967	-0.700550500041935	0.9061696163225803
O	-0.8481392663520968	0.05572397795806494	1.0737735863225804
O	-0.15833639135209676	-0.131456284041935	2.0760192763225804
O	-0.07530151135209673	-1.539917000041935	2.2034161163225803
O	-1.1712528963520967	-2.461149890041935	2.3787628463225805
O	-1.5411284990520968	-3.671322750041935	2.8115755463225804
O	-2.696707161352097	-3.531513680041935	3.6413711763225804
O	-3.706528371352097	-2.881335490041935	2.82243860632258
O	-3.236346591352097	-1.631807860041935	2.74979395632258
O	-2.2085669263520966	-1.643134280041935	1.8814474763225801
O	0.10317809864790317	0.615087351208065	3.2882963763225805
O	0.1308300586479032	-0.09863842304193504	4.53045853632258
O	0.7410507286479031	0.5309077073580649	5.573364836322581
O	1.6602034786479034	1.599243423958065	5.434535766322581
O	2.1904075886479033	1.457751251958065	4.24195941632258
O	1.1946393386479033	1.390296376958065	3.30626586632258
O	1.327812488647903	1.7582827499580649	-15.03272099367742
O	9.639687628647904	-5.026089740041935	-10.03110000367742
O	7.342049668647903	-6.443211930041935	-7.29776248367742
O	4.756196898647904	-10.996925750041934	-5.934408543677419
O	2.2298201886479037	-8.805297190041934	-7.825125043677419
O	12.367172728647903	-5.169937430041935	-5.28239403367742
O	9.254083928647903	-5.838352290041935	-3.2879287336774197
O	7.654556118647903	-5.306511360041935	0.1704947353225803
O	12.582276828647904	-3.053416140041935	-0.8896581006774197
O	9.426266628647904	-1.015055960041935	-1.4036996386774196
O	7.643499338647903	0.809019762958065	1.4145020063225804
O	4.262102788647903	0.13481674895806495	0.6033371063225803
O	3.363327118647904	-2.7037398300419353	3.1937851363225804
O	5.574855798647904	-1.4567639300419348	6.0661492163225805
O	2.459518698647903	-1.4743921800419348	8.64739301632258
O	2.4306555886479035	-5.079470570041935	8.35615453632258
O	6.221302548647904	-5.320013330041935	8.72812939632258
O	14.785817028647905	1.1767129389580648	-0.5931022196774196
O	10.470575528647904	2.758158969958065	-4.48973727367742
O	7.986898258647903	4.836746559958065	-2.43991374367742
O	5.103898398647903	7.283711919958065	-3.0379359136774196
O	2.0551444086479034	8.558117309958066	-1.1308160206774196
O	-1.5341551705220968	8.775663509958065	-2.39036285367742
O	-1.8018597083520969	5.330699979958065	-3.99279543367742
O	-4.503370821352097	3.9499094599580653	-1.4888498936774197
O	-8.003243691352097	3.4988374399580646	-2.9318757336774195
O	-9.167304821352097	5.7996352299580645	-0.10685255067741967
O	-6.507916781352097	8.485052929958066	-0.5411377286774197
O	-3.9698490513520968	11.215736749958065	-5.277464023677419
O	-2.439054277352097	14.603881249958066	-4.9606365436774205
O	-2.6828854613520967	16.893210649958064	-1.8870678436774198
O	8.722301228647904	10.427777119958066	3.6767701763225804
O	10.309683728647903	6.210861619958065	6.49140826632258
O	13.809669828647904	7.3701350799580645	5.494200736322581
O	-4.785456441352097	2.268595679958065	-15.37585729367742
O	-3.632811941352097	4.532747779958065	-10.64365639367742
O	-2.8598509313520966	8.193074419958066	-9.82933744367742
O	-0.5426928473520968	9.016284969958066	-6.939253593677419
O	1.394439478647903	11.953373549958066	-5.42613249367742
O	-8.307542461352098	5.548842469958065	10.58202760632258
O	-2.8431998413520967	-4.406581410041936	11.96519170632258
O	-5.565162991352096	-2.2351600400419347	10.39856880632258
O	-5.550253941352096	0.572558160558065	12.82718040632258
O	-1.8352086183520968	0.962442690958065	12.24675480632258
O	-2.761611751352097	2.305392529958065	8.80049330632258
O	-3.2252917013520968	6.139563669958065	8.01815524632258
O	-6.6610048513520965	6.729548849958065	6.62598545632258
O	-7.833920801352097	3.1240698299580654	7.075571896322581
O	-11.426243781352097	3.4784268299580647	5.852421306322581
O	1.1937924486479032	-4.119726630041935	17.26589940632258
O	1.782888128647903	-13.386769250041935	6.38136645632258
O	-6.796942781352096	-11.699479950041935	1.6070047763225803
O	-3.0203224613520967	-11.513973150041934	1.0916345363225803
O	-2.348243952352097	-15.260923550041934	0.7954724163225804
O	2.3738288886479033	-13.049323450041934	-0.2852914976774197
O	2.3915837786479033	-15.884030550041935	2.2629736763225803
O	-14.485562371352097	-9.436351050041935	-4.959777873677419
O	-12.917035671352096	-7.206216680041935	-2.31188055367742
O	-10.017633041352097	-5.858668920041935	-4.35552647367742
O	-10.487631011352097	-2.3700841800419354	-5.94172379367742
O	-9.991096171352096	-3.8418774400419355	-9.42314468367742
O	-12.411345971352096	-6.743545530041935	-8.894098693677421
