71

O	0.8331247936666665	-0.38350453911111115	1.7078363424074077
O	1.6475426836666665	0.8615178768888887	3.1889210324074075
O	0.7555797396666664	1.5639434218888888	2.4921010124074074
O	1.7637097636666665	-0.3833229891111112	2.7605236424074073
O	2.0096436036666665	-1.3511944291111113	-0.08471794059259241
O	2.0512862036666664	-1.3221485291111112	3.5859596724074074
O	-0.04687647133333356	0.6505706315888887	1.8828774924074076
O	4.298990463666667	-1.5359302691111112	1.1249342444074075
O	0.061951520666666426	-1.5644196091111113	1.2934899724074076
O	4.2384103736666665	-3.6976659491111112	1.5803829724074077
O	-1.2271762163333335	-1.6104904491111114	0.9690986164074076
O	-1.9395596763333334	-0.6927704991111112	0.0921892694074076
O	-2.2999667763333336	0.5798320835888888	0.8060244234074077
O	-1.5875806063333335	0.5709297510888888	2.1236863624074074
O	1.0070284436666666	-2.711056509111111	1.5703862224074077
O	2.1977577836666664	-2.5140870291111113	0.6976773354074076
O	3.569624003666666	-2.588101069111111	1.1593806484074076
O	-2.7704766263333336	-8.901979509111111	10.425139592407408
O	-2.7683068163333338	-5.101291739111112	10.621821292407407
O	-5.376366266333334	-0.9090214191111112	7.5616431924074075
O	-8.590341456333332	0.2327440168888888	5.845070532407408
O	-10.589708916333333	-1.4033021091111113	4.307677042407407
O	-8.654990806333332	-4.627200869111111	4.955626902407407
O	-8.952015426333332	-9.33602345911111	4.884294772407407
O	4.700368443666666	-2.925066659111111	15.820000692407408
O	2.1806340936666664	-1.9435942691111112	13.117003192407408
O	4.667329723666667	-2.8291747591111114	10.362683592407407
O	4.482149373666666	-4.915029549111111	7.249143412407407
O	-3.4676495963333336	-12.240365049111112	5.985730392407407
O	-2.968327286333334	-8.59010676911111	5.142859732407407
O	-2.155343856333334	-6.3320745791111115	2.1840489924074076
O	1.4349288336666666	-7.575775189111112	2.3376965824074074
O	3.357976553666666	-6.737970109111111	-0.8181492175925924
O	5.232458903666666	-9.730315049111113	-2.4752625775925927
O	8.895939343666667	-8.708577149111111	-2.7789434175925924
O	-2.9709359663333337	-6.305419559111111	-7.942197647592593
O	-1.5504038163333336	-2.810275049111111	-7.2936520975925925
O	0.8111738086666664	-0.20729563211111124	-8.710546217592592
O	2.049871363666666	3.315524380888889	-8.000596207592592
O	-0.6049433593333335	5.866937920888889	-8.945274867592593
O	5.466400293666666	13.816546250888887	-3.5927994575925926
O	5.0827428936666665	10.60267297088889	-1.6762716675925924
O	5.815841113666666	8.950588080888888	1.6796479424074076
O	10.139658383666667	6.420447060888889	3.4958952624074073
O	9.000021023666667	3.4586230308888886	1.4773857924074076
O	8.769156763666667	1.5947181548888887	-1.7808391175925924
O	7.296920273666666	4.459906340888889	-3.836927547592593
O	10.219779983666667	6.715488400888889	-2.9366384175925924
O	12.666530283666667	3.8762241408888887	-3.6729149275925925
O	1.7074076036666666	9.274119730888888	6.416758082407408
O	-1.0775818383333335	8.72809193088889	3.8804769624074074
O	-3.351951546333334	10.772885250888887	6.185873412407408
O	-0.9521145473333336	13.729132450888887	5.842916762407407
O	-0.6314869053333335	13.163042850888889	2.0732506124074077
O	1.8571133236666666	9.372968290888888	-5.298593647592592
O	0.6322596436666664	6.154591960888888	-3.6262581475925924
O	-0.48950140533333353	2.573044620888889	-4.2525207975925925
O	-3.4924099663333337	2.358342480888889	-6.6281348975925924
O	-5.576650236333334	0.30086181288888875	-4.209675257592592
O	-5.3474790463333335	2.952063640888889	-1.4680540475925923
O	-5.933878806333333	5.7490174208888885	-4.097625657592593
O	-9.095495536333333	3.954533840888889	-5.282646797592593
O	-10.260250616333332	3.5753431408888887	-1.6966338575925923
O	-0.09371294733333356	2.666141910888889	-12.803376207592592
O	2.9866370836666665	-3.674334459111111	-11.030648207592593
O	3.0179252636666662	-5.646149249111112	-7.762236527592592
O	0.7421090216666664	-7.943713099111112	-5.762712257592592
O	-0.33675994533333353	-8.497874489111112	-2.1776402275925926
O	-0.035769904333333574	-12.063811849111111	-0.9991556975925924
O	-0.7938645353333336	-14.32689494911111	1.9536484324074077
O	-14.324615416333334	-0.35196551611111127	-2.2493675575925924
