18

O	7.641255767408216	33.805118098500614	-4.219254147475679
O	7.419360627245895	34.61024502747607	-3.149814621412173
O	7.876066404914426	34.15181878422788	-5.391783540584745
O	7.2682349743137	32.51719379387613	-4.011177719379087
O	6.742097273796184	32.21788016965914	-2.811295727579135
O	7.779258921836458	31.68960282027052	-4.790967944821498
O	7.013838145226243	34.23392813946958	-1.9369797878691304
O	6.728803539764679	35.73228690415914	1.436715320906881
O	5.672574638808996	36.57711218815524	1.73367655941066
O	6.563837741485568	32.98457189357177	-1.739404952409466
O	5.727269455959533	33.38716774031628	1.8860834715546173
O	6.866030736304901	33.405961275278834	2.6847923329399794
O	6.860797457003159	35.14020862989754	-0.9414837104402713
O	7.834474246008796	36.275521233275384	1.3497980341128013
O	5.83407539233694	32.80179432831865	-0.5963578543935335
O	4.870444660101971	34.16828420023072	2.393177085289788
O	6.485780210333568	34.85101157790403	0.31629787973397505
O	6.122184768016107	33.55747494050106	0.5046897175670948
