72

O	0.43333906441754344	-1.0701845962631578	2.199648509082456
O	1.1542966244175434	-0.1046206462631577	2.773660199082456
O	1.4804653744175433	-0.34314524626315757	3.988115929082456
O	1.8988979944175433	0.7519749970368423	1.9891942690824558
O	1.8941422744175433	0.7701761999368424	0.6478881850824558
O	2.292846874417543	1.8318356237368425	0.025506714082455834
O	0.9119909144175433	0.0727013337368424	0.018433492082455843
O	0.36787050441754343	-0.9574225762631577	0.8689147920824558
O	-0.6179374625824566	-1.3098140762631578	3.242630299082456
O	-1.6419339905824566	-0.28081457626315764	2.955222989082456
O	-1.4206105795824566	0.45550152073684236	1.711024239082456
O	-2.146444465582457	0.6798098767368423	3.9416480590824556
O	-1.4152374665824565	1.0155138407368423	5.039852349082455
O	-3.4635167155824567	0.6041138667368424	4.315822529082455
O	1.1665930944175433	-0.3058951662631576	-1.2718376509175442
O	2.3853263444175434	-11.151402856263157	8.488546149082456
O	4.838488774417543	-8.323768476263158	7.803807819082456
O	7.168192414417543	-6.0767020862631576	2.984748649082456
O	8.583386694417543	-6.698374806263158	-0.5084983559175441
O	7.742373024417544	-8.783744266263158	-2.500650500917544
O	5.0811634844175435	-10.202186656263157	-0.15798054291754415
O	2.3173327244175432	-13.954303656263157	0.6626830290824559
O	5.085246784417543	-3.315443446263158	15.720274139082456
O	5.517023094417543	-3.4875571962631575	11.927481439082456
O	2.0597246344175435	-1.9943826962631577	11.349498139082455
O	-0.9268890903824566	-2.956760326263158	9.269351359082455
O	-3.6119056855824567	-1.8659935662631577	11.745590239082455
O	-1.8511359495824566	-13.054827256263158	5.357863719082456
O	-0.35661449358245667	-9.807169556263158	4.165606839082455
O	-1.1419905855824566	-6.974124006263158	1.770114069082456
O	-3.6544479155824567	-5.5958220962631575	4.229428089082456
O	-6.206264855582456	-3.219224236263158	2.706676899082456
O	-9.870045665582456	-3.903210796263158	3.1483920490824557
O	-11.375703835582456	-0.8113513362631576	4.815168479082455
O	-6.4107801055824565	-5.014512026263158	-6.6719946709175435
O	-4.682788145582457	-1.6484028562631576	-6.128962640917544
O	-5.1844604855824565	2.0990455437368425	-6.425973680917544
O	-3.2992184755824567	5.365983023736843	-5.906009970917545
O	-0.8241455585824566	5.921877793736842	-8.748488630917544
O	3.740360254417543	14.427846243736843	-2.8169062609175444
O	3.1147282044175437	11.306398643736843	-0.8122143709175442
O	3.6580370244175437	9.735515773736843	2.623030919082456
O	0.7706420544175434	9.984267353736842	7.114943919082457
O	-1.5703876865824566	7.468926553736842	5.529406399082456
O	-4.4563437655824565	6.674631673736842	3.236797589082456
O	-3.1006622955824565	8.477878353736843	0.12971005908245584
O	-2.7859886555824565	11.723108843736842	2.054184279082456
O	-6.277975025582457	11.205249743736843	3.502149219082456
O	-7.698577055582457	10.460059293736842	0.007451022082455849
O	8.921245534417544	6.474817013736843	3.865696979082456
O	8.702498514417544	5.012983123736842	0.33621946438245587
O	12.446115264417543	4.563038673736842	0.40254835108245585
O	12.704460364417544	8.364076893736843	0.8304687120824559
O	9.982640864417544	9.002332653736842	-1.7968337209175442
O	2.0532909244175435	9.240092823736843	-5.238625340917544
O	1.7236147144175433	5.653373453736842	-3.9175097709175444
O	-0.2600818945824567	2.4222150937368423	-4.445106150917544
O	-0.05935432758245662	0.9404621737368424	-7.860476320917545
O	1.2134304444175434	-2.438310766263158	-6.680965130917544
O	4.331356174417543	-0.9179867262631577	-5.0750888409175445
O	4.798795084417543	1.4717341457368422	-8.001200450917544
O	4.750115404417543	-1.5473815962631576	-10.382538360917545
O	7.209643374417544	-3.3942055962631574	-8.154491810917545
O	-5.241108035582457	4.685480883736843	-10.770226260917545
O	-9.049804145582456	5.0510740337368425	-6.682584200917544
O	-9.814275955582456	1.3400388487368424	-6.218249710917544
O	-9.165359385582457	-0.9132397662631576	-3.208126250917544
O	-8.247616685582457	-4.5374117562631575	-2.4755878609175443
O	-5.929659485582457	-6.4207652862631575	-0.10717663491754414
O	-7.634133495582456	-9.256533656263159	1.7622081290824558
O	-6.893549155582456	-12.097485056263158	4.175264759082456
O	6.682035724417544	-8.709924246263158	-10.022844460917545
