17

O	7.392767667545851	33.50018453289551	-0.3937958670911361
O	6.681701872302739	31.529814021395666	-0.5316169724924971
O	6.688129678494952	31.886335055243542	0.7518973888381779
O	7.114105664737976	32.49019169523405	-1.3299587412723626
O	9.547970498944538	34.23622036323639	-0.9830522654264966
O	6.644636929582173	32.59667014456248	-2.5189497797421025
O	6.705454651207042	33.24608619212536	0.7626590347715626
O	9.96633875643121	32.47668871182167	-2.8451777051982083
O	7.277945307732599	34.937892936911126	-0.677982257660072
O	9.602388207223763	33.778935349744174	-4.593290497061888
O	6.760277865710973	35.87530948442046	0.11098747076747151
O	7.015048407711512	36.05766558127522	1.532433329192685
O	6.207254561764549	35.09942585887893	2.3620217664213095
O	5.585836123003931	34.109961840518835	1.4246817147007693
O	7.6458655811026786	35.033205768334	-2.1409136438509155
O	9.056587658550136	34.572212273412156	-2.2658230369290755
O	9.51660019987369	33.60734698876895	-3.2446429372400734
