14

O	7.20207972784667	34.185237450711874	-1.1665806988099847
O	7.153047662754728	32.82586898864657	-1.2612648576422187
O	6.489241496557527	32.50428286163749	-2.300222984414189
O	7.047980800278774	32.25459445736679	-0.02753474071350348
O	7.491407059794139	32.728043554266876	1.1304638278344767
O	7.691589724368368	32.12003099580607	2.18291460666032
O	8.157886398394655	33.915953221257034	1.1468744941780993
O	7.69124244842939	34.709360280564894	0.02527274345797481
O	7.837397019749337	34.6000668197916	-2.4413142909071768
O	9.173884731261102	34.00880299210747	-2.406472031130472
O	9.733325983847445	34.26661491850858	-1.1375288342733456
O	9.62220528212708	32.94537890005494	-3.1927653250160852
O	9.407808681144447	31.73652469628459	-2.7572883726509017
O	11.061902989129152	32.99807258117998	-3.316419104911527
