70

O	1.3313090737636364	0.4426455014909093	-1.0225961906363636
O	1.8578968337636366	-0.8867937245090907	-0.5386718166363635
O	3.274506953763636	-0.6180303545090906	-0.8036403456363636
O	3.838621183763636	0.4977970164909093	-0.5037826326363636
O	1.2258937237636365	-0.9006863245090906	0.7992430653636364
O	0.5770422527636365	-2.034665324509091	1.3502821483636362
O	1.2165293437636364	0.6194753836909093	1.2902105183636363
O	0.20268170176363648	-3.395097134509091	0.9561563583636364
O	-0.07826101123636353	0.8586833954909093	2.0863630483636366
O	1.3180388837636363	1.3807680484909093	0.03964988836363639
O	-0.48820704323636355	2.1212906354909093	2.2920569783636364
O	-1.0183451052363635	-0.09404171050909071	2.6932468483636365
O	-0.8510380762363636	-3.9898254845090912	1.4217541683636363
O	1.0455387037636363	-4.4818742745090905	0.6432242933636364
O	3.4786882537636363	-0.8174637945090908	-2.2048247016363636
O	8.768824773763637	9.51847118549091	3.5940740483636366
O	7.215574263763636	6.950470325490909	5.917862408363636
O	1.7704856437636365	5.639715855490909	7.436479238363636
O	-1.6042474962363635	7.0587344254909095	8.503530798363636
O	-3.0286054062363634	9.464426305490909	7.435951138363636
O	-0.14409636223636352	10.382566375490908	5.131567618363636
O	13.827768623763637	0.4841852254909093	7.228946538363636
O	10.105199523763636	1.3930402224909093	7.118623598363636
O	9.703610023763636	-0.03095295650909069	3.6121470283636365
O	8.386941613763636	1.3057977594909094	0.3556688143636364
O	10.896246623763636	-0.3156347085090907	-1.9723249316363636
O	11.696281123763637	-3.719523784509091	-3.4156976116363635
O	12.947433023763637	1.3443873914909092	1.4080841283636363
O	10.035645823763636	10.49575832549091	-1.9721675516363637
O	6.653675013763636	11.94862864549091	-0.9875876846363636
O	4.655127423763637	9.000507225490908	0.31004708436363637
O	1.8811076537636362	6.632489425490909	-0.7528872296363636
O	4.342407593763636	4.882103595490909	-3.0250363716363635
O	2.6764663237636364	2.678350745490909	-5.558579871636364
O	3.708514553763637	3.2637723054909094	-9.292020961636362
O	4.910427393763636	-0.12275490350909068	-10.576047961636363
O	6.865668823763636	-1.3863976045090907	-13.551070361636363
O	-6.412922326236363	2.9880855254909093	-5.365052561636364
O	-7.364809676236364	-0.6409543645090907	-5.903408361636364
O	-7.766856516236364	-3.9020959745090913	-3.9875630816363636
O	-10.954099176236364	-3.840000274509091	-1.9129003416363637
O	-7.4073672562363635	-13.241592054509091	3.3589201483636364
O	-4.783913086236364	-10.56743795450909	3.0142684383636364
O	-1.2174905892363634	-9.63601575450909	3.9976494483636364
O	3.4463372237636363	-10.845962754509092	1.7542099283636363
O	2.7170716537636364	-8.161096764509091	-0.7742413386363636
O	1.0127889437636364	-6.934221714509091	-3.8777756416363633
O	-2.5100237962363634	-8.077436054509091	-2.9699430616363633
O	-1.3365016562363636	-11.65653655450909	-2.4564812116363632
O	0.6384154797636366	-11.505782554509091	-5.717970491636364
O	-0.029625741236363523	-6.630755544509091	9.368415028363637
O	-3.0807853162363634	-4.461706924509091	8.654936238363637
O	-3.4638321662363634	-4.014125794509091	12.421608838363637
O	-3.8376802062363637	-7.81513698450909	12.741918638363638
O	-6.160373146236363	-7.964952794509092	9.700711748363638
O	-8.573221806236363	-7.735911754509091	1.3857350483636364
O	-6.581804086236364	-4.493606984509091	1.2529378583636364
O	-6.101383506236363	-1.2466462245090908	-0.6989156116363635
O	-9.202401766236363	0.8873530054909093	-1.0074508326363636
O	-7.476621056236364	3.9621675154909095	0.43966683536363643
O	-6.528352436236363	2.1711345854909094	3.6883812483636365
O	-10.039657106236364	0.5075541904909093	3.7929257483636367
O	-9.472914386236363	5.298852215490909	6.181617638363636
O	-12.101575976236363	-2.3455999145090907	-6.580168721636364
O	-6.418707676236363	-0.032787715509090654	-10.470551861636363
O	-3.1356309162363636	1.6039082474909092	-9.444812521636363
O	-1.7932821762363635	4.987620375490909	-8.367590921636364
O	0.5665636447636364	6.466328715490909	-5.797090431636364
O	3.1532014637636365	8.832713605490909	-7.218075581636364
O	5.9469985637636364	11.176504045490908	-6.153472161636364
