72

O	-1.5582772334067796	2.089954678101695	2.1061713074711865
O	-2.0418504804067794	0.7301766763016949	2.2365367974711865
O	-3.3115289204067797	0.8429489261016949	3.0282225874711863
O	-0.9835217224067796	0.2568751961016949	3.229973577471186
O	-0.24588459540677965	-0.7671306918983051	2.515094397471186
O	-0.9426270867067796	-2.004715591898305	2.422156217471186
O	1.0527652195932204	-0.8668375718983051	2.025451097471186
O	2.2427357895932203	-0.417942621898305	2.889398097471186
O	0.09257802959322037	-2.708753621898305	1.9947300474711862
O	-1.5049679024067797	-2.378350531898305	3.5565276674711863
O	0.9559174595932203	-1.974926071898305	1.2937207604711864
O	-3.9977190104067795	-0.23737275789830503	2.9460358274711864
O	-4.10179533040678	1.9256402581016951	2.564797467471186
O	5.99862392959322	1.1786354871016949	12.444102877471186
O	5.76971601959322	-2.0489064318983052	10.420974077471188
O	7.11713843959322	-3.554450621898305	4.967456267471186
O	9.59215031959322	-3.183854181898305	2.0986611774711865
O	11.15055171959322	-0.7515391518983051	1.2916661224711863
O	9.731869219593221	1.326509689101695	4.151050027471187
O	12.249282719593221	4.8782309081016955	3.3852815274711863
O	10.36778731959322	5.268596828101695	6.683882667471186
O	-0.05523563940677967	-7.562663491898305	15.224068077471188
O	1.5213053595932204	-6.583207621898305	11.889286377471187
O	-1.5553127654067795	-4.551079891898305	10.907740977471187
O	-2.1386407404067795	-1.0373543618983052	9.629407507471187
O	-5.37794021040678	-0.38996460189830506	11.520324677471187
O	5.64112460959322	6.513929918101695	10.721768977471188
O	4.6716150095932205	3.952411898101695	8.124389457471187
O	2.8850333595932205	3.723549028101695	4.759526307471186
O	-0.4252361124067796	4.211537068101695	6.5135423074711865
O	-3.2527055504067794	5.240721828101695	4.195497687471186
O	-5.2701729604067795	8.321655428101694	5.064282387471186
O	-8.923278090406779	7.198901968101695	5.255577617471186
O	3.4118464095932204	9.882177008101694	-0.6752464045288137
O	0.7924799795932203	9.382601078101695	-3.393470412528814
O	-0.6354302344067797	6.000353468101696	-4.467939822528813
O	-3.4804880304067796	4.368121998101695	-6.344550782528814
O	-4.7090912804067795	0.9498509981016949	-7.427325582528813
O	-2.6426433504067797	-0.32679430189830516	-10.348023322528812
O	-7.54952088040678	-10.454605881898306	-9.117507492528812
O	-6.364411250406779	-8.893266261898306	-5.899465882528814
O	-5.9658234904067795	-9.551733081898305	-2.1742649325288137
O	-8.59753712040678	-5.242732611898305	1.7065950274711863
O	-9.17322185040678	-1.8370612918983054	0.20761173147118633
O	-8.59967548040678	-2.865745051898305	-3.4100891025288136
O	-11.321526180406778	-5.524751151898305	-3.208327422528814
O	-13.63726778040678	-3.043545571898305	-1.4718485825288137
O	-12.954635780406779	-0.4208319918983051	-4.195170572528814
O	-0.7050062014067797	-12.184199381898306	0.09911737047118632
O	1.2745214395932205	-10.072137181898306	-2.393338892528814
O	3.9740168695932203	-12.727782681898306	-2.3518708425288137
O	1.3239952295932205	-15.162998581898306	-3.6695007425288138
O	-0.0470167054067796	-12.570476381898306	-6.149144002528814
O	-4.22253274040678	-5.500055191898305	-8.859132092528814
O	-2.3248940704067795	-3.692374051898305	-6.055650762528813
O	-1.1554865404067796	-0.2800774338983051	-4.827500202528814
O	1.0379946495932204	1.5501890981016948	-7.363622292528814
O	3.8485215795932204	2.075354778101695	-4.870085502528814
O	4.28141477959322	-1.6732675118983051	-4.311888862528813
O	3.8412193795932206	-2.3905721318983053	-8.048880772528813
O	6.653493269593221	0.09982146210169496	-8.799852452528812
O	8.83341581959322	-1.496196121898305	-6.136116332528814
O	-3.9957932604067796	4.394530138101695	-11.399546522528812
O	-7.953864950406779	5.7576055481016954	-7.675751992528814
O	-5.983899030406779	8.287245428101695	-5.615196502528814
O	-4.936521150406779	8.077061728101695	-1.949117792528814
O	-2.0215201204067794	9.174628108101695	0.24596756667118636
O	0.07475719959322036	7.763136948101695	3.082453867471186
O	0.37884593959322044	9.994637188101695	6.102977557471187
O	2.10971723959322	10.235625698101694	9.481079277471187
O	14.62972281959322	3.3109985581016947	-2.161305902528814
O	12.814168919593222	2.4556049281016947	-5.403556722528814
