70

O	0.3350547031272723	1.0591860899872725	0.6134602823454548
O	0.1692958801272723	0.44539021488727254	1.9653520283454549
O	1.0235548291272722	1.2804241659872726	2.8101502283454547
O	2.2115150291272725	1.4774211359872724	2.4123152683454547
O	0.6567480691272722	-0.9402946240127275	1.678646128345455
O	-0.45542126657272775	-1.8787575640127276	1.6326903183454549
O	1.651629189127272	-0.7436888540127276	0.6075156313454548
O	-1.1087831958727277	-2.618628024012727	2.694964768345455
O	1.6224213091272721	-1.4760046240127276	-0.6861692906545452
O	1.6461234291272724	0.7152508329872725	0.1665688029454548
O	1.946119509127272	-0.6316408340127275	-1.913201931654545
O	2.5513590491272726	-2.650239274012727	-0.7605528526545452
O	-1.6559990208727278	-2.2773738240127273	3.781583758345455
O	-1.6042295508727278	-3.9052614840127275	2.344919648345455
O	0.39166281912727224	2.5020349559872725	3.121852638345455
O	13.977785999127272	7.411266525987272	-0.02113638465454519
O	12.088613999127272	4.5426343059872725	-1.6175085416545452
O	11.238168699127273	0.8897715239872726	-1.0421239816545451
O	7.974645699127271	-3.0064370940127274	-3.868198341654545
O	7.140170719127272	-4.483268294012728	-7.302044601654545
O	6.748711949127272	-3.0361043940127272	-9.897198191654546
O	7.6576086591272725	0.3266626599872725	-8.347632941654545
O	13.148868899127272	-0.6703582040127276	7.986562178345455
O	11.138016499127273	-1.5779973440127277	4.854397888345455
O	8.121031279127273	0.39947289068727254	6.071207508345455
O	5.925152299127272	3.0752004459872726	4.552252538345455
O	5.407717859127272	5.155197745987272	7.707532598345455
O	3.4165896491272725	5.005590635987272	10.921933108345454
O	9.530420529127273	4.035105825987272	7.436898428345455
O	10.085619799127272	9.924018805987272	-0.8237691666545452
O	9.194695049127272	8.549079715987272	-4.262113641654545
O	7.264799949127272	5.386904945987272	-3.6094057816545453
O	3.6832710791272727	4.1063866059872725	-3.6011384116545453
O	3.0673051191272727	5.948042125987272	-0.3580256476545452
O	-0.5893750798727277	6.4105243159872725	0.4641146763454548
O	-1.8417033308727278	10.001482095987273	1.172564148345455
O	-3.4806029308727275	9.882658945987272	4.620777658345455
O	-4.564599230872728	12.353719495987272	7.242835828345455
O	-6.142859760872728	2.855711135987273	-5.791260451654545
O	-8.831640470872728	1.2190632309872724	-3.686023331654545
O	-9.528311130872726	-1.9904368340127274	-1.779726921654545
O	-10.336504640872727	-4.816144264012728	-4.198716291654545
O	-9.519396900872728	-12.120315104012727	4.446713728345455
O	-6.731542710872728	-9.597915604012728	4.272072838345455
O	-3.3960094808727277	-8.593700134012728	5.842212698345455
O	-2.3026712508727276	-5.605158504012728	10.111774508345455
O	-2.9528902808727278	-2.6086428540127273	7.921997088345455
O	-5.319393710872728	-0.18082768501272745	6.294544368345455
O	-7.588007780872728	-2.7819872540127273	4.670087598345455
O	-8.270340340872728	-4.440014924012727	8.025627158345454
O	-8.847712740872726	-1.0190032740127275	9.618903058345454
O	2.0181736891272726	-10.989799004012728	3.765628578345455
O	0.6607266491272723	-10.615299604012728	0.2355891313454548
O	2.8775068891272726	-13.522473404012727	-0.8072692776545451
O	0.9808699491272723	-15.68830240401273	1.7202039683454549
O	-8.745910370872727	-8.383497544012728	-0.1439290016545452
O	-5.953489060872728	-5.991831774012728	-1.1806174116545451
O	-5.211027460872728	-2.7249074440127274	-3.0105581116545452
O	-6.380375940872728	-2.6550816940127273	-6.613176351654545
O	-2.9348622008727276	-1.7074140940127276	-7.930066991654545
O	-1.2749981328727278	-4.8044398640127275	-6.400391831654545
O	-4.286926820872727	-6.985569914012728	-7.485612121654545
O	-0.1880612028727277	-6.420263724012727	-10.947152391654544
O	-13.111583900872727	-0.8323304740127275	-5.508513041654545
O	-10.644970700872728	5.496787835987273	-2.961958281654545
O	-7.134035130872728	6.701453685987272	-2.115553181654545
O	-4.013619330872728	7.9711482659872726	-3.881055701654545
O	-0.2547572398727277	7.486366945987272	-3.687502231654545
O	1.7353813091272723	10.692976595987272	-3.542374641654545
O	5.296327049127272	12.022295395987273	-3.534678081654545
