69

O	0.5794302781678571	3.732426218532143	-1.9565548868214286
O	1.350490658167857	2.561412148532143	-1.7792582468214286
O	2.7980231981678574	2.706590368532143	-1.4391775868214285
O	2.7335115381678574	0.30560387253214283	-1.0751029448214287
O	2.6001192381678573	0.5758814245321427	1.2258703031785714
O	3.1236838681678574	1.5139535535321427	-0.7253715078214286
O	2.5032601781678574	-0.3070334514678572	0.13802927517857141
O	1.1691908681678571	4.740309188532143	-1.3298284768214286
O	-0.6494982808321429	3.7306468185321426	-1.2070180108214286
O	3.1651844681678574	0.04896617853214291	-2.261324196821428
O	2.385404328167857	0.3850467255321428	2.5027896531785716
O	3.5990576181678575	1.1820514741321428	0.46983474317857143
O	0.7105931481678571	1.3165284086321427	-1.5572882868214286
O	9.039655698167858	-1.1846006814678574	-11.393527506821428
O	8.117721978167857	-5.146365901467857	-3.4677411468214285
O	6.873139268167857	-8.633256071467857	-2.495233656821428
O	5.122690178167857	-10.484666441467857	-4.084663166821429
O	4.944726418167857	-8.062906911467858	-7.045000926821428
O	3.914249058167857	-7.713895051467857	-11.635652006821429
O	15.140456278167857	5.866635298532143	-5.525073526821429
O	12.855429478167856	2.998263538532143	-4.432287066821429
O	9.821953278167857	5.322455738532143	-4.362154706821429
O	6.343736028167857	5.156971918532143	-5.855932476821429
O	5.930528738167857	8.832468768532143	-6.582366926821429
O	4.042787968167858	-1.8027790414678573	-13.869463006821428
O	3.958990108167857	-1.8803837014678573	-10.07430972682143
O	1.4369154181678572	-1.6899836214678574	-7.234905146821429
O	1.166399798167857	2.0160020495321427	-7.727442986821429
O	-1.928259961832143	3.5270011785321427	-6.181810256821429
O	-4.229310241832143	5.590063838532143	-8.368861896821429
O	-4.492771401832143	9.024898198532142	-6.744605176821429
O	-8.321907151832143	-3.509994831467857	-5.211887896821429
O	-7.038333601832143	-2.5038235314678574	-1.7453510568214285
O	-8.006955651832143	-0.6502774614678573	1.4105521031785715
O	-6.636403961832142	0.1942816485321428	4.847012893178571
O	-6.874196121832143	-2.835180881467857	7.134407793178571
O	-0.47150255243214284	2.6044401385321425	14.718728293178572
O	0.782157888167857	2.826905038532143	11.180454793178571
O	3.692286278167857	4.102530308532143	9.08133134317857
O	4.655524668167858	8.868436138532143	6.878356013178571
O	2.1560298881678572	7.958094738532143	4.198215303178571
O	-1.4121514148321428	7.663597088532143	2.9682976131785717
O	-2.7028301118321427	5.606571948532143	5.904884333178571
O	-1.579712101832143	8.282626728532144	8.375265563178571
O	-3.045610871832143	10.995238028532142	6.123701023178572
O	-6.377997701832142	9.090398048532144	5.9107612231785716
O	8.695496918167857	0.4231134965321428	7.884535293178571
O	6.304548588167857	-2.5130065614678574	7.514214933178571
O	9.108628298167858	-4.811961021467857	8.606663563178572
O	9.189426058167857	-2.864095121467857	11.904944393178571
O	5.360982938167857	-2.8061688814678574	12.13860219317857
O	-2.772680131832143	-0.5304754914678571	10.189366793178571
O	-1.697296601832143	-1.1574377314678572	6.549258233178572
O	-2.9912123218321427	-1.874676791467857	3.0305937431785717
O	-5.199379811832142	-5.047644951467857	2.8751508531785714
O	-3.155363661832143	-6.643705651467857	0.0986509801785714
O	0.04729845216785716	-6.577763071467857	2.2289800631785717
O	-1.892031791832143	-7.691544321467857	5.336131693178571
O	0.31651925016785715	-11.449451841467857	2.0659859531785716
O	-11.330403221832142	-2.288458981467857	4.8762294531785715
O	-11.562305621832143	1.326811740732143	6.0068584331785715
O	-11.292087021832142	2.777946178532143	2.5132592031785714
O	-11.142481221832142	1.7468893455321428	-1.1536055018214286
O	-8.380379661832142	2.335737308532143	-3.7181793968214283
O	-6.844801791832142	0.5766047195321428	-6.733290556821429
O	-3.3806901818321426	-0.049138921467857255	-8.166470256821428
O	-2.983938921832143	0.8956743225321429	-11.792652306821429
O	-0.5119045326321429	0.7324563175321428	-14.672077006821429
O	-0.7633795708321429	-14.939470341467857	-2.2768487768214283
