12

O	10.023300999095285	33.650441964256075	-1.281404609059785
O	6.5814442053220095	35.04154171561839	-0.10082213224722048
O	6.000956330403646	33.86099710961438	-0.4879122492447465
O	6.7507533154826636	33.1854387435465	-1.42832116652069
O	7.676041110763963	34.24772706934927	-1.5042613668481146
O	6.8310889231464325	35.374952261367525	-1.4407792022932497
O	6.316039274402522	32.83369027123573	-2.649699920061048
O	8.446638008914418	34.09516011123469	-2.867513632875051
O	9.94708090886755	31.3455168013638	-3.7569010921184134
O	9.34329667868192	32.95053129317292	-2.316355455076216
O	11.359559205770505	33.03413806349179	-3.493674809040873
O	10.026557480313267	32.61811446949264	-3.5710653291742904
