15

O	8.655065167273714	34.55119593709786	-2.2334884761076528
O	8.638967769299498	33.057473540680114	-2.270150006335186
O	8.449974320762347	32.88025874798441	-3.6778250570243367
O	7.860864645727402	33.63751129005444	-4.508241614312213
O	7.786341448470066	32.87945353513197	-1.0667094609009418
O	7.933219844983396	31.655245399126187	-0.34765823094230164
O	6.683516375714204	34.04667277928547	-1.0401210379346861
O	8.983150057491555	30.71539014267949	0.07104115519503629
O	6.446672806749366	34.5103336084554	0.4202572700589384
O	7.375855769678094	35.04203715069246	-1.867184780505311
O	5.841668521786981	35.62468578432803	0.7795126393011541
O	6.472807717655132	33.6974702517079	1.6566223601928374
O	9.313541967158622	29.590537365673615	-0.46936141791677455
O	9.326013466215283	30.40512731506599	1.4229597095440871
O	9.428355334189067	32.07217702226279	-4.280221800430516
