88

O	-3.551556740189655	-0.42945833606379336	0.6831547770172415
O	-2.1667068201896553	-0.8375126360637932	0.6256379070172415
O	-1.500216876189655	0.3752136439362067	0.8004201870172416
O	-0.6599426251896551	0.17325341693620672	1.8907562070172417
O	0.06036964281034485	-0.9874678760637934	1.8372047370172417
O	-0.16106241518965514	-1.8904220860637935	0.8003696070172415
O	-1.584875672189655	-2.0680830960637935	0.9312767670172415
O	0.868735129810345	-2.4999486760637932	0.2931883500172415
O	1.979182239810345	-2.5912147160637935	1.0792390870172415
O	2.156288549810345	-1.6003060960637931	1.8495463870172415
O	1.3434901498103449	-0.6342052460637932	2.0360179870172415
O	1.7924977998103448	0.4325857769362067	2.4227730170172417
O	2.413729639810345	-2.221352436063793	3.1397169370172415
O	1.1344254298103449	-2.0295521960637934	4.378758647017242
O	1.184084149810345	-3.0818043360637932	5.409264057017242
O	-0.3325075941896551	-1.9555827360637932	4.230579557017242
O	1.3844313898103449	-0.3325524730637933	4.919314127017241
O	2.9833972898103447	-3.2897748260637933	0.8468459970172415
O	-0.9523595131896552	0.9946152669362067	-0.4288382526827585
O	-0.7937532318896551	0.2535432079362067	-1.5121154329827584
O	0.4391852498103448	-0.22247063106379328	-1.8979285029827584
O	1.2227248198103449	0.3882956969362067	-1.0390308849827585
O	0.39623438981034487	1.3164062699362067	-0.4845466869827585
O	2.595905369810345	0.03128330593620676	-0.9153375459827584
O	3.0366616998103453	0.48426544523620674	0.08370222801724148
O	3.103980529810345	-1.1558765860637932	-1.2222114789827585
O	4.383457129810345	-1.5963892660637935	-1.4623701929827584
O	-3.6011692001896547	-0.09840875106379332	-0.6193947859827584
O	-4.147258570189655	-1.5238044360637932	1.2343862170172415
O	-4.059547380189655	0.6475809980362067	1.3385756670172415
O	-3.662173930189655	-9.225878836063794	-11.210540142982758
O	-4.744616140189655	-6.329640406063794	-9.021539822982758
O	-6.023800580189655	-5.575965306063793	-5.534564822982759
O	-9.165743330189654	-3.942985856063793	-4.166709452982759
O	-7.779977880189655	-0.7397127560637933	-2.9454820429827584
O	-9.463891750189655	2.6667545639362067	-3.0234700029827586
O	-9.508290440189654	4.581101093936207	-5.328773712982758
O	-7.384937300189655	2.2267224939362067	-7.484011192982758
O	-9.884968020189655	-0.6456108060637933	-7.941405542982759
O	-5.094215970189655	-11.269790606063793	-5.943907442982758
O	-6.136178030189655	-14.175647006063794	-3.6743668929827584
O	-4.159277980189655	-13.258629306063794	-0.5543656139827585
O	-4.777063950189655	-9.469478806063794	-0.6663643889827585
O	-1.070952464189655	-8.749217906063794	-0.6704627429827585
O	1.2750101398103448	-6.724541586063793	-2.8115063229827584
O	4.330286369810345	-9.060499806063794	-2.6745379929827586
O	7.069313129810345	-10.065229306063793	-0.24134537898275848
O	0.7569490698103449	-11.291780306063794	-3.3203407829827585
O	0.7227412298103448	-9.924477706063794	-6.8515597929827585
O	0.03769256681034494	-6.546672956063793	-12.305496442982758
O	-1.7264584101896552	-3.193921196063793	-12.564357642982758
O	-1.966805400189655	-1.912485906063793	-9.012144442982759
O	-0.3250658071896551	0.7087452359362068	-6.901360892982758
O	2.621710289810345	-1.6299893160637935	-6.404244612982758
O	5.778901579810345	0.11370537993620672	-5.171592842982759
O	8.998088119810346	-0.20649306906379328	-7.118694092982758
O	11.667372589810345	-1.6786505660637934	-4.817881322982759
O	4.450560149810345	8.948016143936206	-3.3501274929827582
O	6.2835478098103446	9.474637803936206	-0.08621288098275848
O	5.772254309810345	9.074891623936207	3.652450567017241
O	3.5378806298103447	11.845156393936206	4.988348667017242
O	2.7796437598103445	6.241709493936206	14.828592257017242
O	2.357285979810345	4.090394553936207	11.76618505701724
O	1.506506039810345	0.5574425446362067	10.628824257017241
O	3.0102164298103453	-1.996548616063793	12.961023557017242
O	4.6702092798103445	-3.7754957960637934	10.049310057017241
O	5.968123669810344	-2.2385711360637934	6.800210867017242
O	7.903209319810345	0.14472567393620672	4.750948807017242
O	7.159599199810344	3.2709616039362066	6.842431067017242
O	8.202191419810346	1.5667102869362068	10.073065657017242
O	-1.7956631901896551	0.24900773193620673	14.299379557017241
O	-2.664787650189655	-2.928762046063793	12.384803657017242
O	-4.4664771801896554	-1.1429701360637934	9.516229057017242
O	-5.034187800189655	2.285807313936207	8.000239637017241
O	-8.688165530189655	2.0272330639362064	9.002881367017242
O	-7.502118520189655	1.7717652739362066	12.650919457017242
O	2.3159460298103447	8.430857633936206	9.290615677017241
O	1.3780663798103447	6.914254023936207	5.902597807017242
O	1.9030161498103448	7.200338783936207	2.1418203370172417
O	1.0299789898103449	10.608199793936206	0.7287358770172416
O	-1.339186105189655	9.197221053936206	-1.8618878829827585
O	-3.5383051501896547	7.4444650839362065	0.7808519770172415
O	-3.287331540189655	10.552110553936206	3.0298894270172414
O	-7.308797790189655	10.357357713936207	-0.5472669289827585
O	9.081245569810346	6.306671053936206	-4.308009242982759
O	6.877496919810345	5.280665933936207	-7.2149075329827586
O	4.205553749810345	2.7599471339362065	-8.08094956298276
O	4.848840969810345	0.8020700089362067	-11.259966742982758
