17

O	6.790001414497646	34.03082357712612	-1.4449441562975518
O	6.396021773794782	35.46177323466739	2.510120412742327
O	6.860449762813905	32.7023252890614	-1.5563011339287862
O	7.359889548391463	34.547141477557936	2.2268311449243776
O	6.277558760981238	32.251947812928506	-2.606284243360618
O	6.7456818133683605	32.086424162616325	-0.3532540876755146
O	7.795516807586052	33.82113018783187	3.1284198606091365
O	6.865465979330942	32.730304621134316	0.7996398118189236
O	7.023203894633922	32.047358871623345	1.8182753924736166
O	7.424311112268046	33.97004888970153	0.9114151142264479
O	7.294378240474091	34.619817214395276	-0.31390182488823903
O	7.397877335740165	34.47303846728822	-2.666368880075441
O	8.776962808644331	34.51832552167476	-2.51667155027711
O	9.334588811291082	34.952620679282234	-1.339254001817673
O	9.444275365453887	33.92797567393732	-3.613519112829978
O	9.193861493234266	32.63099949036583	-3.559119703514392
O	10.848963389543234	33.84343743015005	-3.2278826417069504
