15

O	6.808813600538422	34.159473046624356	-1.7560532009518688
O	6.890646838219327	32.84352050030463	-1.6648445341896216
O	6.569936699716266	32.30647737631094	-2.779257784423433
O	6.567513910876326	32.41406007376583	-0.4050690809547348
O	6.830933293996372	33.182390657341024	0.6486983025639678
O	6.660751450861802	32.82916759962893	1.824230992427498
O	7.00755370274322	34.551714595774655	0.6251711188827417
O	6.761973832608154	34.99996529007083	-0.7319361308846004
O	7.624252079587731	34.49087419322328	-2.8811120395973138
O	8.989913124756974	34.14246833533925	-2.4723816044335143
O	9.463660728078036	35.19088591507613	-1.6546213408470705
O	9.543495083700202	34.13960251738447	-3.8345219664558146
O	9.356672819828058	32.860187008872	-4.141661449007767
O	10.962984699980208	34.00891466781518	-3.504354627824984
O	6.032956198686908	35.89464807813906	1.946684815341063
