18

O	7.143927188856765	32.58295413330195	-3.857379683747197
O	6.632829785947587	32.30014243233006	-2.6339210746755115
O	7.827565738303757	31.72015887673509	-4.496519082351412
O	7.549615714204817	33.86125235344755	-4.05012520808266
O	7.3565994728710375	34.66284304156745	-2.991851183539011
O	7.8296017431824305	34.181048142365476	-5.220793054578578
O	6.50708241275483	33.076002264824986	-1.5613843248433221
O	5.902475716911969	33.4132489330574	2.10441537956385
O	4.932367731136975	34.22667430194143	2.69428521973647
O	6.9809131883016935	34.322127762347996	-1.7611103373803514
O	6.6187554230062595	35.827674445566565	1.590256744327667
O	5.680721672013572	36.80846367372385	1.7002325894656378
O	5.792658177959574	32.91325208970364	-0.402204418970363
O	6.987854596049659	33.576610707168854	2.74985265187819
O	6.715663399061292	35.278956792417276	-0.819843936841347
O	7.819546505265712	36.18764248144633	1.613448049598309
O	6.15540771103351	33.63482486085011	0.7022572315164737
O	6.433895456156518	34.93745068314746	0.4651946349750464
