69

O	-1.7265583070857144	0.4491040504107142	-1.709530666244643
O	-1.6236658780857145	1.6962632604107142	-2.3352131562446434
O	-2.7555891480857144	1.9276163424107142	-3.228644936244643
O	-1.3803896832857143	2.6845057154107144	-1.310296176244643
O	-1.5366711771857144	2.143820335410714	0.004028675755356925
O	-2.893575948085714	1.7626315504107142	0.20043963875535695
O	-0.7380547240857144	1.8587495184107143	1.077734673755357
O	0.1809484819142857	2.957131615410714	1.611510223755357
O	-2.7361064280857144	1.5230220004107142	1.479056853755357
O	-3.8234700380857145	2.624657665410714	-0.14274907354464306
O	-1.5070244906857144	1.0075742384107143	1.753989203755357
O	-3.8534196680857145	1.3525410554107142	-2.8812710062446434
O	-2.344663353085714	1.3357170844107142	-4.4541115562446425
O	-1.7243768430857145	13.123567115410713	3.144096783755357
O	-3.0047515980857145	10.165515455410715	5.177198253755357
O	-0.5511324270857144	5.346556645410714	7.349385373755357
O	2.5154585919142853	3.8327403254107137	9.047872073755357
O	5.407686731914286	4.510822435410714	8.615088663755357
O	4.554535201914286	7.223284755410714	6.070564343755358
O	8.714016941914286	8.662798285410714	5.616860833755357
O	6.288021751914286	11.031336755410713	3.8596981737553566
O	-12.312143858085713	10.434064345410714	4.337957193755357
O	-9.137375988085715	8.406946965410715	4.962445043755357
O	-9.091480828085714	7.217364345410714	1.339105353755357
O	-6.471600268085714	7.100471505410714	-1.3871863962446431
O	-8.800409428085715	7.865963485410714	-4.304036066244643
O	2.4373828119142855	13.349336415410715	-0.6161877552446431
O	1.4590775819142856	9.863479215410713	0.44417332975535695
O	1.9797442319142855	6.251660695410714	-0.631609975244643
O	-0.5199931210857144	6.734208035410714	-3.4338221062446435
O	-0.27829437808571433	4.1376612454107145	-6.200496406244643
O	0.1910200019142856	5.283441295410714	-9.781420026244643
O	-2.7055143080857142	3.812965575410714	-11.797389296244642
O	8.982684141914286	3.817165825410714	-4.182103966244643
O	8.492343871914287	0.36495038841071414	-5.722458356244643
O	5.978662331914286	-2.249364154589286	-4.509822556244643
O	4.170491061914285	-5.423814854589286	-5.4899691362446426
O	1.7333404019142857	-7.972357704589285	-4.099728126244643
O	3.492051121914286	-10.256722284589285	-1.623630096244643
O	-6.6165903380857145	-14.370572584589286	1.4223576137553569
O	-6.473027708085715	-10.612264884589287	1.164762873755357
O	-8.473439258085715	-7.422583204589285	1.774486943755357
O	-9.028113818085714	-3.4868091245892856	-3.1821368262446432
O	-6.391345798085714	-3.8437336345892863	-5.845140126244643
O	-4.968934108085715	-7.144635524589287	-4.586169706244643
O	-8.379351808085715	-8.830730444589285	-4.857269486244642
O	-8.899002718085715	-7.258199684589286	-8.295505876244643
O	-8.330632668085714	-4.548378234589286	7.365850593755357
O	-4.601700038085714	-5.3342525945892865	7.540877923755358
O	-4.8480356180857145	-5.296291664589286	11.319253803755357
O	-7.345467518085714	-8.181014704589286	10.987737503755357
O	-5.192951278085714	-9.931760784589287	8.331127323755357
O	-1.5582963772857144	-11.301528484589285	0.5961433357553569
O	-0.6364574290857145	-7.592333614589286	0.731351899755357
O	1.6677110819142855	-4.903457004589286	-0.706620318244643
O	5.368531481914286	-5.732036474589286	-0.21314925054464307
O	6.118617691914285	-2.415482314589286	1.461619583755357
O	3.5897420619142855	-3.0694873345892857	4.249355683755357
O	4.701074391914286	-6.7376479845892865	4.521814533755357
O	8.310631751914286	-5.557925374589286	4.986633903755357
O	7.194472311914286	-3.031702964589286	7.588676133755357
O	6.355710451914286	-10.004164884589287	-5.7413007962446425
O	4.995512141914285	-4.296098674589286	-9.985849666244643
O	3.6758385819142863	-0.8035528245892858	-9.181922206244643
O	4.984305501914286	2.503428335410714	-7.793447706244643
O	3.8167054319142855	5.186731925410714	-5.361252676244643
O	3.9801419919142855	8.709015935410715	-6.706292336244643
O	3.4534626319142863	12.327964715410713	-5.684744146244642
O	11.731445241914285	0.3454619794107142	7.9141663137553575
