71

O	0.6109924649178573	1.0960504960017858	0.2379583993214287
O	-0.6315376790821428	1.126570233001786	1.0906116983214287
O	-0.9751654640821428	2.516072526001786	0.9615846203214288
O	-1.0168322080821428	3.0046109760017856	-0.2202169736785713
O	-1.4701044070821427	0.13630107700178584	0.40395724632142865
O	-2.757847265082143	-0.27806305099821416	0.8575552213214287
O	-1.0258550690821429	-0.09938994599821416	-1.0560366016785712
O	-3.051733155082143	-1.1507012439982143	1.9880376183214288
O	-1.309733678082143	-1.5916566939982144	-1.4118160116785712
O	0.40869926491785713	0.2524722630017859	-0.8958035726785712
O	-1.1213320320821427	-1.9653931039982142	-2.6989979716785713
O	-1.214525044082143	-2.8517895739982144	-0.6543765106785713
O	-3.1385082950821426	-0.795830673998214	3.2024492683214287
O	-3.824951205082143	-2.293856933998214	1.7096284383214286
O	0.0727367529178572	3.2032998160017856	1.6543523183214288
O	0.4123110749178571	12.073514826001787	-10.35621996167857
O	0.11007611991785715	8.308520846001786	-10.085099561678572
O	-2.4612156250821426	5.590030346001786	-9.40995532167857
O	-2.265724425082143	-0.18662460599821418	-8.966128431678571
O	-0.8099945351821428	-3.4078296439982143	-10.30294216167857
O	1.9219294549178574	-3.8842348739982144	-11.447271461678572
O	2.979187524917857	-0.2651982599982141	-10.974983961678571
O	-5.126614235082142	10.704711826001788	-9.132707471678572
O	-9.839377895082144	10.019713866001787	-5.788349311678572
O	-7.785400255082142	6.805709996001786	-6.117497061678572
O	-6.045771465082143	7.402597706001786	-2.7932693016785715
O	-2.4528271650821427	7.534567096001786	-1.6735951016785713
O	-2.782613935082143	10.378424176001786	0.8278628443214288
O	-4.156094485082143	10.959713626001786	4.302819938321428
O	-4.921360165082143	11.401402526001787	-2.740220931678571
O	4.089449764917857	11.606746826001787	-7.460903871678572
O	5.595800564917857	8.428274876001787	-8.92449873167857
O	3.6858949949178577	5.592338126001786	-7.294725481678571
O	4.118283374917858	2.9852190860017855	-4.572965251678572
O	3.639121514917857	5.7071565360017855	-1.9783017816785713
O	4.7680881949178575	4.664737266001786	1.4689142683214287
O	7.238456214917858	7.017045426001785	3.262202698321429
O	5.628587254917857	7.937100836001786	6.588559008321428
O	6.119799304917858	10.538060976001786	9.26004497832143
O	8.279322844917857	-3.7009519939982143	1.8467752183214288
O	6.807639414917857	-5.046220283998214	5.069945158321429
O	3.664321654917857	-6.692160573998215	6.422668168321429
O	3.5046217449178574	-10.341745573998214	5.341704488321429
O	-7.219978285082143	-10.672632073998214	9.02700558832143
O	-6.384063195082143	-7.644008033998214	6.9577371983214285
O	-7.900669245082143	-4.546289833998214	5.329819678321428
O	-8.878697725082143	0.29776605200178585	7.296575248321428
O	-5.200078505082143	0.9913360350017859	6.801859288321428
O	-1.6399906860821427	0.7606246360017859	7.957574788321429
O	-1.5938258880821428	-3.0023935939982143	8.58872849832143
O	-4.572153885082143	-2.7598384439982144	10.928305738321429
O	-2.979634535082143	0.22896758800178585	12.67895153832143
O	-10.245204675082144	-4.7616516339982145	-0.48610134367857133
O	-7.2616484950821425	-6.922170733998215	-1.4626722916785713
O	-9.474079985082144	-8.530433493998213	-4.128221901678572
O	-11.856831395082143	-9.666536773998214	-1.3503325116785712
O	-8.906854095082144	-10.709970973998214	0.8603970963214287
O	-2.0732561050821428	-10.012909973998214	6.075801508321428
O	-0.7979672913821428	-7.547187323998215	3.4715478983214285
O	2.3545459449178576	-5.848617473998214	2.1736561583214287
O	5.055054084917858	-8.176820743998213	0.9674704303214288
O	5.258909934917858	-6.5424053239982145	-2.466630711678571
O	1.5033070249178573	-7.049567883998214	-3.150553701678571
O	1.805211124917857	-10.685060473998213	-1.6885366316785713
O	2.8136181049178575	-10.107357773998213	-6.913917061678572
O	8.103627414917856	-9.485108773998213	7.200476048321428
O	9.985576304917856	-2.476040633998214	7.393928348321428
O	9.014479164917857	0.48021442090178584	5.2063352383214285
O	9.814428304917856	1.959021016001786	1.7986834383214287
O	7.970180544917857	3.489333466001786	-1.1415469416785713
O	9.390099204917856	6.809117776001786	-2.2982022416785712
