69

O	-1.3963007175196422	1.0314132697107148	1.7486413315017861
O	-0.6642535265196422	1.4113520577107148	2.880211041501786
O	-1.5462383845196421	1.957419254710715	3.911997251501786
O	0.14793369248035781	0.2932227457107149	3.3078436815017858
O	-0.1194845875196422	-0.864998485289285	2.5040026315017863
O	-1.4384079415196422	-1.3233933952892851	2.7820519715017866
O	0.5123517024803579	-1.5942521952892852	1.5363802815017862
O	1.930447662480358	-2.092584625289285	1.819775961501786
O	-1.2962786132196422	-2.427496725289285	2.092631651501786
O	-1.791280869519642	-1.437005615289285	4.043010271501786
O	-0.5122365525196422	-2.249646275289285	0.9945915195017863
O	-2.721188807519642	1.429476792710715	3.938925781501786
O	-1.7251183515196422	3.315655574710715	3.5258030815017865
O	5.968858772480358	-6.148797685289286	10.565833201501786
O	3.5374183324803576	-7.782944845289286	8.128435311501786
O	3.242729312480358	-8.186697825289285	2.321288181501786
O	5.183923402480358	-8.671413815289286	-0.9320263984982138
O	7.916265642480359	-7.647981235289285	-1.6386285284982136
O	8.371933512480357	-6.0363164752892855	1.7907874615017862
O	12.571405342480357	-4.823617945289286	1.1012330575017861
O	11.616943942480358	-4.293479325289286	4.760878161501786
O	-4.188667497519642	-9.485118005289285	13.109279901501786
O	-2.5564122875196422	-8.817133415289286	9.721595581501786
O	-3.567292457519642	-5.143540735289285	9.870069841501785
O	-1.7469409685196422	-1.866777375289285	9.369775681501785
O	-3.610510907519642	0.11692708271071495	12.035347501501786
O	9.140507042480357	-1.5648158852892848	9.920582921501785
O	6.561152232480358	-2.089636775289285	7.211012631501786
O	4.933524892480358	-0.18798541528928514	4.347180791501787
O	2.796312202480358	1.698838424710715	6.834516231501786
O	1.2943583124803577	4.911560454710715	5.465735861501787
O	1.8987265124803578	8.168674974710715	7.301329111501786
O	-1.5404932395196422	9.616528214710714	8.133594991501786
O	9.089457242480357	5.4914746147107145	0.09286012450178621
O	6.648273022480358	7.533322874710715	-2.005268278498214
O	3.278575162480358	6.280388764710715	-3.3074429184982135
O	-0.0492815475196422	7.393836804710714	-4.7185024784982135
O	-3.2992858475196423	5.977721934710715	-6.0594039984982135
O	-2.778840567519642	4.579602754710715	-9.554363598498215
O	-13.096049457519642	-0.07174686628928506	-8.991549278498214
O	-10.985009627519643	-0.5753026252892851	-5.9100618884982135
O	-10.872180437519642	-2.337477275289285	-2.528596758498214
O	-9.765961707519644	1.366286118710715	2.516429401501786
O	-8.061986797519642	4.640830834710715	1.7875897515017862
O	-8.510040657519642	4.514518764710715	-1.9927403384982136
O	-12.296824157519643	4.2295867747107145	-1.6352147784982136
O	-12.272152757519644	7.005757174710714	0.9827419935017863
O	-8.575284517519643	-8.168424975289286	-2.0073327684982134
O	-5.863231157519642	-7.195902145289286	-4.507149978498213
O	-5.624281637519642	-10.829890205289285	-5.546802038498214
O	-9.299792267519642	-10.568574105289285	-6.591486778498213
O	-8.742052077519642	-7.137990745289286	-8.227504548498214
O	-7.312628497519642	1.388160069710715	-8.671515488498214
O	-4.532284447519642	0.7270277999107149	-6.1267880884982135
O	-1.3236797044196422	2.1228222247107147	-4.5869108484982135
O	1.3792108324803578	2.796304724710715	-7.207127768498213
O	3.9783870524803584	0.7231762797107149	-5.389163728498214
O	1.828226712480358	-2.428689015289285	-5.5790957184982135
O	0.8155903624803578	-1.6296099552892849	-9.199064528498214
O	4.5184525224803584	-1.3709008252892851	-10.126952198498214
O	5.2378062324803585	-4.641868765289286	-8.343205228498215
O	-0.7140294665196422	9.154895634710714	-9.437682098498215
O	0.7451240124803578	11.614947794710714	-2.7871458384982137
O	1.6066628424803577	9.782322304710714	0.4546049264017862
O	4.636626052480358	8.127823694710715	2.0881769215017862
O	5.3765461424803584	4.9698883047107145	4.0808220315017865
O	7.256151862480357	5.547592584710714	7.302981881501786
O	8.874190842480358	3.690279674710715	10.192496821501786
O	10.881854342480358	-4.468463395289286	-7.878453388498214
