71

O	1.7228583511403508	1.870195648987719	-0.5131091966157895
O	2.5773037311403506	1.1030870639877188	-1.2484454193157895
O	3.4602040811403505	1.8537023689877188	-1.7781187983157896
O	2.7975666711403506	-0.09873565901228121	-0.6429786433157895
O	1.980574301140351	-0.7686372290122812	0.1604495946842105
O	2.0099856911403506	-1.9620086190122812	0.46443102168421047
O	0.7506885311403508	-0.2504731590122813	0.43336054168421057
O	0.8343395911403508	1.1932659569877189	0.3156248626842105
O	1.181357031140351	2.8338164909877186	-1.5024869763157895
O	0.4653093001403508	2.011898100987719	-2.4765157783157896
O	-0.3345352955596492	1.0910707734877187	-1.7680074883157895
O	0.8633239811403508	1.763120863987719	-3.7917395083157897
O	1.6744897811403507	0.7656695019877189	-4.00158561831579
O	-0.28799049285964917	1.4237597279877188	-4.598030628315789
O	7.810423061140352	12.032662570987718	0.8673648116842105
O	9.13492575114035	8.520645680987718	1.4858194916842105
O	7.635515561140352	4.211724340987719	5.076386951684211
O	6.417159151140351	3.178353670987719	8.54854460168421
O	4.504566671140351	4.646402370987719	10.32701600168421
O	4.095529611140351	7.507327690987719	7.83483894168421
O	2.6526614211403508	11.983700670987718	7.38078577168421
O	14.430188351140352	6.502807580987719	-5.98156513831579
O	12.26349895114035	5.309990430987719	-3.0766603183157897
O	9.24355032114035	4.869005710987719	-5.37796670831579
O	5.650547171140351	6.018062090987719	-5.276188888315789
O	5.231446971140351	6.629745830987719	-8.988658618315789
O	2.6058442611403505	14.074615870987719	1.4040945116842105
O	2.8541093211403505	10.309693380987719	1.6040313316842103
O	0.6509767711403509	7.195888700987719	1.4071438316842104
O	0.3066979331403508	7.683276470987719	-2.301624168315789
O	-2.6652126088596493	5.811196500987719	-3.8056639083157893
O	-5.085134078859649	7.669022060987719	-5.93617959831579
O	-5.207935178859649	5.931096780987719	-9.328556158315788
O	-8.950951258859648	4.4056944909877185	3.2486572516842105
O	-7.370844108859649	1.0373465046877188	2.3665713016842105
O	-8.02033603885965	-2.2422412790122808	0.5850594716842106
O	-6.370538458859649	-5.594744349012281	-0.12004818031578951
O	-6.429402848859649	-7.783450429012281	2.9935854316842105
O	0.7262754911403508	-14.897394529012281	-2.2067335183157892
O	1.655849971140351	-11.271909629012281	-2.5031235383157897
O	4.376068531140351	-8.931493789012281	-3.7993806183157894
O	5.183105171140351	-6.755568939012281	-8.604155858315789
O	2.440256421140351	-4.305622339012281	-7.751198308315789
O	-1.214706910859649	-3.4407857290122807	-7.536156988315789
O	-2.296838748859649	-6.473665119012281	-5.47304254831579
O	-0.8690747678596492	-8.850159119012282	-8.05986047831579
O	-2.5023017688596494	-6.805715299012281	-10.836844798315788
O	-5.877158268859649	-6.878373519012281	-8.98759286831579
O	9.234059911140351	-7.29243774901228	-0.10943035231578946
O	6.785397221140351	-7.083985009012282	2.8214927916842103
O	9.64822065114035	-7.837619409012281	5.16169816168421
O	10.01500305114035	-11.163123529012282	3.2881273516842104
O	6.217255921140351	-11.733423229012281	3.2054180416842106
O	-2.051398118859649	-10.576656329012282	0.8052355816842105
O	-1.3424257418596492	-6.867766169012281	1.3629526816842106
O	-3.0037117688596493	-3.4512604290122813	1.9681741116842106
O	-5.126649678859649	-3.2966465890122807	5.07126692168421
O	-3.2947406488596496	-0.3029909890122813	6.52727740168421
O	0.06946409414035082	-2.1237027190122815	6.521060941684211
O	-1.6133624788596492	-5.358450919012281	7.78756730168421
O	0.2588770321403508	-1.8107659790122812	11.426752401684212
O	-11.044876348859649	-5.930827599012281	2.3313221116842104
O	-11.162929648859649	-7.20190816901228	-1.2488543353157895
O	-11.16778704885965	-3.7440815390122806	-2.8242996383157895
O	-11.356807948859649	-0.049696139012281204	-1.8968451483157895
O	-8.836742998859648	2.733522430987719	-2.5451881783157897
O	-7.568541368859649	5.917210110987719	-0.8850299523157894
O	-4.238012808859649	7.658134480987719	-0.2874018203157895
O	-4.192836868859649	11.312177370987719	-1.2819057583157893
O	-1.9888544688596492	14.409947570987718	-1.1729384153157896
O	-1.2473617558596493	2.4972151909877187	14.79484930168421
