13

O	10.11448802390003	33.211357445429286	-3.116981392026763
O	8.953295904402761	33.34636828462071	-2.323598560097997
O	7.846333081519762	32.3704022809925	-2.547842730563049
O	6.751957601835942	33.402558653929155	-0.6643536090629821
O	7.526160527599935	31.789449843893102	0.8146299319866215
O	7.129274118820288	32.31862420852921	-1.315182212262617
O	6.9003886441741145	33.03751050452381	0.657597803775932
O	10.272123359460208	31.92899318326367	-3.4134539474660928
O	11.3495083266498	33.42145403499293	-2.4156968561117806
O	5.972176539523127	34.09691984755774	-1.4230571310750695
O	7.900733543269719	31.15877023634774	1.8973405371407166
O	6.8415589923962585	31.45547535651867	-0.3533080047231266
O	8.894939137824686	34.241648506552636	-1.234986481392062
