75

O	-1.13587095217647	2.749509867175098	-0.8116968502823527
O	-1.26176660317647	2.531007937175098	-2.187931605282353
O	-0.30585589817646996	1.5827766471750984	-2.8477803552823526
O	-0.50356383317647	0.5573866511750982	-1.7687964752823526
O	-0.08341283817647005	0.8069767841750983	-0.4626333232823527
O	1.11456054482353	0.4754772621750982	0.06610370271764732
O	1.78115430482353	-0.34336307482490175	-0.8423935172823527
O	2.8238499948235303	-0.08729480582490173	-1.4212339832823528
O	0.92978276482353	-1.1223469128249017	-1.6084914632823528
O	1.28181859482353	-2.506318222824902	-1.4800324052823526
O	1.5713790748235301	-2.652882912824902	0.02519097671764725
O	2.0330014748235303	-3.749646472824902	0.6091174647176474
O	1.03944220482353	-4.5523117528249015	1.2288524047176472
O	-0.29194980117647007	-4.215020542824902	1.2847977647176474
O	-0.23713107517647003	-2.8373437428249018	1.5758303247176473
O	0.71267561482353	-2.022433112824902	0.9446633347176474
O	-1.5339039741764702	-4.857731732824902	0.8149360247176474
O	-2.36034267517647	-4.418925482824902	-0.08701139728235274
O	-2.2892106251764703	-5.827921782824902	1.5009053147176474
O	-0.33616727817646996	-0.7695439128249018	-1.9741556852823527
O	-0.7516350251764701	-1.2201308228249017	-3.0647883252823527
O	-2.58026965517647	2.3042321871750984	-2.8304426452823526
O	-2.5324149851764703	1.2813399641750982	-3.7598401652823528
O	-2.9494631451764697	3.456190307175098	-3.480154245282353
O	8.716221804823531	4.894349877175098	-9.130241115282352
O	7.924974964823529	1.3041163121750983	-8.184670595282352
O	9.77724111482353	-1.5723795828249016	-6.512540305282353
O	8.067331774823531	-1.7417252728249017	-3.2039577352823527
O	9.776521114823531	-2.469752722824902	0.11020680871764732
O	11.23735281482353	-0.5206215568249017	1.8460754247176472
O	10.61995241482353	2.3906958171750983	-0.5391430582823526
O	6.8499155648235295	1.9128794071750983	-13.818070775282354
O	2.96180941482353	-2.167975412824902	-15.301600675282351
O	3.8401253048235295	-2.254320512824902	-11.592591775282354
O	0.73106377482353	-0.2588684808249017	-10.696537555282351
O	0.12702533482352996	2.814133757175098	-8.607380815282353
O	-2.60651199517647	4.275849587175098	-10.861671975282352
O	8.30250883482353	9.595315297175098	-6.095611795282353
O	6.68152531482353	6.571995447175098	-4.535537145282353
O	4.21219761482353	5.623797187175098	-1.7655459552823527
O	1.4166397948235299	6.967198267175098	-3.910531165282353
O	-1.8331748731764699	7.644535407175098	-2.006487355282353
O	-3.4740904051764696	11.082900767175097	-2.3469466752823527
O	-7.06045718517647	10.383505367175099	-3.5059539352823528
O	-1.02360186617647	5.717419067175098	6.789916464717647
O	-4.27800856517647	3.996138967175098	7.611420934717647
O	-5.93735394517647	0.6139659761750983	7.492831964717648
O	-4.62065895517647	-1.5679874328249017	10.318595824717647
O	-9.64755487517647	-10.487823432824902	5.371576264717647
O	-7.73891243517647	-8.263795592824902	3.008527134717647
O	-6.5179954951764705	-7.865856322824902	-0.5993279708823527
O	-9.00866081517647	-5.8821119928249015	-4.890184445282353
O	-8.14203605517647	-2.460068652824902	-3.5263213052823525
O	-9.08986819517647	0.37788026824509824	-1.1916905812823526
O	-9.175178355176469	-1.6124559228249018	1.9923826847176471
O	-11.875279185176469	-3.8504169528249017	0.4953994447176473
O	-1.06545282017647	-10.234993432824902	-2.4465857152823527
O	0.47783292482353	-9.283778732824901	0.8273218947176473
O	2.8887400148235303	-12.123756332824902	0.5127089447176474
O	-0.13819018617647005	-14.516254532824902	0.5266684347176473
O	-1.8406744921764702	-12.562668732824902	3.376519984717647
O	-6.1479032651764705	-6.015855312824902	7.203648604717647
O	-3.6274149251764696	-3.7296299628249017	5.445150674717647
O	-1.98854451517647	-0.2856018008249018	5.315834634717647
O	-0.28918313317647004	0.5710733361750983	8.615563344717646
O	3.0204088848235298	1.4033699771750983	7.011792704717648
O	3.2806151048235295	-2.091424692824902	5.446335744717647
O	2.10451446482353	-3.644510672824902	8.780463324717648
O	4.804410954823529	-1.7607414528249017	10.697912524717648
O	7.427961414823529	-2.810256172824902	8.193099244717647
O	-5.8799911151764706	2.849951717175098	12.320201524717646
O	-4.61506404517647	8.968683757175098	4.338189634717647
O	-1.27398204117647	10.281468577175097	3.059866284717647
O	1.2909234048235299	9.460779667175098	0.3698092247176472
O	2.3579296148235303	12.333627867175098	-1.8088892552823528
