83

O	-1.2062143906034477	4.30946718874138	0.9108341214448274
O	-2.510100082603448	-1.9832905212586205	-0.2100253805551725
O	-3.630514742603448	-1.8699475012586206	0.6730388914448275
O	-4.3771390426034475	-1.0905638712586208	-0.1539318915551725
O	-4.298564572603448	-1.4372343012586208	-1.4202187385551726
O	-3.363845822603448	-2.5121960312586205	-1.3107626685551725
O	-3.291783662603448	-0.9473669012586206	1.7184219014448276
O	-2.2061709986034477	-1.6195666712586205	2.3887241214448274
O	-1.1285070136034479	-0.8450118712586205	2.005226701444827
O	-1.6246943746034477	0.2581990977413794	1.2539011614448274
O	-2.829379792603448	0.16588546174137941	0.8675131814448276
O	-0.6833272216034478	1.2759412117413793	1.0487652714448275
O	-2.293346995603448	3.9548892687413795	-1.5361380815551726
O	-2.630295792603448	3.7699206787413795	-0.053222344555172496
O	-2.6326702926034478	2.2703929787413797	0.061692625444827454
O	-1.1534771596034479	2.0167668987413796	-0.11473212755517248
O	-0.43026058860344774	2.5732415787413796	-1.2050979515551725
O	-0.8190940396034478	3.9842152287413795	-1.6339541045551726
O	-3.976636032603448	-3.5619179312586207	-0.7352240255551725
O	-2.0814884516034478	-0.8008874012586207	-1.0896347345551725
O	-0.7296591236034478	-1.3390833012586207	-1.1005318185551725
O	-0.5106947416034477	-2.8097505612586207	-0.8800425002551725
O	-1.1834797316034478	-3.5003887812586205	-1.8850880885551724
O	-1.105397483603448	-3.4162893612586203	0.2500239114448275
O	0.36039458739655217	-0.5521366712586206	-1.4880975325551726
O	-12.767808982603448	4.594459968741379	-0.6483575915551725
O	-10.962869232603447	3.3371018887413793	2.4674118614448277
O	-9.151606222603448	4.949695168741379	5.419422761444827
O	-5.577312162603448	4.064261478741379	4.640087371444827
O	-2.663281542603448	6.443260678741379	5.209748631444827
O	-1.7156654836034477	8.60904286874138	3.3926253614448276
O	-4.536544212603448	8.07944389874138	0.8922180414448275
O	-7.513842512603448	8.99357477874138	2.9255961714448278
O	-3.4620608226034477	11.395258408741379	-1.7474268055551725
O	-6.754425912603447	9.825132348741379	-2.8601951585551726
O	-12.672927182603448	-2.0914299912586207	5.390989981444827
O	-11.703774082603449	-4.431159841258621	2.549598881444828
O	-10.444278552603448	-3.9257425712586205	-1.0040921015551725
O	-10.729071062603447	5.857522088741379	-5.727860728555172
O	-8.299746832603446	4.0730343687413795	-3.446978308555172
O	-5.0442303526034475	2.1960490387413794	-3.6744742985551726
O	-6.814170742603448	-0.6810776412586206	-5.346964108555173
O	-4.4026770526034475	-3.1515868112586203	-7.002374788555173
O	-5.061572292603447	-4.07772450125862	-10.621762798555173
O	-5.338304382603448	-7.89920440125862	-10.700688258555171
O	-2.623305642603448	2.6397188687413795	-12.938770008555172
O	0.792603877396552	4.47036218874138	-8.969910158555171
O	3.4773134073965526	1.7740774967413793	-9.245522838555171
O	4.357057637396553	-0.6769615912586207	-6.432279958555172
O	6.305000407396553	-3.8851305112586205	-5.775190458555173
O	7.229362917396552	-6.199326411258621	-2.8555698785551726
O	9.959798217396552	-4.66139780125862	-0.7617486143551725
O	11.978830417396551	-5.2220299312586205	2.383049141444827
O	4.923126697396552	-10.824929391258621	5.931828071444827
O	1.1485741973965524	-10.538067791258621	6.452752531444827
O	-2.466598522603448	-11.64751519125862	1.3449118114448273
O	-0.7572386646034478	-11.133780191258621	-1.9729959985551726
O	2.8298888473965524	-11.01516189125862	-0.6349709365551726
O	2.420498007396552	-14.40770919125862	1.0317147414448276
O	-1.2781901386034478	-6.3184004212586204	10.443973791444828
O	1.3349869673965524	-3.8558265612586204	9.214019091444829
O	1.1921672873965523	-2.1537451312586207	12.624750891444828
O	4.953793307396552	-5.9978350912586205	11.420723491444829
O	6.495641837396552	-2.5348862812586206	11.897314891444829
O	9.214051917396553	-7.24602887125862	7.175449281444828
O	8.117707787396553	-7.794385551258621	3.554207331444827
O	5.456493617396553	-5.370384921258621	2.271033211444827
O	4.421817487396552	-3.172908781258621	-0.6603354185551725
O	6.974504307396552	-0.5614669012586206	-1.5372403555551726
O	4.580363607396552	2.3154049987413794	-1.2705533385551724
O	3.7143822673965525	1.5588879367413795	2.3749870114448273
O	7.4378693373965525	0.8450954217413793	3.1196513214448274
O	8.371118937396552	4.277425728741379	1.6876724914448273
O	5.644298287396552	5.905066208741379	3.7511511814448273
O	6.848881047396553	4.37090135874138	7.035626451444827
O	1.9662171573965521	-3.991943721258621	-9.953438138555171
O	-0.18750481260344776	-0.8531828812586206	-10.139059368555172
O	-3.0710554326034476	0.7112924837413794	-8.162799648555172
O	-5.941536382603448	1.8502826177413794	-10.456356088555172
O	2.0011842673965523	12.99132510874138	0.7598529414448274
O	5.163098337396552	10.92516544874138	1.1948002514448277
O	7.972918157396553	13.512796008741379	1.2756609614448273
O	4.658048667396552	15.755291908741379	4.715086201444827
