72

O	0.7450972794736843	0.886977505385965	-0.39368585091228137
O	1.8004176094736843	-0.15765070361403505	-0.5568678449122814
O	2.960301909473684	0.670678382385965	-0.30431881691228135
O	3.0141899994736843	1.305241283385965	0.7964157240877185
O	1.3350235094736844	-1.149333395614035	0.44560542208771864
O	0.8302002994736843	-2.328730365614035	-0.22376346271228137
O	0.44456948947368435	-0.398540325614035	1.4809450550877186
O	1.5505178094736842	-3.482127605614035	-0.7525030179122814
O	-0.9007691225263156	-1.069991805614035	1.6278118150877185
O	0.41336469347368443	0.9961043303859649	0.9864536550877185
O	-1.7502489205263156	-1.088033635614035	0.5870717570877186
O	-1.7170934205263155	-1.438905365614035	2.830135525087719
O	2.0041398194736844	-3.622897895614035	-1.9382222749122815
O	1.0196304594736845	-4.7529707856140355	-0.37243427391228134
O	3.0788363594736845	1.610951064385965	-1.3661644749122814
O	7.058578329473685	10.119888004385965	9.747688225087717
O	4.205223319473684	7.650328204385964	9.512111965087717
O	3.4944675994736842	3.929570424385965	9.803271375087718
O	-1.2330614835263156	0.623587527385965	9.108698145087718
O	-4.967419030526315	0.28468049938596496	9.752294395087718
O	-7.056693450526316	2.427267804385965	9.680191255087719
O	-4.512495550526316	5.149635894385964	8.923064795087718
O	9.142416279473686	4.763852954385965	10.727800115087717
O	11.864895939473683	-0.220342099614035	9.437333305087718
O	8.085699609473686	-0.40337952961403506	8.844860235087719
O	8.478818969473686	0.266640441385965	5.117120555087719
O	7.021241629473685	2.770030274385965	2.720245975087719
O	10.118936439473686	3.392665904385965	0.6179243240877186
O	12.157479539473684	1.641197974385965	-2.0412801249122814
O	11.176985339473685	3.406698714385965	4.771338035087719
O	5.468648709473684	11.792675584385965	5.653977035087719
O	1.7264684094736844	11.535518684385965	6.317855125087719
O	0.8032762894736845	7.971574974385964	5.466770295087719
O	-0.8600953295263156	5.957990894385965	2.701970945087719
O	2.2460274494736843	6.425485934385964	0.5779603660877186
O	1.6710793294736845	5.666254834385964	-3.066211754912281
O	2.7135049694736844	8.370887344385965	-5.617860424912281
O	5.135700429473684	6.674305914385965	-8.031034574912281
O	7.659523449473684	7.754746184385964	-10.603447484912282
O	-6.9115720005263155	3.367594794385965	-5.037461954912281
O	-6.478162020526316	0.524912157385965	-7.510439574912281
O	-5.818392200526316	-3.220005685614035	-7.574051494912281
O	-8.981015770526316	-5.124243455614035	-6.629015774912281
O	-2.7687023105263155	-14.597169215614036	-5.925670644912281
O	-1.2343687195263155	-11.602090515614035	-4.237765084912281
O	1.6871188894736844	-10.475023015614035	-2.0491972449122815
O	6.647874139473684	-9.014262505614035	-3.326636194912281
O	5.180432939473684	-5.665144275614035	-4.270072274912281
O	3.4302320094736842	-3.432753105614035	-6.731002414912282
O	0.4759045184736844	-5.747292385614036	-7.421020374912281
O	2.792577149473684	-8.585109275614036	-8.444093294912282
O	4.841328519473684	-6.170665325614036	-10.573158484912282
O	1.3211429194736843	-10.665175815614035	4.211451495087719
O	-2.2526870905263157	-9.403582565614036	3.8938275950877186
O	-3.0500025605263157	-11.157907915614036	7.164245265087719
O	-2.0600323305263153	-14.454282515614036	5.4746869450877185
O	-3.9373673105263154	-13.513056115614035	2.2654483150877187
O	-5.632568860526316	-9.411983415614035	-5.162117034912281
O	-4.914521140526316	-6.2426411256140355	-3.188362264912281
O	-5.472274560526316	-2.466978345614035	-3.1220883249122813
O	-9.086995650526315	-1.4021796956140349	-3.120548734912281
O	-8.693137540526315	0.7107460943859649	0.020730111087718633
O	-7.415524660526316	-2.239290845614035	2.108475175087719
O	-10.107002100526316	-4.538518815614036	0.4873073690877186
O	-11.473310660526316	-1.8657211556140352	4.948221205087719
O	-10.234948520526316	-1.6946026456140348	-10.092950564912282
O	-5.444262430526315	3.731955884385965	-10.782950584912282
O	-3.056570050526316	5.340871764385964	-8.290389344912283
O	-3.1171398305263156	7.819395934385964	-5.406621764912281
O	-1.6299110305263156	8.186405594385965	-1.9357193149122813
O	0.05072899147368437	11.518133884385964	-1.3030931849122813
O	1.7439220894736844	13.537900284385964	1.4373903550877185
