15

O	8.754961024659126	34.15276409997119	-2.092063246979851
O	9.092744808982575	32.67337873146429	-2.1819780391226486
O	8.503314267756064	32.4055373033602	-3.5005262864830855
O	7.881899449089874	33.174211431672816	-4.271616910235287
O	8.237120387736583	32.243235461607405	-1.0059818244959287
O	8.428869721367949	31.037780211642914	-0.26938272756512033
O	6.976301369585633	32.94133553943555	-1.3484299659868064
O	9.545179638575007	30.20888010569417	0.19270281175572468
O	6.031587701894512	33.55846815243867	-0.3938055122014742
O	7.338042924884901	34.161063409913645	-2.194253983107801
O	6.437329150073564	34.827717280412394	0.2758098555513717
O	5.570683853964816	32.61307090194717	0.71115331395337
O	9.711817383194218	28.98375756236483	-0.16614550475087708
O	10.067515640971607	30.177385456370576	1.5229160729881497
O	9.225641585138666	31.4059466581975	-4.100516582039407
