70

O	-2.454139738964912	0.45328457618070167	0.8330042938947366
O	-2.2910155689649123	1.3587591261807017	1.8982581628947366
O	-3.5890799989649125	1.5914013241807017	2.5480474228947365
O	-1.3306670279649122	0.8461361391807016	2.8606802728947365
O	-0.8250705859649123	-0.42668040881929825	2.444969012894737
O	-1.734551416964912	-1.4746166988192981	2.7279331728947365
O	0.4196835910350878	-0.9069736288192983	2.0548224228947367
O	1.6959796010350876	-0.5259102988192984	2.8137637328947362
O	-0.8419925829649122	-2.440955338819298	2.6245548728947363
O	-2.518511648964912	-1.5026215788192983	3.7666580228947364
O	0.07738651103508776	-2.137926478819298	1.6697186028947364
O	-4.386387658964912	0.5917840054807016	2.5452106328947366
O	-4.1763573389649125	2.673714181180702	1.8542340328947367
O	4.276905801035088	0.09694029518070169	12.826942182894737
O	3.6984864110350877	-3.014564608819298	10.710616382894738
O	5.402331211035088	-4.708539378819299	5.406313682894736
O	8.222729831035087	-4.787635488819299	2.8408391528947363
O	10.292248421035087	-2.6850329488192983	2.2903773828947367
O	8.931720521035087	-0.3961627988192983	5.022620222894736
O	12.149340321035087	2.619089391180702	4.660023522894736
O	9.996246621035088	3.3309358711807016	7.734165432894737
O	-3.5765834889649124	-7.370431318819299	14.647494482894738
O	-1.4610405119649124	-6.681226598819299	11.548202482894737
O	-3.9779660589649124	-4.108764968819298	10.285117722894737
O	-3.742553918964912	-0.5518309488192984	9.008804902894738
O	-6.993609108964912	0.7030431129807017	10.564950682894738
O	5.134093981035088	5.413638071180701	11.236794082894738
O	4.014921341035088	3.0941780011807016	8.471603022894737
O	2.662534341035088	3.256378311180702	4.922105272894736
O	-0.7214364509649123	4.268791581180701	6.270096562894737
O	-3.003321588964912	5.877419161180701	3.6937330228947363
O	-4.489100118964912	9.282090961180701	4.420741712894737
O	-8.283202418964912	8.881340591180702	4.163335342894737
O	4.951107471035088	9.252054351180702	-0.2438567391052634
O	2.6218254710350877	9.255315631180702	-3.2586158071052633
O	0.7240800210350877	6.207994781180702	-4.585113497105263
O	-2.138899365964912	5.155900561180701	-6.820579787105263
O	-3.8515590989649127	2.0383128311807015	-8.131988307105262
O	-1.7322381509649123	0.41448668518070164	-10.835834317105263
O	-8.565082198964912	-8.613011018819298	-10.459168617105263
O	-7.497824678964912	-7.319162348819298	-7.0847507571052635
O	-7.664237788964912	-8.048396218819297	-3.3501771771052637
O	-9.897913368964913	-3.3507228088192984	0.3109478488947366
O	-9.645249618964913	0.10871996018070162	-1.1463261571052636
O	-8.831013888964913	-0.9988193688192982	-4.691917147105263
O	-12.023490678964913	-3.0835558088192982	-4.912712637105264
O	-14.016159878964913	-0.22246223681929833	-3.3679990971052636
O	-3.3021132089649123	-11.629431178819297	-0.5589088271052635
O	-0.6818387249649123	-9.939495678819299	-2.7534046271052635
O	1.4426927810350876	-13.058608978819297	-2.4785667171052634
O	-1.4480648949649122	-14.941539378819298	-4.144884777105264
O	-1.999464073964912	-12.132042478819297	-6.704324677105263
O	-4.421607288964912	-4.380303998819299	-9.698655917105263
O	-2.5577814389649123	-2.989059468819298	-6.654294467105264
O	-0.9260911569649123	0.13023522918070163	-5.175568447105263
O	1.853022811035088	1.5359887851807017	-7.388888927105263
O	4.399917601035088	1.5027143281807018	-4.5771671171052635
O	4.041131031035088	-2.2623542188192984	-4.076344097105263
O	3.929385041035088	-2.8612248588192983	-7.864244877105263
O	7.220423861035088	-0.9422202788192983	-8.214398947105263
O	8.735938071035086	-2.937728148819298	-5.3678405371052635
O	-2.042919623964912	5.311760661180701	-11.896501517105262
O	-3.9228632289649124	9.478663591180702	-6.280658697105263
O	-3.3735590289649124	9.064513861180702	-2.5240527271052637
O	-0.5819401039649122	9.574266261180702	0.030724243894736603
O	0.8256305610350878	7.700656151180701	3.0397332528947363
O	1.2100358910350877	9.855159191180702	6.1445516328947365
O	2.5288838010350876	9.739669471180703	9.708205782894737
O	14.830090821035087	0.6748746970807017	-0.6312556471052634
O	13.275001121035087	0.18919515818070165	-4.080038427105263
