78

O	-0.7238177440898039	1.7355289958823525	2.3328148832980395
O	1.9201065039101963	-0.3455302151176475	-1.2900767967019606
O	2.0062353639101964	2.2461962358823526	-1.2903988867019607
O	-0.507691709989804	3.4072130958823523	2.2811908532980394
O	0.43964043391019614	0.24194613688235256	0.8592417012980395
O	-0.3336405340898039	2.1499361858823525	-0.37581947170196056
O	-2.1525920560898038	2.5694380758823527	2.9730071932980393
O	2.447865553910196	0.09497106388235255	2.6580778132980396
O	2.695021773910196	-0.2600515251176474	1.2556121332980394
O	1.159975413910196	4.097678415882353	-2.4580496567019607
O	3.639148073910196	-1.3338190941176475	1.4245931132980394
O	-0.4803260211898039	4.450180815882352	-0.5111800297019605
O	1.4848043639101962	-0.9580232341176474	3.2450625732980396
O	0.2194540629101961	1.9909997458823527	3.5883469832980395
O	3.202040773910196	-2.0698449541176474	2.6435508432980392
O	1.7847414339101961	-2.0740039441176474	2.4996676632980392
O	-1.2964509990898039	2.0360437458823526	0.6948360012980395
O	1.7286079239101961	-1.3515169841176475	-0.3961490397019606
O	1.4985304939101964	0.9903574568823525	-1.1119819067019605
O	0.4968418339101962	1.1020126518823525	-0.25718932970196057
O	1.423650463910196	-0.6796113141176475	0.7281789292980394
O	1.062871023910196	3.1350655358823523	-1.6954976467019607
O	0.15064535491019615	3.3889641358823526	-0.6524826777019606
O	2.4969515239101963	-2.5305023941176477	-0.5473148817019606
O	3.6892566839101963	-2.2710360941176475	-1.0763848467019606
O	1.6122691039101964	-3.3990729041176477	-1.0831416267019607
O	2.963640293910196	-3.547650074117648	0.21280187729803943
O	8.855925833910195	7.223136115882353	-7.201822746701961
O	9.368016673910196	5.160373295882352	-4.047568726701961
O	11.128884723910195	1.9720068058823528	-3.0636383367019606
O	8.299190043910196	-0.38269394411764746	-2.5817781367019608
O	8.510221313910195	-4.005021434117648	-3.6476314067019606
O	8.009266913910196	-5.170986924117647	-6.3673640867019605
O	7.319069083910196	-1.7516272041176477	-7.860632306701961
O	10.994733423910196	10.606410955882353	-2.9318266967019606
O	10.524875723910196	11.384294655882353	2.8208068732980394
O	9.426671813910195	7.881683135882352	1.7125311132980394
O	5.816993023910197	8.994910595882354	1.7580403032980394
O	3.0065130439101964	8.717235645882353	-0.7344487957019605
O	1.238895963910196	11.985098555882354	0.05720402309803942
O	5.039905993910196	6.673897845882353	-11.26410506670196
O	4.380768313910196	4.542877755882353	-8.18658892670196
O	1.6334933139101961	2.3232207058823526	-6.599953176701961
O	-0.08299647808980387	5.719586445882353	-5.616682136701961
O	-3.726064506089804	5.347952795882352	-4.662050706701961
O	-6.359710176089804	7.565158745882353	-6.501218836701961
O	-8.269732776089803	9.391418235882353	-3.7272835167019607
O	-6.505485036089804	-3.2520450041176474	-5.24029560670196
O	-8.630140616089804	-3.6950708341176473	-2.1605265167019607
O	-8.343574946089804	-4.499801234117648	1.5240149132980394
O	-7.664100886089804	-8.178415254117647	2.0203378632980393
O	-5.297992366089804	-6.135447784117647	12.94511753329804
O	-3.782658016089804	-3.6927893541176475	10.56142413329804
O	-1.3139399400898037	-0.7689171641176474	10.22832543329804
O	-2.083726496089804	4.497920605882353	10.822150033298039
O	-3.744822876089804	4.566759145882353	7.458034553298039
O	-6.788954676089804	3.9489200658823527	5.110373733298039
O	-7.362445536089804	0.30530886588235256	6.217391433298039
O	-7.738715796089804	1.4540582038823526	9.842909573298039
O	4.832455033910196	-1.7862153341176477	8.971958633298039
O	3.926309103910196	-4.501488594117648	6.55749893329804
O	7.177522983910197	-6.208180114117647	7.707543053298039
O	6.050183023910196	-6.355683604117647	11.41828203329804
O	2.5445046239101963	-7.398048444117648	10.321350033298039
O	-5.442503516089804	-6.855739734117647	7.008674333298039
O	-3.6782820560898037	-5.0231269641176475	4.07251710329804
O	-3.872506706089804	-4.064145814117648	0.4086883172980394
O	-4.479404656089804	-7.0843065541176475	-1.8385780467019606
O	-1.5535795260898038	-6.296466434117647	-4.08061434670196
O	0.8621850239101961	-6.322716734117647	-1.1010274167019605
O	-0.8962018310898039	-9.594225144117647	0.17326543029803942
O	-0.5514707745098039	-11.318366544117646	-3.2080148167019606
O	3.079443953910196	-10.318154744117647	-3.3312041467019604
O	-11.508149176089805	-7.771795844117647	-1.1738017867019606
O	-9.474684846089804	1.2915887578823526	-5.344067306701961
O	-6.886890986089804	1.9183989358823528	-8.05331608670196
O	-3.286760376089804	3.1158005258823525	-8.324147536701961
O	-2.700533376089804	5.843459335882352	-10.86825216670196
