17

O	6.450652640407549	36.616190858588716	2.4143675754674705
O	6.809590774794843	32.59903574412529	-2.459209276113461
O	5.947567332796029	32.98687603574481	-1.517254106761054
O	6.846123396709835	31.503851453502392	-3.0434406525251383
O	7.953757769630532	33.376579942906005	-2.5388241033465286
O	8.013950068718371	34.339912815894586	-1.6256445619405469
O	8.81372879841463	33.07426545387172	-3.381756932286833
O	6.287692462964066	33.54300286711137	-0.31339432438802073
O	5.500496234208308	34.177042472772065	3.1802025139519774
O	6.265071298103374	33.49594797622268	4.068489847319183
O	7.244444598914052	34.46685157799438	-0.5491016699805616
O	5.682860878624133	33.425029379073365	0.8881718527798229
O	4.903122377084501	35.188142305986815	3.639982757296654
O	6.953400702079341	35.56793684350013	0.17536675873712732
O	6.039417679393463	34.3308271219346	1.8849068728894873
O	6.521352513739821	35.52727816289209	1.5036500196261104
O	6.070365216120284	37.53406402816682	3.0383401075839056
