69

O	3.0199998741428575	2.656009483035714	1.484677850644643
O	2.8179284941428575	1.881978747035714	0.3192542296446429
O	3.983841894142857	1.139346266035714	-0.24784625535535715
O	2.3559962241428574	0.14479691403571404	-1.748471009355357
O	2.2618458741428573	-1.7999395569642858	-0.4855941993553571
O	3.4108018841428573	0.04609754403571409	-0.9647010453553571
O	1.6965551141428574	-1.0458696969642858	-1.528035099355357
O	4.056005504142858	2.164876473035714	2.1494870406446425
O	2.0191186541428574	2.4643162030357137	2.4983338906446426
O	2.6102445241428573	0.9868608495357141	-2.6909733693553575
O	1.8775124541428574	-2.926637776964286	0.05674774064464286
O	3.4672012841428574	-1.279925786964286	-0.9551687313553571
O	1.5088129541428574	1.547831045035714	-0.10293106025535714
O	7.034691004142858	6.806745923035714	-10.823660399355356
O	3.1772768941428575	-1.1363353569642858	-9.646098529355356
O	-0.08205440685714258	-2.609825736964286	-11.009331499355357
O	-2.481989215857143	-1.141405376964286	-12.059677399355357
O	-0.8377779818571426	2.277724653035714	-11.545170099355357
O	-1.0439176428571426	6.8352963030357134	-12.745002099355357
O	15.756130754142859	1.5693841260357142	-6.593079869355357
O	12.088463854142859	0.5198448910357141	-6.892319509355357
O	11.252973354142858	2.1594552730357144	-3.5421479493553574
O	8.605297144142858	4.618888123035714	-2.4024995193553575
O	10.698646454142859	6.484970373035714	0.11599411964464287
O	3.012943724142857	10.522386333035714	-9.599380069355357
O	2.6053524641428574	7.130770183035714	-7.940163659355357
O	0.5741055971428575	5.500392193035714	-5.173453099355357
O	2.7818244541428574	7.1129486930357135	-2.6068128993553574
O	1.2652270541428576	7.214390843035714	0.8484089056446429
O	0.9957072141428575	10.554400703035714	2.6186235606446426
O	2.8681853941428574	10.194442543035715	5.916479710644643
O	-8.201905615857143	6.4353485530357135	-0.20313029245535713
O	-6.845215695857142	3.1964685330357137	1.3284122006446428
O	-6.642200065857142	1.241501945035714	4.563848230644643
O	-5.3244151458571425	-2.048131096964286	5.920225590644643
O	-7.623829565857142	-4.902593946964286	4.9047360906446436
O	0.16258987114285745	-12.251685916964286	8.577543870644643
O	1.5384974041428574	-9.441849216964286	6.491255340644643
O	4.742445714142858	-8.168213776964286	4.873287540644643
O	8.701265754142858	-5.123272556964286	6.758267610644643
O	6.416155754142857	-2.1506191869642857	6.308797160644643
O	3.5965172741428573	0.06411008003571406	7.522232940644643
O	1.0648987441428575	-2.733637606964286	8.065433570644643
O	3.445031994142857	-4.537822066964286	10.432887800644643
O	4.237371054142858	-1.2333799269642858	12.174238500644643
O	0.4880517491428574	-0.47803207696428585	12.561265400644643
O	6.303718334142858	-9.858707216964286	-1.0183878293553572
O	2.6257503941428575	-9.581686216964286	-1.9506028793553571
O	3.211831244142857	-12.177209816964286	-4.6457474593553565
O	4.263411914142858	-14.586616916964287	-1.8583175193553572
O	1.3567214841428576	-13.490357716964287	0.39208873264464295
O	-3.2511406158571425	-8.342106166964285	5.627729490644643
O	-2.548521445857143	-5.630590806964286	2.9913166506446425
O	-3.7215249058571427	-2.2558371869642864	1.6473393406446428
O	-7.428435265857142	-2.3028885369642857	0.5404436716446429
O	-6.6724184858571425	-0.9739443469642859	-2.9376439393553575
O	-4.346663365857142	-3.938078856964286	-3.7167551393553575
O	-6.783314575857142	-6.392592176964286	-2.075478179355357
O	-7.248404285857142	-5.311112726964287	-7.395471019355357
O	-10.502284645857141	-1.220569176964286	6.752148060644643
O	-8.452504065857143	-1.095088296964286	9.943563300644643
O	-7.043647925857142	2.365054263035714	9.289649520644643
O	-7.304186755857142	5.293823673035714	6.8643977706446435
O	-4.619490735857142	6.832856613035714	4.6356180006446435
O	-4.338860685857142	8.498068743035715	1.2162706406446429
O	-1.9807340758571428	8.431819593035714	-1.7634984093553572
O	-0.7916669588571426	11.820584483035713	-2.905320289355357
O	1.2179616741428574	13.516803983035715	-5.646229469355357
O	-9.971941585857142	-2.0842916069642863	-11.187124299355357
