72

O	0.7772139950799999	2.833820894189091	-1.8665175544727273
O	-0.09744878492000014	2.7465452041890908	-0.7865490474727272
O	-1.55888180592	3.9485812341890907	-1.8091790244727273
O	-1.33513248592	2.8212570541890907	-1.2335738594727272
O	-2.12410018492	2.1757241331890906	-0.3235506784727273
O	-2.07860501492	0.47761806318909084	1.3034697255272727
O	0.34644017707999986	2.634121324189091	0.4759291855272727
O	1.30396348508	0.5654769461890908	-2.181697844472727
O	-0.5820752761200002	2.476105284189091	-4.305595084472727
O	-0.6372195426200001	2.158709457189091	1.3704674255272726
O	0.4719281650799998	0.7796218231890909	-4.743777214472727
O	-1.68057636492	1.493204520289091	0.7340411855272728
O	1.5242711350799998	2.166341145189091	1.2780280155272727
O	1.2303648650799999	2.922748024189091	2.558303775527273
O	-0.2827865599200002	2.709358634189091	2.6888447055272726
O	0.6280088050799999	1.667992594189091	-2.6632487444727273
O	0.6486074150799999	2.059676698189091	-4.054519334472727
O	5.26311786508	12.794128894189091	0.6244641755272726
O	2.05442780508	11.54432719418909	2.2519304955272723
O	0.7782915450799999	7.236133784189091	5.867256615527272
O	1.8730558150799999	5.16861991418909	8.936557255527273
O	4.64667685508	4.305005084189091	9.695019685527273
O	6.19066145508	6.088930764189091	6.687576325527273
O	10.25600003508	7.774411624189091	4.958692995527272
O	-4.88822367492	15.649437094189091	-2.4926317344727273
O	-3.65772017492	12.77876279418909	-0.30618508647272724
O	-3.1632104449200003	10.52903844418909	-3.3574267244727274
O	-0.30284842892000013	8.46137517418909	-4.667733044472728
O	-0.8826248279200002	9.09891992418909	-8.368107964472728
O	9.80760043508	9.91844183418909	-0.9788891554727273
O	6.820453695079999	7.778298084189091	-0.030670303472727256
O	5.64390994508	4.200623784189091	-0.35829350947272726
O	4.79279375508	4.791380504189091	-3.9651816844727277
O	4.40263423508	1.5780218101890908	-5.944964984472728
O	6.47974964508	1.158505347189091	-9.086094964472727
O	4.05601663508	0.5236668791890908	-11.960390114472727
O	9.18129698508	-5.2201208958109095	-1.2367398124727274
O	5.44082293508	-5.911527025810909	-0.9095471394727273
O	2.66756148508	-8.17661503581091	-2.1539572644727274
O	-1.0547648039200002	-8.771687305810909	-1.6554314144727273
O	-1.6532299149200003	-10.629562605810909	1.6130781555272729
O	-12.73304816492	-8.604362105810909	0.4704237555272728
O	-10.55520542492	-5.629202945810909	-0.18421109047272727
O	-10.648044864920001	-1.8873164758109091	-0.9205217174727273
O	-11.05433526492	0.8081701671890908	-5.505208274472728
O	-7.40331143492	0.04184013418909083	-6.079263484472728
O	-4.69092466492	-2.290884885810909	-7.227492434472728
O	-5.7404165249200005	-5.299149545810909	-5.118728964472727
O	-9.24260625492	-5.268879375810909	-6.609692854472727
O	-7.7423008949200005	-4.833963115810909	-10.086799584472727
O	-10.68377516492	2.326099502189091	3.791765235527272
O	-8.15642817492	0.1262828741890909	5.640049815527273
O	-9.52193371492	1.4930911767890909	8.915407305527273
O	-12.92885956492	0.053307454189090775	7.9154161455272725
O	-11.35060136492	-3.2223602758109093	6.6930939655272725
O	-6.86264637492	-8.52616949581091	1.5363807055272727
O	-4.18299472492	-5.774681735810909	1.5759865855272726
O	-0.46999693832000017	-5.170764155810909	0.9721905855272728
O	1.8373719250799998	-7.2096858958109085	3.1278844755272726
O	3.6893074650799997	-4.212992685810909	4.536111865527272
O	0.49843152507999977	-2.7135711158109093	5.995580505527273
O	-0.6869241449200001	-6.197165315810909	7.191078455527273
O	2.6498392050799997	-6.6234248358109085	9.022662195527273
O	2.33577266508	-3.1542616558109096	10.540558485527272
O	2.0111571650799998	-13.02790120581091	-0.8556695294727272
O	5.29875581508	-9.06306200581091	-5.956814774472727
O	5.84823997508	-5.291833495810909	-6.254792214472728
O	8.15803365508	-2.6010985558109088	-4.894226544472727
O	7.93531005508	0.9537489561890908	-3.5968474744727272
O	10.39732283508	3.358884364189091	-5.1852697944727275
O	11.62573893508	6.950407904189091	-4.946731434472728
O	7.616623585079999	-2.1776177158109093	12.335349285527272
