13

O	10.075747453838751	33.23668014907683	-3.0984760961493976
O	8.916389916017133	33.45490977417551	-2.3286722553197796
O	7.823437552555433	32.46717985658042	-2.5524038374343516
O	6.720852313000004	33.386836056339234	-0.6396982468166751
O	7.565565527910464	31.792431651059776	0.8235928894052235
O	7.163466271870782	32.33419897033905	-1.3001439593475825
O	6.881249186408729	33.009056904978436	0.6769701625262299
O	10.216833336780518	31.949862998765447	-3.383240916765202
O	11.314151741488088	33.4137370715407	-2.3911727309371114
O	5.894990539066351	34.04363822254901	-1.385561301147391
O	7.9340670206839	31.161560265154733	1.9114833846129402
O	6.930459643070743	31.434631259925958	-0.35697119397466126
O	8.921872818975626	34.25219788107701	-1.1670856953580175
