72

O	0.1564950218909088	2.7065511163345457	0.18647363543636375
O	0.6107402878909087	-0.4414904536654545	-2.5936105605636364
O	-1.1076127551090913	3.0000743463345456	0.4997573554363637
O	-0.2033093871090912	-0.6149651936654545	-1.5197973605636363
O	-1.3023425091090912	4.253150156334545	0.6919750924363637
O	-1.9908597321090913	2.2351885683345456	-0.18919300526363625
O	-1.1179243931090912	-1.4456688636654547	-1.5758019805636363
O	-1.6361707621090913	1.1373769873345456	-0.8427219655636362
O	-2.538828592109091	0.36991055033454556	-1.196443187563636
O	-0.45324678310909117	0.49004097333454555	-0.6343607475636363
O	0.46615722789090874	1.4100291823345454	-0.13556120056363627
O	0.8793434278909089	3.2283018463345456	1.3099556594363637
O	0.8993454678909087	2.291176376334546	2.333543819436364
O	1.0481772478909088	0.9556358173345456	2.0506098294363637
O	0.5899074178909087	2.8721180463345455	3.584003109436364
O	-0.6853038405090912	3.2179509063345453	3.538731669436364
O	0.4283027378909088	1.7583792203345456	4.512701339436363
O	5.250718157890909	12.445985576334547	-3.1236200305636364
O	2.0251984678909087	10.936283696334545	-4.459372720563636
O	0.7054928578909088	5.982386326334545	-7.173510800563637
O	1.7499654778909086	3.3722620563345456	-9.803618220563635
O	4.517781047890908	2.3794633563345453	-10.415698380563637
O	6.086352767890909	4.696024526334545	-7.808105060563636
O	10.174865777890908	6.677170346334545	-6.492039980563637
O	-4.867368502109091	15.854044276334546	-0.46629790756363626
O	-3.662659762109091	12.619574276334546	-2.0914151505636362
O	-3.1230420821090914	10.990961206334546	1.3241310594363638
O	-0.24404282610909117	9.193953536334545	2.9616646394363637
O	-0.7827682561090912	10.506182736334546	6.478580999436363
O	9.813526977890909	9.911136186334547	-1.0690941755636363
O	6.8221680678909085	7.6389259263345455	-1.5499591605636365
O	5.591763347890909	4.187662876334546	-0.5314481445636363
O	4.877443797890908	5.466402476334546	2.9191459294363638
O	4.504975487890909	2.6828796663345456	5.486174429436363
O	6.616619967890909	2.8703550063345453	8.615269269436364
O	4.2196705478909085	2.7981866863345455	11.580289419436363
O	9.209688137890907	-4.900568713665454	2.076065509436364
O	5.471800347890909	-5.649019293665454	1.9442871494363638
O	2.702143127890909	-7.601818653665454	3.634338209436364
O	-1.020539658109091	-8.300906763665454	3.312954019436364
O	-1.656191732109091	-10.742481223665454	0.4617047424363637
O	-12.73589622210909	-8.520830903665454	1.3660273294363638
O	-10.539688562109092	-5.475252703665454	1.4042347194363636
O	-10.62169312210909	-1.6610642736654544	1.4195003494363636
O	-10.969252222109091	1.8525601713345456	5.420351669436363
O	-7.305557312109091	1.2028386079345457	6.079073589436363
O	-4.593512982109091	-0.8878615136654546	7.628356089436363
O	-5.668244742109091	-4.241423503665455	6.134023859436363
O	-9.148857472109093	-3.909913523665454	7.634118129436364
O	-7.606079192109092	-2.838755763665455	10.953840319436365
O	-10.761896122109093	1.5706591793345455	-4.006062930563636
O	-8.295906962109092	-0.9765359236654545	-5.450620840563636
O	-9.66260695210909	-0.21782310366545454	-8.894938750563636
O	-13.05651732210909	-1.4442929536654545	-7.594940820563637
O	-11.469615022109092	-4.439824673665454	-5.790294500563637
O	-6.887423162109092	-8.685510953665453	0.21835582843636375
O	-4.218123822109091	-6.014263903665455	-0.3911708655636362
O	-0.48505073410909116	-5.279549763665454	0.03376378943636371
O	1.8044088078909089	-7.6860881436654545	-1.7282231205636363
O	3.622383487890909	-4.990757423665455	-3.6962409405636363
O	0.42226845789090883	-3.8026855636654546	-5.380007560563636
O	-0.7816347701090912	-7.429135283665454	-5.879387470563636
O	2.527632827890909	-8.185954623665454	-7.632691860563637
O	2.186730617890909	-5.095150603665454	-9.796582560563635
O	2.0478874478909086	-12.625082423665454	3.2911867594363637
O	5.386840967890909	-7.757078703665455	7.496486829436363
O	5.947896257890909	-4.004826613665454	7.063960959436363
O	8.247835627890908	-1.6307225936654546	5.1857327294363635
O	7.997809487890909	1.6236151083345456	3.2466517394363636
O	10.475812977890907	4.278202496334545	4.301709719436364
O	11.71367577789091	7.750024066334545	3.354620749436364
O	7.4428124078909095	-4.492560283665455	-11.801258580563635
