72

O	1.091104946319298	1.5491392819649121	-0.23941980132456134
O	2.0455842963192983	0.444484014964912	-0.5697204539245613
O	3.2615395363192983	1.195362299964912	-0.4968009049245613
O	3.539481436319298	2.211264018964912	0.21011320107543868
O	1.3909809863192981	-0.5915868110350879	0.2684483220754387
O	1.495427286319298	-1.9741650210350878	-0.09874075092456133
O	0.8406025363192982	0.11388406596491207	1.5991948220754386
O	1.6028871063192982	-2.8109131710350876	-1.3015583879245614
O	-0.5164013956807019	-0.48778480103508803	2.009133352075439
O	0.760502036319298	1.501460918964912	1.1366870320754388
O	-1.373905253680702	0.07414271196491207	2.8497471220754385
O	-0.9778218816807019	-1.889309091035088	1.9095148820754386
O	2.650836116319298	-3.2620327910350877	-1.9008778179245613
O	0.680763806319298	-3.836646341035088	-1.6639856079245614
O	4.047798286319297	1.108798831964912	-1.6567490779245613
O	5.790925016319298	6.379218158964912	10.067080722075438
O	5.365181686319298	2.613017218964912	9.834557122075438
O	0.7855966963192982	-0.9093797710350879	9.289559922075439
O	-2.743218013680702	-1.6555395910350879	10.532711122075439
O	-4.951833643680702	0.27238178096491206	11.128176522075439
O	-2.736905883680702	3.2821511089649125	10.428060022075439
O	-2.3067896736807016	7.936999398964912	11.106534922075438
O	13.795746096319299	-0.690501891035088	7.500221322075438
O	9.984428796319298	-1.102492451035088	7.479297202075438
O	9.739958196319298	0.168425305964912	3.900731042075439
O	7.734861556319299	2.854923528964912	2.1841623020754386
O	10.3802398963193	4.060795918964912	-0.22736630722456133
O	12.037510596319299	2.9121085489649117	-3.4223310079245612
O	12.1286825963193	3.5445398089649123	3.6582049920754387
O	6.144349296319298	11.158561348964913	6.818807802075439
O	2.586818646319298	10.476899888964912	7.9995529620754375
O	1.751404646319298	7.006816998964912	6.702215382075439
O	-0.2110331286807019	5.271938278964912	3.9386377720754386
O	2.4688468563192982	6.407353338964913	1.4839665920754386
O	1.338051006319298	6.114497258964913	-2.0934677679245612
O	1.779721136319298	9.298489458964912	-4.302133007924562
O	3.8540571363192977	8.210783818964911	-7.3171460379245605
O	5.8258614563192985	9.905593798964912	-10.045904847924561
O	-8.166346243680701	7.039754008964913	-2.0854989579245613
O	-7.310458853680702	3.460615938964912	-3.0751176979245614
O	-7.1077512936807015	1.073746690964912	-6.009456517924562
O	-6.278539013680701	-2.5469034710350877	-6.814228107924562
O	-9.110394293680702	-4.8335312710350875	-5.713741567924561
O	-2.3168099436807017	-13.728270951035087	-7.542955147924561
O	-0.7058526686807018	-10.907092851035088	-5.645120227924561
O	2.465488896319298	-9.880801251035088	-3.7830196879245612
O	7.049367476319299	-7.838416651035088	-5.580456097924561
O	5.251922656319298	-4.515405201035088	-5.717297727924562
O	2.970118276319298	-2.087601591035088	-7.425733837924561
O	0.0961357643192981	-4.517293011035088	-8.055568117924562
O	2.371862316319298	-6.955400391035088	-9.892546277924561
O	3.883885396319298	-4.073000471035088	-11.884301377924562
O	3.1538497063192983	-11.076890851035088	2.3340142320754387
O	-0.48591850168070194	-10.043693351035088	2.7942317620754387
O	-0.6239821656807019	-12.366746051035088	5.808727112075438
O	0.2573695533192981	-15.274276051035088	3.4701251320754385
O	-2.185615583680702	-14.020966951035088	0.7961828520754386
O	-5.318425933680702	-8.988198071035088	-5.513312177924561
O	-4.472753463680702	-6.105249591035088	-3.1703125379245614
O	-5.235229973680703	-2.443224921035088	-2.389898727924561
O	-8.868587873680701	-1.7116284110350881	-1.6692076979245614
O	-8.063250993680702	-0.084279013035088	1.6843193420754388
O	-6.336016633680702	-3.1995988610350876	3.0468464620754387
O	-9.0873345236807	-5.440007581035088	1.4826567020754386
O	-9.838111283680702	-3.610132671035088	6.496203852075439
O	-11.108253803680702	-1.026984021035088	-8.328241217924562
O	-6.849547383680703	4.829615068964912	-8.829715507924561
O	-4.1719370336807025	6.230986468964912	-6.513581477924561
O	-3.879229573680702	8.214619638964912	-3.2839248679245614
O	-1.873571013680702	8.185877628964912	-0.07123827692456133
O	-0.31976403888070193	11.502197748964912	0.8460779420754387
O	1.671221076319298	13.220599048964912	3.5909597020754385
