76

O	-0.274508255120339	-1.1094824169322026	-2.0118457703898303
O	0.694594778879661	3.1809220130677973	2.56257696961017
O	-0.444026704120339	2.6776655730677974	2.02232911961017
O	0.8462936888796609	3.772982493067797	3.64030429961017
O	1.824584788879661	3.066988743067798	1.80311972961017
O	1.6013694088796613	2.361214433067797	0.6952847656101699
O	2.743083848879661	3.912858393067798	1.91712484961017
O	-0.503381894920339	1.5583846750677974	1.24293642961017
O	-2.438762691120339	-1.0951140069322027	-0.45315002538983
O	-2.3556430511203392	-2.2102836669322024	0.30751387061016994
O	0.6728975288796609	1.4265026230677975	0.59874888861017
O	-1.5793141211203392	0.8659752380677974	0.7801744876101699
O	-2.577446321120339	-1.3646238569322027	-1.6855799903898299
O	0.7071811988796609	0.6690836650677974	-0.5219292933898301
O	-1.394095311120339	-0.1432552469322026	-0.17915066238983005
O	-0.21669102412033903	-0.36492111693220264	-0.7670366753898301
O	-0.06662772812033901	-2.0910500369322023	-2.61331658038983
O	0.885093698879661	10.854196943067798	-6.53209986038983
O	-2.304149291120339	9.254285123067799	-5.19296301038983
O	-5.469242401120339	7.7769591230677975	-6.715707770389829
O	-4.941081061120339	4.1286562230677974	-5.998151170389829
O	-5.907358391120339	1.4127090240677975	-8.50092005038983
O	-4.331112041120339	0.3992736280677974	-10.84638034038983
O	-1.490220682120339	2.8756431530677977	-10.22703954038983
O	2.2980024588796613	4.9267216930677975	-12.16350384038983
O	-1.724412601120339	14.470022573067798	-2.76723070038983
O	-4.681104671120339	14.395415173067798	2.2498604996101697
O	-4.808319961120339	11.056455773067798	0.39958876561017
O	-1.9965259811203389	9.667558133067798	2.55550878961017
O	1.2994390488796608	7.940309723067797	1.80175248961017
O	3.329995978879661	9.455160953067798	4.62834726961017
O	3.773847228879661	9.192645473067799	8.38573800961017
O	0.963782558879661	12.493844073067798	2.75235823961017
O	6.606119798879661	11.127863773067798	-5.57971174038983
O	5.693795068879661	8.450268843067798	-8.12513724038983
O	3.2929346588796613	6.157189823067797	-6.32099039038983
O	3.2984727488796612	2.7511916530677976	-4.74482109038983
O	5.017171348879661	4.175930303067798	-1.63502797038983
O	6.719752938879661	1.5931700620677973	0.52832112861017
O	10.445518228879662	1.9231229520677973	1.27623566961017
O	10.73765602887966	2.0259934680677976	5.08414922961017
O	13.402994028879661	2.9775484830677974	7.583398679610171
O	8.013923838879661	-6.192000636932203	-4.9064832403898295
O	5.254328868879661	-6.921240086932203	-2.36504108038983
O	4.550811598879661	-8.790133856932203	0.8579184456101699
O	1.684942858879661	-9.487583526932202	3.24531111961017
O	-0.649786135020339	-12.092622626932203	1.75230102961017
O	-8.09582013112034	-9.837935426932201	10.02695256961017
O	-6.594855751120339	-6.789149176932203	8.39718097961017
O	-6.766134781120339	-2.971207586932203	8.282275549610171
O	-4.429190281120339	0.7181345010677974	11.346556859610171
O	-1.3137330371203388	0.12115096306779738	9.30383544961017
O	1.793980938879661	-1.8533028069322024	8.51878859961017
O	0.11536127287966103	-5.268535696932203	8.31694258961017
O	-1.3235702861203391	-4.902076676932203	11.83069115961017
O	2.053282188879661	-3.650556346932203	13.09487705961017
O	-10.670431071120339	-0.01910204693220252	4.3537958496101705
O	-9.787631861120339	-2.6221524969322028	1.71555718961017
O	-13.21463887112034	-2.069817856932203	0.18358573761016994
O	-14.744403571120339	-3.2021829669322024	3.5133016096101697
O	-12.240171071120338	-6.0909516369322025	3.81659444961017
O	-4.656677981120339	-10.069440126932202	5.14774762961017
O	-3.265711161120339	-7.450341776932203	2.7491229996101696
O	-0.36811445312033897	-6.554900196932203	0.40780380861016996
O	0.17364642687966103	-9.151194726932202	-2.32945832038983
O	0.005304700879660951	-6.671999566932203	-5.18474925038983
O	-3.5261957611203387	-5.502850306932203	-4.15739333038983
O	-4.570432781120339	-9.118410326932201	-3.5105141903898303
O	-5.266329531120339	-6.982910366932203	-8.45790889038983
O	4.049708818879661	-13.822033826932202	1.27790759961017
O	9.110740738879661	-4.994345986932203	0.9088191046101699
O	9.387140818879661	-2.7582878469322027	-2.15360712038983
O	7.750463408879661	0.3873584050677974	-3.50259714038983
O	10.126889028879662	3.122061283067797	-4.55120328038983
O	10.234322928879662	6.535326683067797	-6.22854906038983
O	-2.932068661120339	-6.5289014669322025	-13.595936540389829
