72

O	0.6098029294385962	0.7083076486298246	2.6683711166438604
O	0.20358609343859624	-0.5620832170701754	2.9545650566438604
O	0.4005481094385962	-0.7429511170701754	4.21087278664386
O	-0.9054530475614038	-1.0428527770701752	2.2960131066438603
O	-1.2727128705614037	-0.6397993370701752	1.0870887476438604
O	-2.160134380561404	-1.1369144570701755	0.3349893376438604
O	-0.8992784425614038	0.6545101445298247	0.7485967336438604
O	-0.07841297456140384	1.3467960229298246	1.7453987366438604
O	2.0266927994385964	0.8294448315298247	2.94088876664386
O	2.7600657194385962	-0.01768697007017528	2.0288178466438604
O	2.1239804894385963	-0.8743369870701753	1.1248535566438604
O	3.8620806294385965	-0.7024030070701753	2.6978996966438604
O	3.416321739438596	-1.7198263270701752	3.3866177466438603
O	4.693046109438596	-1.3052837070701755	1.6923337366438602
O	-2.4526864505614037	2.138502492929825	0.3677504636438604
O	1.3043736994385964	9.346177742929825	10.631129986643861
O	-1.3897528925614038	6.671694532929825	10.34251478664386
O	-5.3306538205614045	5.319282132929825	6.2901179666438605
O	-7.8614972405614045	6.634112262929825	3.70064882664386
O	-7.621810200561404	9.052856962929825	1.9331646266438602
O	-4.234597440561404	10.013539362929825	3.4295130366438604
O	-1.1370054025614038	13.552677212929826	3.89014776664386
O	0.7749809594385962	0.2740441929298247	16.84790328664386
O	-0.9136665535614038	1.1509420639298247	13.538115386643861
O	2.0571358594385964	-0.19435078407017536	11.536945986643861
O	4.225067099438596	1.1775771459298248	8.77121247664386
O	7.5202788094385955	-0.3424507670701754	9.915706656643861
O	4.311137489438596	11.853135412929825	6.61443098664386
O	2.3283342294385965	8.845267962929825	5.458969176643861
O	2.1201796694385964	6.444239792929825	2.5218735166438604
O	5.258373549438596	4.740991792929825	3.6475088766438604
O	6.933236289438596	2.6774688129298245	0.9295499486438604
O	10.569936299438595	3.3094013829298246	0.17133933144386038
O	12.421171199438596	0.001328317929824685	0.5960586596438604
O	4.017605179438596	6.223672622929825	-7.4489153433561395
O	2.392197649438596	2.8006294429298246	-6.963069423356139
O	2.548006519438596	-0.8201615770701752	-8.07117441335614
O	0.7663245594385962	-4.141193777070175	-7.538259633356139
O	-2.5490874105614036	-4.180891387070175	-9.41320485335614
O	-5.300148180561404	-13.683068687070175	-3.84881224335614
O	-3.858709170561404	-10.961267787070176	-1.6763872333561396
O	-3.0972016405614036	-10.041746587070175	1.9500833266438604
O	1.117733299438596	-11.099952187070175	5.049170166643861
O	2.929656749438596	-8.339683727070176	3.2210081066438603
O	4.900033499438596	-7.113304407070175	0.2543691323438604
O	2.4551077694385963	-8.309135287070175	-2.4499295333561397
O	2.6284967894385964	-11.859863987070176	-1.1450426833561398
O	6.426650189438596	-11.599518487070174	-0.9295930233561395
O	6.608700719438596	-10.222148187070175	-4.515575013356139
O	-7.413384040561404	-7.126551417070175	5.493328066643861
O	-8.317305100561404	-5.0248269070701745	2.4360421066438604
O	-11.811547600561404	-4.647379167070175	3.8642244366438603
O	-12.114440500561404	-8.460460037070176	3.6813698466438605
O	-10.505928080561404	-8.570137157070175	0.2015548534438604
O	-4.262056840561404	-8.132171867070175	-5.785380883356139
O	-3.3066460705614036	-4.839581937070175	-4.047763123356139
O	-1.414657811561404	-1.5561470870701752	-4.615104673356139
O	-2.689858370561404	0.5418909009298247	-7.450643273356139
O	-3.2937517605614035	3.6313624629298245	-5.322553023356139
O	-5.726737230561404	1.7940123229298246	-3.0121458933561396
O	-7.356695880561404	0.0075081669298247	-6.056037173356139
O	-7.9283507005614045	3.4283164729298248	-7.693637193356139
O	-9.380163350561403	4.803700462929825	-4.457766823356139
O	0.9916624694385962	-2.5468706670701753	-12.57358291335614
O	5.923185759438596	-3.6418424370701756	-10.15489841335614
O	7.007032689438596	-0.06917607407017534	-9.36348165335614
O	7.5552866994385965	1.5724379889298246	-5.96213816335614
O	7.135703209438596	4.972231192929825	-4.305659643356139
O	5.891319899438596	6.343879542929825	-0.9857616233561396
O	8.297977239438596	8.798111102929825	0.6405488156438603
O	8.590411769438596	11.153054612929825	3.61187454664386
O	-9.191644520561404	10.388337992929825	-5.383906823356139
