74

O	-0.28546939933333304	0.6894967288157897	2.4749357621
O	2.227783919666667	-2.92554463318421	-2.0674377179
O	2.123803759666667	-2.8821658831842103	-0.7377420919
O	2.383331059666667	-3.9309856331842097	-2.7794651379
O	1.7901133996666667	-1.7787935831842103	-2.7104292879
O	1.293938579666667	-0.8585289831842102	-1.8903964679
O	1.840830289666667	-1.7431488531842103	-3.9504442979
O	1.1388285196666668	-2.23477174318421	-0.041362068899999965
O	-0.891844910133333	-1.9250587631842102	2.9598620621
O	-2.193570270333333	-2.26975610318421	2.8042537121
O	0.9682933896666669	-1.0224552031842102	-0.6120068088999999
O	0.5593158196666669	-2.56438062318421	1.1329561521
O	-0.636015490333333	-1.2065934631842103	3.9643197221000004
O	0.8604796696666669	-0.10557375518421025	0.3727035181
O	-0.192647818333333	-1.5870642931842103	1.7814054421
O	0.09951510766666694	-0.29869875518421024	1.5286839921
O	-0.307833794333333	1.4027310768157897	3.4061972721
O	13.017679029666667	-1.3932549631842104	1.4167601121
O	10.416421729666666	-3.9243267931842105	2.5820345521
O	5.5589953696666665	-3.5938612831842103	5.770405032099999
O	3.931419689666667	-2.06950453318421	8.8922893621
O	4.2416336496666665	0.7148307648157897	9.983668232100001
O	6.788478479666667	1.6655128268157897	7.297149832100001
O	7.712162359666667	5.65720765681579	8.9781919621
O	10.137207629666667	4.79599330681579	6.1500669321
O	14.302344829666668	-6.68278140318421	-0.6841229339
O	11.709070029666666	-11.441684933184211	-2.8202346779
O	9.378042929666666	-9.328906593184211	-0.6535580509
O	7.890791269666666	-7.6616405831842105	-3.7381375779
O	7.238671399666666	-4.07234795318421	-4.7530820079
O	8.004636579666666	-4.47681400318421	-8.4744886379
O	12.428525429666667	4.07236881681579	0.2827610541
O	9.183243119666667	2.1986099968157897	0.7781831831
O	5.4857549096666665	2.66207762681579	0.18097745810000004
O	6.035876359666667	2.06430455681579	-3.5353896179
O	3.115220729666667	3.17833161681579	-5.6763876679
O	3.874341269666667	5.58413095681579	-8.5695089779
O	2.5479769796666667	3.89113194681579	-11.7228409679
O	1.975184019666667	10.115497476815788	0.7557808501000001
O	-1.531724242333333	9.95974763681579	-0.7265711129
O	-3.7563719903333332	6.8554174968157895	-0.8906386949
O	-6.785372700333333	5.32481144681579	-2.5736087079
O	-8.903773770333332	2.1763565368157898	-2.5826638179
O	-11.119630070333333	2.09899534681579	0.5041121201000001
O	-13.811064670333334	-8.633709493184211	-1.9436910079
O	-10.140100750333334	-7.85130531318421	-2.1933612579
O	-6.713199070333333	-9.429922683184211	-2.7802254079
O	-3.203205580333333	-6.85561425318421	-7.425832657899999
O	-4.0641392803333325	-3.29166423318421	-8.308926677899999
O	-7.392942470333333	-3.18158974318421	-6.446675927899999
O	-8.709689230333332	-6.18556550318421	-8.388520527899999
O	-7.395243190333333	-4.67284553318421	-11.638614667899999
O	-3.3288721703333333	-11.68217433318421	2.0422735821
O	-4.434197300333333	-8.63877162318421	4.0739759121
O	-4.055296070333333	-10.76665133318421	7.2142862221
O	-8.882343650333333	-10.259397833184211	4.5979368921
O	-11.412933170333334	-3.46715355318421	-0.15270284159999997
O	-7.810779710333333	-2.22384013318421	0.3425401561
O	-5.571921080333333	0.8590843998157898	0.23635758810000002
O	-6.714401380333333	3.63548802681579	2.5646853721
O	-3.406747820333333	3.96820904681579	4.3443701721
O	-3.4553218903333334	0.26470701831578974	5.4270096721000005
O	-7.1926639303333335	0.5471550858157898	6.3143249521
O	-6.394401690333333	3.55067008681579	8.5425235121
O	-3.531477130333333	1.6671967068157896	10.1529690321
O	-11.564741970333333	6.64465444681579	-1.5748465079
O	-6.157174280333333	8.423472626815789	-6.0474471979
O	-2.483618770333333	7.38984410681579	-6.100425677900001
O	0.781928649666667	8.295261266815789	-4.361714407899999
O	3.767226839666667	6.39639875681579	-2.9220792779
O	7.119326789666667	7.80090122681579	-4.0721613379
O	10.862323229666666	7.38711522681579	-3.5184140779
O	3.095930059666667	6.07479086681579	13.1737916321
O	-0.677064329333333	5.86505369681579	12.6774475321
