15

O	8.666184631957803	34.51355375473763	-2.2394152988477094
O	8.633120321783869	33.01452285838361	-2.2513865613835002
O	8.454658568493535	32.84604156468969	-3.662395764883284
O	7.836977848336992	33.58494052342108	-4.487922234147317
O	7.7764464835838165	32.85311404267391	-1.050298103111468
O	7.930190940390875	31.691414780102257	-0.21279442900814194
O	6.684864053883642	34.036565730931926	-1.0269795530302384
O	8.95813694489902	30.69538404279347	0.12339971258265969
O	6.4480904156392285	34.50250693653259	0.4248803037846238
O	7.397034277181611	35.01757778087354	-1.8560846565332967
O	5.856685463180018	35.625846458964766	0.7818857848378936
O	6.431610461524821	33.67586550153496	1.657127893288774
O	9.246447532969809	29.564955762209006	-0.42190794859268105
O	9.397826796589325	30.415831935395044	1.4503086069322313
O	9.456713087444356	32.07252318623982	-4.2680578141552585
