13

O	9.29336352848949	33.892714325334154	-0.8542861644061177
O	9.125337962027215	34.646676314401226	-2.030962920789285
O	9.763909214699375	33.94902794815832	-3.156499793340402
O	7.713893456569123	34.85729958787878	-2.3044043395616542
O	6.904171705649844	34.24286302883561	-1.296771479976433
O	6.779942546357496	32.84654452132887	-1.497411224981278
O	6.029764189586777	34.710005741229025	-0.32234955794487186
O	5.005702464266774	35.80872284953383	-0.6293527782701158
O	5.721143455605068	32.70647084406985	-0.7225031255395795
O	6.736337581584291	32.27630052072503	-2.66670486624137
O	5.782497351478641	33.57011601487724	0.32590015058410704
O	9.741700120006136	32.67235322064911	-3.0890406785422164
O	11.101986657422433	34.40365756581777	-3.1795970371328477
