69

O	-1.6724608098928566	0.5798030928035715	4.403275813321429
O	-0.5533096488928566	1.3565258816035715	2.375551053321429
O	-0.8422815458928566	-0.39407003239642857	4.540695593321429
O	-1.7841882108928566	1.1152038286035715	3.0361278733214285
O	0.20490578210714339	-1.8658829483964285	1.9696550533214285
O	-1.2378903078928567	1.6512755616035715	5.219492063321429
O	-2.5552867378928568	0.04050764560357145	2.271913613321429
O	-0.6055058698928566	-3.8830026883964286	1.8724370533214287
O	-1.4669822548928566	-0.6699013183964286	1.4793070833214288
O	-0.16404497789285655	-0.6722804583964286	1.7100085633214288
O	-1.5869024258928566	-1.9689776683964286	1.0483201343214286
O	-0.8243369208928566	-2.6780930583964286	1.9783962333214289
O	-3.5080667378928565	-2.4087227583964284	0.7210199483214287
O	-11.643875017892857	-7.85938734839643	1.9003584733214285
O	-8.077648457892856	-9.174434378396429	1.8368427033214285
O	-3.689681507892857	-8.85230272839643	-2.031170256678571
O	-2.6605508378928566	-9.008302928396429	-5.711451806678571
O	-4.162844527892856	-7.960247838396429	-8.08995131667857
O	-7.097486417892856	-6.788468298396429	-5.943741966678571
O	-11.634754517892857	-5.441779548396429	-6.070153046678572
O	-6.056449727892857	-11.29896588839643	10.792206263321429
O	-4.882713397892856	-10.305818888396429	7.300564323321429
O	-4.594726537892857	-6.634837248396428	8.377807373321428
O	-5.785037437892856	-3.3716907783964287	6.8756167133214285
O	-6.5264684478928565	-1.6455997483964286	10.194147133321428
O	-13.840297517892857	-3.2826073883964284	-0.5127877356785713
O	-10.083570997892856	-3.4556747483964285	-0.6016121986785713
O	-7.075336777892857	-1.1967171183964285	-1.2517411066785713
O	-7.604033917892856	0.45054662780357146	2.118764543321429
O	-5.811806147892856	3.7659791316035713	2.4441788833214284
O	-7.789134107892856	6.734689601603572	3.5555248033214286
O	-6.138146317892857	8.178334581603572	6.673551633321429
O	-4.5125857678928565	7.166480411603571	-6.362798706678571
O	-1.1086954348928566	6.152758741603572	-4.941092786678571
O	2.1124697621071435	7.547444711603571	-3.5182156066785715
O	5.499432702107144	6.396140961603571	-2.2372850666785715
O	7.733536782107144	5.381713091603572	-5.1353998166785715
O	15.009161582107145	0.8961516816035715	2.3280425533214286
O	11.407665282107143	0.005672656603571413	2.9407498533214285
O	9.142089082107143	-2.1359646383964286	5.133220213321429
O	6.931107272107143	-1.2129150383964284	9.902183123321429
O	4.391695952107144	0.9384648996035714	8.086731173321429
O	3.452940412107144	4.264556161603572	6.595524363321428
O	6.458577872107144	4.602662941603571	4.243686063321428
O	8.827128782107144	4.308729481603571	7.187250593321429
O	6.6890741521071435	6.776483571603572	9.171003573321428
O	6.627057272107144	9.228358311603571	6.203087183321428
O	7.716065382107143	-8.054902848396429	3.4923847033214286
O	7.421894062107144	-6.828792398396429	-0.1184588256785713
O	8.328754262107143	-10.32947078839643	-1.2570281066785713
O	11.636052282107144	-9.887034888396428	0.6204081193214287
O	12.065679382107144	-6.302450378396429	-0.6842730766785713
O	10.608540782107143	2.2058617016035713	-1.4832162966785711
O	6.933180682107144	1.2095918876035714	-1.7392979766785714
O	3.454515222107144	2.338768931603571	-2.8641325266785715
O	3.3354481221071435	3.2342837216035716	-6.577877546678572
O	0.43446832210714326	0.8965392466035714	-7.308414666678571
O	2.371216782107143	-2.1595650683964287	-6.0625792166785715
O	5.5687291021071434	-0.9219512483964285	-7.8460286566785715
O	2.1670453421071434	-4.119892148396428	-10.571758636678572
O	5.726519862107144	9.857791471603571	-6.229433586678572
O	3.4351741821071435	11.76662121160357	-1.4806529166785714
O	-0.24472477789285674	11.478910211603571	-2.4460396466785714
O	-2.9695410778928566	9.278693431603571	-0.9428656666785714
O	-6.029158817892856	7.292478191603571	-2.0123364866785716
O	-7.670638027892856	3.9431374116035713	-1.3973693866785712
O	-11.332348917892856	4.125983561603571	-0.45758930567857126
O	-14.361647517892857	1.9262836216035715	0.22305562032142867
O	-2.1013177188928567	-4.120337848396428	-14.310136036678571
