15

O	7.165064756217745	33.93160422494878	-0.9502203468698573
O	7.0335401066779735	32.61403965558023	-0.7981355702465767
O	6.381656311192046	32.050559152553475	-1.741444145018834
O	7.014097265639259	32.10409642372122	0.4844929203735776
O	7.389409222572309	32.76850537536751	1.5925359997169048
O	7.798016393280086	32.124957229683936	2.6387156595334
O	7.960462980465291	33.99106854844201	1.4325572915896378
O	7.585820116146797	34.57417820796167	0.17333398380490184
O	7.677433526452025	34.135505641423	-2.330330926159615
O	9.039509967165971	33.59672190608733	-2.3072612680671734
O	9.81943171013669	34.40873728613895	-1.4482314799476936
O	9.642081316295464	33.170741070206965	-3.5657954977415187
O	9.553072436861845	31.860822971617683	-3.6185138855683165
O	11.059093181582986	33.39170731458566	-3.5412208085049866
O	7.9070006290391195	34.84836858220748	2.4960065752790275
