75

O	-1.1572043074333334	-1.3170464559833335	-1.557978725321667
O	0.8299768155666667	-0.5545924069833335	-0.7084652333216671
O	-3.2406005244333334	-0.4603052389833334	-1.223846300321667
O	0.6534805755666666	1.4784093140166665	-1.9519351353216672
O	-0.2576880244333333	-1.5352940459833335	-0.7014996613216671
O	-2.426249734433333	1.0132331490166666	-4.448719155321667
O	0.7422967255666666	-0.07900737298333343	-2.0186215553216673
O	-0.7358010674333334	1.6419149540166667	-1.4994571563216672
O	-3.1600697644333335	-1.5983979459833335	-2.981098865321667
O	-0.6423843024333333	-0.33551880398333345	-2.4671098853216673
O	-3.5108757144333333	2.1093410740166663	-2.871565245321667
O	-1.5512261344333333	0.7910101160166666	-2.316510675321667
O	1.7518415855666667	-0.17628019798333344	0.3127242096783329
O	-2.6442166644333334	-1.5367914159833334	-1.656182855321667
O	-2.323108154433333	1.4631303440166665	-3.265058275321667
O	8.267335165566667	6.666247544016667	-8.480936795321668
O	8.137518895566666	2.8760433640166667	-8.148693385321668
O	8.885089835566667	-0.8699930859833334	-3.756464985321667
O	10.979334535566666	-1.7390056259833333	-0.7029109133216671
O	12.211925935566667	0.11731299301666656	1.3085970446783328
O	10.956949135566667	3.2177394840166667	-0.5144030054216671
O	11.506972035566667	7.896911224016667	-0.930334160321667
O	3.5187224255666667	-0.12933576898333343	-15.703603245321668
O	4.582749785566667	-0.6804697049833335	-12.080754945321667
O	1.2231273655666668	0.5774225680166666	-10.805016845321667
O	0.15234015556666658	3.1656556140166665	-8.262501355321668
O	-2.8951699044333337	4.469432494016667	-10.108164335321668
O	-6.434994764433333	3.3957999040166666	-10.861086345321668
O	0.3452359255666666	4.035461744016667	-12.869109345321668
O	5.069969215566667	11.443652894016667	-7.736877565321667
O	7.196530625566666	10.652816594016667	-4.673922305321668
O	6.170459485566667	7.165157404016667	-3.638923055321667
O	3.992555695566667	5.329598284016667	-1.0723068203216672
O	0.9220076355666664	6.586171424016666	-2.9070448453216673
O	-2.2471046304333333	6.202115754016667	-0.8449780213216671
O	-4.4274232044333335	9.396716654016666	-0.5201229109216671
O	-7.899976644433333	8.359724164016667	-1.7376379653216671
O	-11.058484984433333	10.147873024016667	-2.7969869953216673
O	0.44822871556666666	6.742408014016666	8.326654904678332
O	-0.7623440974333333	3.1901006440166664	7.598542544678333
O	-3.643719814433333	0.8068515270166665	8.171716964678332
O	-4.680662224433333	-2.7755886359833335	7.443380634678332
O	-2.865834304433333	-5.161718555983334	9.769594854678333
O	-6.607090454433333	-13.808136505983333	3.438936054678333
O	-5.200981334433333	-10.932474705983333	1.4701065046783328
O	-4.2782998444333336	-9.785358805983334	-2.057139105321667
O	-7.187234034433333	-7.486541495983333	-5.883631715321668
O	-6.761581314433333	-4.241183585983333	-3.967999225321667
O	-7.876645354433333	-1.9622067359833335	-1.227277847321667
O	-7.702874484433333	-4.525886945983333	1.630308044678333
O	-10.063699074433334	-6.855579935983333	-0.19732449132166713
O	-12.372326664433333	-3.9252220459833334	-0.980135179321667
O	-12.295945764433332	-2.7941169159833334	2.6928362746783328
O	1.4160746755666664	-10.915351105983333	-4.451960395321667
O	2.8651896755666666	-10.084767905983334	-1.0378278583216671
O	5.784761845566667	-12.385116305983333	-1.834166595321667
O	3.2505096755666667	-15.237724605983333	-2.152076595321667
O	1.3653870455666668	-14.100327205983334	0.988479294678333
O	-3.7746803344333335	-9.186484655983334	5.941768194678334
O	-1.7307799394333334	-6.2561303059833335	4.558422884678333
O	-0.7177561904333334	-2.6253269859833335	5.183016004678333
O	0.9730461555666665	-2.0263366659833335	8.530590394678333
O	3.999338285566667	-0.3537537469833334	6.944791854678332
O	4.807571615566667	-3.4271649459833333	4.798995124678333
O	4.020315355566667	-5.765571045983333	7.742224504678333
O	9.081796435566666	-3.9506509759833337	7.170071844678333
O	-4.774248674433333	-1.4420023759833334	12.578183854678333
O	-8.364274294433333	1.3197824940166665	9.274883164678332
O	-6.408207504433333	4.557591314016666	8.816323724678332
O	-4.914405644433334	6.025319344016666	5.628031964678334
O	-1.8866154084333333	8.085433704016666	4.593466514678333
O	0.6287702955666667	8.113909544016668	1.7510158446783328
O	1.1122729955666666	11.530022894016666	0.1560701886783329
O	3.216706625566667	13.328490294016667	-2.4608089253216674
O	12.744567635566668	0.027764990016666546	8.896118894678333
