15

O	8.468481075349779	34.084813324501475	-1.8800816743831885
O	8.628184394182432	32.62388783567201	-2.147979086012877
O	8.349325723474035	32.63649928556528	-3.5683031577465667
O	7.2407514416603345	33.124194880540614	-3.95612605503701
O	7.643982536365372	32.07775262239006	-1.1794431223751016
O	8.334053561373336	31.40215793589188	-0.10182900305494036
O	6.6132230555528615	33.20256553750341	-0.861862345148151
O	8.865373911241127	30.044736050788984	-0.03976019168087053
O	6.493645497265326	33.42445440428934	0.6277078796065
O	7.092165237864185	34.36316982071071	-1.6455340138209846
O	7.5467890155997415	33.898136406297226	1.3144359145153204
O	5.30763142979578	33.58953025226838	1.5300301469054824
O	10.045888228298223	29.670331580465295	-0.35237272941506365
O	8.50761058774499	29.308164662882216	1.1310532057426341
O	9.398529901559966	33.33961552682515	-4.224410982520318
