15

O	7.034203148604497	33.82156210788765	-1.3865625141863867
O	7.202669900716023	32.516735911052756	-1.0262021524886151
O	6.625932619905691	31.80359786387855	-1.9254377056397425
O	7.15115925462132	32.211611616178516	0.31508218535993304
O	7.48745315530573	33.06323715059418	1.274493630133801
O	7.639940966873331	32.82831883461843	2.508128403317535
O	7.319964351841223	34.407435791871066	0.967337866358259
O	6.881079020877028	34.68323276848739	-0.4030671033953801
O	7.688136715479015	34.054324881172455	-2.6572746656347883
O	9.114000179862224	33.8866595149158	-2.495586082005122
O	9.687454447243516	33.45872933465183	-1.2940740874387389
O	9.704922212052624	33.179902096530064	-3.6279502189396213
O	9.477930766899453	31.896254464079846	-3.533571238112903
O	11.134547273938532	33.28479329556325	-3.526452996869568
O	5.890809399202334	35.58602885277574	2.120068593343649
