69

O	-2.5128392597499993	1.104735650071428	3.822337544142857
O	-1.9404277407499992	1.272328206071428	1.4503391241428572
O	-1.3475364957499993	1.5287471810714282	4.156052544142857
O	-2.6150381897499995	0.5462718030714281	2.4614450341428573
O	1.0823728602500007	0.5601360605714281	2.428248574142857
O	-3.4298651097499997	2.178347982071428	3.896245294142857
O	-1.9724922417499995	-0.8269793879285718	2.530160524142857
O	2.3369785302500006	-0.749418727928572	3.6206373241428573
O	-0.5774225907499994	-0.641126607928572	1.9607785441428571
O	0.05900563025000061	0.478570216071428	1.6608201741428572
O	0.5386889802500006	-1.374394927928572	2.328513984142857
O	1.2144426102500006	-0.505710357928572	3.182102514142857
O	0.015461990250000612	-3.1975047879285716	2.9397703841428573
O	0.1729302902500005	-10.889565907928572	9.078733714142857
O	3.0373364602500006	-8.458401267928572	8.498509454142857
O	6.055739780250001	-6.768119147928572	3.7641557241428574
O	7.713355220250001	-7.818125357928572	0.4885472731428572
O	6.784743490250001	-9.900806307928573	-1.4647317858571427
O	3.763409760250001	-10.823056707928572	0.6841309351428572
O	0.4522051902500006	-14.129397207928573	1.4096066741428572
O	3.2338523002500006	-2.984867607928572	16.171155044142857
O	3.988756650250001	-3.484456657928572	12.465180444142856
O	0.8067848602500007	-1.5676793179285717	11.497265144142856
O	-2.0394941417499997	-2.257830127928572	9.097775304142857
O	-4.763174579749999	-0.6593482479285719	11.228724044142856
O	-3.989510609749999	-12.448188307928572	5.636637594142857
O	-1.9651933037499993	-9.518234107928572	4.428358834142856
O	-2.1550584527499996	-6.720508077928572	1.8377607041428572
O	-4.728451969749999	-4.940872777928572	3.980749074142857
O	-6.650618979749999	-2.283551947928572	2.088297064142857
O	-10.390941559749999	-2.4020077479285717	2.219851954142857
O	-11.64208996975	0.947200571071428	3.5453146241428573
O	-6.316772619749999	-4.604108137928572	-7.154237325857143
O	-4.20529467975	-1.4595601179285718	-6.611454505857143
O	-4.16460400975	2.288220032071428	-7.159767645857143
O	-1.9087157957499994	5.3047982820714275	-6.659589985857143
O	0.8512287502500004	5.336449122071428	-9.269455485857144
O	6.014672280250001	13.555667192071429	-3.3957835558571428
O	4.793046830250001	10.680801992071428	-1.3009455458571428
O	4.814114910250001	9.291049062071428	2.246590974142857
O	1.6134173802500007	10.189313912071428	6.4199794141428566
O	-0.8960837297499994	7.914805742071428	4.735898204142857
O	-3.67365723975	7.4296741920714275	2.2366652641428573
O	-1.7997795637499994	8.786228742071428	-0.8269678858571428
O	-1.2223610447499993	12.079045192071428	0.9514700031428571
O	-4.87058084975	12.113680992071428	2.089924524142857
O	-6.075584609749999	11.337525292071428	-1.4838429458571427
O	9.439855330250001	5.470972922071428	4.192259354142857
O	9.30913253025	3.8008089920714276	0.7542665001428572
O	12.959518230250001	2.872389062071428	1.197266986142857
O	13.69515513025	6.620746572071428	1.4474872741428573
O	11.32972753025	7.426585242071428	-1.4664814158571429
O	3.8441579102500008	8.498428792071428	-5.702242245857144
O	2.9200461102500013	5.095711572071428	-4.243271795857143
O	0.5957720702500007	2.077864472071428	-4.5802272158571435
O	0.8533926102500005	0.394134141071428	-7.998170605857144
O	1.5497440802500007	-3.0401647179285716	-6.535774155857143
O	4.663992890250001	-1.8044281779285718	-4.687888595857143
O	5.731760740250001	0.26528361207142803	-7.7712820058571435
O	7.4555856602500015	-4.842243787928572	-7.374216365857143
O	-3.507493169749999	4.561405682071428	-11.646544755857143
O	-7.556223429749999	5.6935329120714275	-7.936434785857143
O	-8.86292391975	2.151020262071428	-7.3920616858571435
O	-8.83459742975	0.020526528071428074	-4.236955755857143
O	-8.40250107975	-3.6032664179285723	-3.165429785857143
O	-6.6350959097499995	-5.664576987928572	-0.5354624238571428
O	-8.85915892975	-8.091587087928572	1.3312836131428571
O	-8.73768217975	-10.876092907928571	3.921862534142857
O	6.4102087802500005	-10.162825907928573	-9.046487985857143
