75

O	3.94377612963158	1.0547302799368412	-0.19177366163859663
O	2.6665333396315796	1.0454073633368413	-0.6497383584385966
O	4.973435299631579	1.3485761347368412	-0.8270839684385967
O	4.03140521963158	1.0266668916368413	1.1620073085614036
O	2.8774635796315797	0.9966764497368412	1.8502264485614033
O	5.1369498896315795	0.6639562807368413	1.6095976185614034
O	1.5591875096315797	0.8844294217368412	0.07476321656140339
O	-2.0366775903684204	0.24632119473684122	-0.5341000474385966
O	-2.86846446036842	1.2817927637368414	-0.9258454514385966
O	1.6222753996315795	0.9384072977368413	1.4147384085614032
O	-2.0354519103684208	0.4606875507368413	2.0463324185614034
O	-2.4331626803684205	-0.8555988012631588	1.8358979185614035
O	0.33894612963157944	0.8626054787368412	-0.5137203514385966
O	-1.7968988283684206	-0.5989479512631588	-1.4019664414385966
O	0.4254564496315796	1.1392994005368413	2.0470232785614035
O	-2.980629660368421	1.2249685297368413	1.6942682285614032
O	-0.8263825903684205	0.6772092307368413	0.12964937456140335
O	-0.7164386643684205	0.6465586467368413	1.4816490185614035
O	3.9179877196315793	11.76470747873684	-1.7203633714385966
O	2.1751697996315795	10.359117108736841	1.3659347685614032
O	-1.1901814493684204	10.90630633873684	3.0693725685614033
O	-2.8739511203684205	7.671528978736841	2.3233872685614037
O	-6.570433220368421	7.364776508736842	1.4378150385614035
O	-7.861036960368421	7.762819318736842	-1.2388459314385964
O	-4.531027530368421	8.611104358736842	-2.9028513514385965
O	-6.30826110036842	9.64220553873684	-6.791416281438597
O	-2.6162021003684206	10.623834808736841	-6.721928131438597
O	7.25420000963158	12.58898947873684	3.0018758085614037
O	8.796260409631579	9.924562468736841	7.949429228561403
O	5.48673949963158	8.655298878736842	6.551976718561403
O	7.203021999631579	5.659255378736841	4.930253948561403
O	7.22302293963158	4.191194148736841	1.4437024985614033
O	10.869221889631579	3.1301537587368413	1.3707688085614036
O	13.16220278963158	0.4573641517368413	2.7816413085614036
O	10.57603908963158	7.068711738736841	3.0331139085614036
O	3.69599969963158	10.027695408736841	-7.056316481438597
O	2.1679691396315794	7.659519128736841	-4.554598131438597
O	0.9693989396315794	4.083210568736842	-4.363509221438597
O	4.601267269631579	2.879616118736841	-4.153950831438597
O	4.99503804963158	-0.7976773712631586	-4.944166021438597
O	7.444057209631579	-1.790412131263159	-7.702096281438597
O	9.92165278963158	-4.1929614912631585	-6.067371481438597
O	13.30912728963158	-5.612744041263159	-6.949836471438597
O	-2.6334336303684207	-3.443959651263159	-10.148822261438596
O	-2.8884058603684206	-5.02544736126316	-6.668637201438597
O	-2.4888928703684208	-8.310308491263159	-4.818075881438597
O	-2.8885504303684204	-9.76145822126316	-1.3377927014385964
O	-6.57440809036842	-10.27797472126316	-0.5482268374385966
O	-3.7465545403684204	-12.358872221263159	10.244375698561402
O	-2.0440522703684207	-9.36176542126316	8.740480758561404
O	0.2469212096315796	-6.408975851263159	9.536804398561403
O	5.43522750963158	-5.810434601263159	5.911609748561403
O	5.20615753963158	-7.423345251263159	2.5271891685614034
O	2.0984268996315794	-9.50923342126316	3.2424561085614036
O	3.7522400596315792	-11.176123921263159	6.245367988561403
O	-2.0840742003684207	-0.9116751012631585	11.502860498561404
O	-4.9075235403684205	-1.3535047212631586	8.990335508561403
O	-7.12100322036842	0.7186099977368412	11.285924498561403
O	-6.582256780368421	-1.9377606312631586	14.002286098561402
O	-7.05398365036842	-4.787918191263159	11.477409598561403
O	-5.16365631036842	-10.105206621263159	4.896528348561403
O	-4.24235755036842	-6.91005010126316	3.0223611985614034
O	-3.6772615403684203	-5.363561501263158	-0.43174117643859666
O	-6.73448894036842	-5.661342511263159	-2.7066652914385965
O	-6.867077740368421	-1.9418930312631586	-3.4562275214385965
O	-7.22008629036842	-1.0272216312631586	0.2526090475614034
O	-9.69850240036842	-3.924434701263159	0.7710121685614034
O	-11.60720201036842	0.9446051497368413	-0.6400907974385966
O	-5.7205774303684205	-12.221519321263159	-5.106124661438597
O	2.1587932496315796	-6.448829371263159	-8.013201521438596
O	1.8877760196315796	-2.8963079612631586	-9.339948831438598
O	2.3157040096315793	0.6410512877368413	-8.050883741438597
O	4.545916749631579	2.8752824887368416	-10.060784151438597
O	5.773052109631579	6.467825848736842	-10.370103301438597
O	-13.29314911036842	4.073573128736841	-5.044306841438597
