72

O	-0.14232688913333358	1.406688373210526	-1.9646717147052635
O	-0.2378383791333335	0.44638340921052605	-2.880660024705264
O	-0.19172184513333357	0.8832274183505261	-4.081842094705263
O	-0.9370052051333335	-0.701284820789474	-2.5625445547052634
O	-1.3194425261333336	-1.058659750789474	-1.3276067537052636
O	-1.5300797961333337	-2.3033868107894744	-1.0398880787052636
O	-0.8681768845333335	-0.311698890789474	-0.28471718970526355
O	-0.5143197011333336	1.014038925210526	-0.7188976447052635
O	1.0529986218666665	2.208194859210526	-2.3263476647052634
O	2.190469431866666	1.3245943932105262	-2.0724961147052636
O	2.2482064518666665	1.042550013210526	-0.6872726507052636
O	3.4417469718666664	1.572823104210526	-2.7751632547052636
O	3.496526001866666	0.7352722672105261	-3.7868896647052637
O	4.554097881866666	1.1591453572105261	-1.9676649747052637
O	-1.5644369271333336	-0.39691686078947397	0.8874088752947366
O	-3.289039728133334	11.839158669210526	-7.131798414705263
O	-4.837862718133334	8.411555539210527	-7.702625784705263
O	-7.5950364381333335	4.603486919210526	-4.289508944705263
O	-10.047292708133332	4.036329389210526	-1.4053827097052636
O	-10.467163768133332	5.749128269210526	1.0273650952947366
O	-7.827891428133333	8.281134879210526	-0.08511162870526356
O	-6.241456628133334	12.682605369210526	0.5906789952947366
O	-1.3185887921333335	5.473117489210526	-15.876831144705264
O	-2.8220908181333337	4.653151039210526	-12.463897844705263
O	0.6276624518666665	3.9576512392105263	-10.971930544705264
O	2.4715445618666667	5.134952729210526	-7.914429194705264
O	5.932159021866666	5.371457559210526	-9.501108164705265
O	-0.8984873041333336	13.974685269210525	-2.5364937647052637
O	-1.5641780401333336	10.257620479210527	-2.3810555447052635
O	-0.5897642891333336	7.185116459210525	-0.35285334170526356
O	2.7822233318666667	7.159139179210526	-1.9573795547052635
O	5.391481261866666	5.180779799210526	-0.03476646570526354
O	8.640933121866667	6.8665997592105255	0.8754842452947366
O	11.461160631866667	4.749589529210526	-0.5812343959052635
O	2.4364653618666665	4.783903309210526	9.055345405294736
O	2.056617141866666	1.308846084210526	7.5044730752947375
O	3.594881301866666	-2.1566511407894735	7.410950015294737
O	3.0361704218666663	-5.5816737407894745	5.844165465294736
O	0.17678529186666636	-7.383445340789475	7.602443305294737
O	0.29908045186666654	-15.145772330789473	-0.6523346573052635
O	0.4508375518666665	-11.592617030789475	-1.8705602747052636
O	0.41651294186666643	-9.450680630789474	-5.030905394705263
O	4.354537391866666	-7.919526800789475	-8.303118094705264
O	5.265444821866666	-5.3392946507894745	-5.694346454705263
O	7.000260721866666	-4.387643560789474	-2.4897218347052634
O	5.480577441866666	-7.145812950789475	-0.29793735570526353
O	6.734319291866666	-9.833495430789474	-2.6541203147052634
O	10.147598631866668	-8.133542760789474	-2.7782696547052637
O	10.247978331866667	-7.903333880789473	1.0587516852947365
O	-5.033069798133334	-7.421511260789474	-7.478789794705263
O	-6.246905898133334	-6.7922277707894745	-3.911927124705264
O	-9.791059588133333	-7.3103524107894735	-5.136170234705263
O	-8.728322998133333	-10.844342830789474	-6.163275184705263
O	-6.784128118133334	-11.371450030789473	-2.9006720447052636
O	-0.44733112313333356	-10.416245730789473	2.9070287652947364
O	-0.8989735935333335	-6.655996440789474	2.2944097552947365
O	-0.2374160841333336	-3.2380923707894738	3.8908271652947364
O	-1.8221862851333337	-2.688261860789474	7.226772685294737
O	-3.7128017581333337	0.44175977921052606	6.204752215294737
O	-5.622580788133334	-1.391783710789474	3.4417076152947366
O	-6.119120078133334	-4.437364010789474	5.677851245294737
O	-7.670262708133333	-2.1423488907894743	8.345559505294736
O	-9.869597538133332	-0.504459660789474	5.716918615294737
O	3.261601521866666	-5.579063280789474	11.119215555294735
O	7.960575061866666	-4.017594330789474	8.494465155294735
O	7.628408811866666	-0.23338733078947405	8.855566065294736
O	7.165995321866666	2.4154260092105257	6.149430665294736
O	5.404349361866666	5.753764889210526	5.663097285294737
O	3.372011691866666	7.487872139210526	2.9552421452947364
O	4.563912151866666	11.003368969210525	2.1637644652947365
O	3.667704781866666	14.056555869210525	0.08821753529473642
O	-11.547181168133333	4.1992155592105265	8.384072135294735
