69

O	2.5929216014499996	-0.8401376294107147	1.1363088882535712
O	3.39238636145	0.29143450958928535	0.9065315082535712
O	4.707388281449999	0.05388960658928532	1.4972413522535712
O	2.6057657014499993	1.4865325425892855	1.2546876032535712
O	1.2410591514499996	1.1685978945892854	1.6653214022535714
O	1.1692089614499994	0.5677344885892853	2.948182192253571
O	-0.019828094550000563	1.6700382445892852	1.3168223922535713
O	-0.2986490685500005	3.1346258305892856	0.9791780452535712
O	-0.10906066055000052	0.8371805005892854	3.2000136722535713
O	2.0230057214499997	0.8267772765892853	3.891218502253571
O	-0.8003795928500005	0.8711266405892854	2.047702312253571
O	4.7377699914499996	-0.5805285594107147	2.5975589022535712
O	5.5690402914499995	-0.5738163994107147	0.5682157632535713
O	2.9495156414499997	12.492605860589286	4.709426732253571
O	0.6682476014499994	9.960138260589286	6.413906362253572
O	-3.8036806185500005	6.663336530589285	4.660736242253572
O	-6.972125608550001	6.502527560589285	2.5402959122535713
O	-7.50438345855	7.774595080589285	-0.12874326074642872
O	-4.05861945855	9.409473590589286	-0.21260016274642873
O	-4.77587214855	11.692807260589285	-3.931907357746429
O	-1.5049566645500005	12.800573360589286	-2.3011093577464288
O	5.049856431449999	7.578377480589285	14.31770440225357
O	2.5818099414499995	6.670066140589285	11.545296402253571
O	5.235240281449999	4.617042270589285	9.73464226225357
O	6.46083966145	4.453707110589285	6.165813762253571
O	4.61962038145	12.785689260589287	-0.6466111477464287
O	2.8752889714499994	9.564466390589287	0.29773583985357127
O	2.3316672614499994	6.097709750589285	-1.1069501477464287
O	5.883545991449999	5.170590020589285	-0.11874923274642873
O	7.208638681449999	2.050064250589285	-1.8269020877464286
O	10.48169825145	2.2681612705892853	-3.7057369077464286
O	12.80355225145	-0.3703844694107147	-2.217439427746429
O	1.7855688314499996	4.664915510589285	-9.165941947746429
O	2.0832347814499994	0.9211201235892854	-9.81086629774643
O	1.1169300214499995	-1.8277355094107146	-7.3314506177464285
O	1.5280778414499996	-5.510475149410715	-6.579010247746428
O	0.3923376414499995	-8.146614439410714	-4.099508337746428
O	-3.2027217685500005	-9.153733399410713	-4.808149267746429
O	-3.3092351585500004	-14.791133039410713	5.023744542253572
O	-1.8328868985500004	-11.326940539410714	5.221853752253572
O	-0.4651188325500005	-8.742563759410714	7.658594532253572
O	5.369205741449999	-6.516378779410715	6.374738622253571
O	6.467711981449999	-6.813771729410715	2.794632442253571
O	3.7022320014499996	-9.196975999410714	1.7225021122535713
O	4.67110708145	-11.742599639410715	4.395648482253572
O	8.35077464145	-11.313099239410715	3.499230152253571
O	-4.286130858550001	-4.550971489410715	10.393478302253571
O	-6.13821676855	-4.252884329410715	7.0750156722535715
O	-9.25630452855	-3.2871853194107143	8.99786916225357
O	-9.03377560855	-6.705465099410715	10.711260202253571
O	-8.21148366855	-8.476879689410714	7.405677782253572
O	-3.5039491085500005	-10.855482039410713	0.5380932602535713
O	-2.6778571785500005	-7.131939899410715	0.22571689345357127
O	-1.4082999425500007	-4.425692479410715	-2.152285787746429
O	-3.5451850685500004	-4.0858634694107145	-5.2937178677464285
O	-4.08390196855	-0.36233008941071476	-4.7811025277464285
O	-5.714093858550001	-0.8848886194107147	-1.3776905577464287
O	-7.66686223855	-3.9374932794107145	-2.676075717746429
O	-9.053374458550001	-1.7875898394107144	-5.522409507746429
O	-9.96317233855	0.9502519835892853	-3.064765987746429
O	-0.7110392557500005	-9.262033729410714	-9.168494467746429
O	5.446899871449999	-5.431452199410715	-9.18327202774643
O	6.500529751449999	-2.3220488594107147	-7.230513077746428
O	5.97034989145	1.4595528615892852	-7.412402847746429
O	5.2696216714499995	4.279676600589285	-4.939493037746429
O	7.588229251449999	7.263736570589285	-5.330581427746428
O	8.18563976145	10.766886860589286	-3.9762180677464287
O	-10.08435459855	9.012349070589286	-5.798692057746428
O	-10.81037004855	5.342185090589285	-6.524223057746428
