15

O	8.729599218460786	34.324095389050385	-2.2509301180582737
O	8.807248187783152	32.83650103527286	-2.251510455595431
O	8.9237342397728	32.559570550105526	-3.6815045457662423
O	7.956643819888094	33.06118856019904	-4.372125509376998
O	7.627009910570666	32.67347099957742	-1.3929028634343066
O	7.926813897211786	31.978561014508024	-0.2007316528455645
O	6.786886669353971	33.88776513408741	-1.2808051854245717
O	8.900311373252956	30.780010520415843	-0.3152550450553432
O	6.103509595992206	34.67026549191946	-0.2726877866492872
O	7.382211084749383	34.77921742118231	-2.298939469059009
O	6.530722006174245	36.013670918998955	0.18348607949322393
O	5.237380877640337	34.14084754240712	0.7990086831238518
O	8.307754240878571	29.536869861216726	-0.3089026245216372
O	9.948172365782497	30.728265698825407	0.5577600585946155
O	10.07474203833326	33.17531000088784	-4.249034755656648
