15

O	6.187821652470635	35.1836830749344	2.025355746918665
O	6.721485027732187	34.03835090668268	-1.4874873689455055
O	6.905104462034641	32.70282168380236	-1.4784423902379307
O	6.351634567932493	32.198018890611046	-2.527033865013946
O	6.728854154044636	32.16860825826028	-0.2331708782354478
O	6.9276607451763335	32.90322761203204	0.8508648004330753
O	7.072203579349017	32.41316674357994	1.98114978849701
O	7.203025795234109	34.242478056429356	0.898663295293566
O	6.949911437320045	34.79072957896909	-0.4193667810166628
O	7.384049412700519	34.449688944655584	-2.707755465358587
O	8.767222761357942	34.46648056118405	-2.4779381782280296
O	9.279831674869168	35.06338612964729	-1.3587112299090225
O	9.469026210697196	33.94558627522454	-3.586424428331972
O	9.220903826242061	32.64800928955194	-3.6085600877624358
O	10.859069807041827	33.85042727112626	-3.149442980004207
