15

O	7.32672088384928	31.415042559049326	-0.3024511515618349
O	6.074497304260914	33.15023283155211	0.8239386922855206
O	6.37923944570087	30.52031159941715	-0.33319649426218545
O	6.8041115839727055	32.794780678935155	-0.3094983242709415
O	9.672194616513819	33.91262340422255	-1.4591124603341488
O	8.45422957953855	30.61417331921972	-0.029811833149556044
O	6.369367825880469	34.97132032357168	-0.08368382153284903
O	5.439494549665856	34.27923660760302	0.5732110562537479
O	7.086725817012554	34.02720499954015	-0.8323893075779643
O	10.273954985731717	34.14436079904374	-4.462784286852218
O	7.45126891874863	34.03656973050767	-2.281403164229932
O	9.57715069602683	32.11365276542494	-3.8846473681876783
O	8.879127565943666	34.1982615812018	-2.604403770077971
O	9.43777428010018	33.488979081330214	-3.7563699901173826
O	5.921420253444687	36.260975094017176	-0.7294425220686556
