72

O	0.3678840674561402	-1.9041003639999987	1.4250292165614034
O	1.6324651974561402	-1.675078823999999	1.7633767165614034
O	2.1605444974561405	-2.616320133999999	2.4492818965614034
O	2.0713060374561403	-0.3698636369999988	1.8800985865614035
O	1.3839793174561406	0.7145689480000013	1.4871128265614033
O	2.0066790274561406	1.8151845160000013	1.2069619065614035
O	0.24367832845614024	0.5189415185000013	0.7740522135614033
O	-0.29588869354385977	-0.7933456839999987	1.0143583265614033
O	0.3508108874561403	-3.250646423999999	0.8087339445614034
O	1.0181962074561404	-3.091042963999999	-0.4865594594385967
O	0.2065929204561402	-2.239414243999999	-1.2782152534385967
O	1.5313405974561403	-4.304002873999999	-1.1241550034385965
O	2.8255159074561402	-4.331740323999999	-0.8971246064385967
O	1.4676889574561405	-4.171242703999999	-2.5516891534385966
O	-0.6655143801438598	1.5392262660000013	0.7636394335614033
O	-3.9250813525438595	-10.034704064	9.259510876561404
O	-1.4720044465438598	-7.212615493999999	9.961421236561403
O	-1.7664799525438597	-1.4212021539999986	9.602395676561404
O	-3.86990020254386	1.742865586000001	10.061619436561402
O	-6.82493898254386	2.075059566000001	9.632922366561402
O	-7.27012212254386	-1.5875194639999988	8.633923366561403
O	-10.45878331254386	-5.033814693999999	8.089609196561403
O	6.93831523745614	-11.329195663999998	10.358702536561402
O	4.83648048745614	-8.209077173999999	9.706438696561403
O	4.9879824274561395	-8.745866593999999	5.924049406561403
O	2.43053966745614	-8.895146204	3.1713811065614035
O	4.06944159745614	-11.681878863999998	1.1459898465614033
O	-8.09743687254386	-10.311742864	5.531074536561403
O	-5.76708043254386	-7.371550003999999	5.067741916561403
O	-4.8401180225438605	-4.737419253999999	2.4759046965614036
O	-3.0381351325438595	-7.316381983999999	0.46587803256140325
O	-2.46363585254386	-6.316688773999999	-3.1537144934385966
O	-3.5983439125438594	-8.664205793999999	-5.878754453438597
O	-0.5497955755438597	-9.458136483999999	-8.032048653438597
O	-9.08326358254386	0.24134758000000125	-5.312086393438597
O	-5.68263089254386	1.9771096060000013	-5.104098493438597
O	-2.9067808825438597	3.475202046000001	-7.210254173438597
O	0.4352785574561403	5.2599306760000015	-6.831495473438597
O	-0.1174482845438598	8.880592286	-5.783680813438597
O	10.99459857745614	9.746760756	-3.7443040334385964
O	9.40981677745614	6.6271551560000015	-2.3690482534385966
O	10.10877807745614	3.542089546000001	-0.2311442444385967
O	12.12324977745614	-1.243723253999999	-1.4932602734385967
O	8.71617005745614	-2.097578353999999	-2.8939339134385964
O	6.18847898745614	-1.9647977439999988	-5.683921823438597
O	6.2688366674561395	1.8357526060000011	-6.206101833438597
O	10.01600487745614	1.7723189960000014	-6.756997203438597
O	9.621424577456139	-1.2129311439999988	-9.100330083438598
O	6.8238531374561395	0.5848169640000013	-11.029727463438597
O	9.28803837745614	3.7123639560000012	6.022022806561403
O	6.13679212745614	5.785717666000001	5.418307966561403
O	6.62007936745614	7.3299621460000015	8.838867656561403
O	9.99403707745614	8.631616146	7.574943766561403
O	8.49599707745614	9.688390786000001	4.207018576561403
O	5.1046426474561395	8.796824396000002	-3.6983785934385964
O	2.83440563745614	6.166314816000001	-2.070426153438597
O	-0.5018970945438598	4.348313716000002	-2.551570673438597
O	-3.5151523425438596	6.546599386000001	-2.7535517034385966
O	-5.36040347254386	4.875505276000001	0.1134870115614033
O	-2.5663276325438598	5.657119566000001	2.6095594965614035
O	-2.1074620025438597	9.144970816	1.1436944465614034
O	-5.85912926254386	9.793949746000001	1.6863291865614034
O	-5.6212492025438605	8.449591956	5.231199926561403
O	-3.17280900254386	7.9035597860000015	-9.637126033438596
O	-1.4798887365438598	3.039055636000001	-11.844258563438597
O	-4.41393836254386	0.8383915020000012	-10.790610663438597
O	-4.46993672254386	-2.129312883999999	-8.396506043438597
O	-6.80282303254386	-3.7283366839999985	-5.850015783438597
O	-6.54402337254386	-5.264875973999999	-2.3797543134385966
O	-8.18700695254386	-8.673444503999999	-2.0891480334385966
O	-9.04400027254386	-11.360057263999998	0.4565388625614033
O	-11.06521452254386	7.532954666000001	6.485715996561403
