18

O	7.441675569521685	34.08342073179343	-4.071296324184896
O	7.368581081620832	34.7418615622712	-2.88899167177648
O	7.736085470625244	34.542506689358405	-5.184918913083733
O	7.429707552575215	32.73908370384755	-3.941017245433102
O	6.961475062763254	32.283517817510976	-2.7540429467290113
O	8.291811199409944	32.0993895365409	-4.622009934098506
O	6.944131479254091	34.27273997778297	-1.7181217862862659
O	6.798923382204636	35.330556464368776	1.772481079997223
O	5.909874918816158	36.39202836001603	1.7890973585543115
O	6.794997748175271	32.939297797361135	-1.5970448858877173
O	6.404118637451954	32.771007740884635	2.0908086726771673
O	5.463479952204733	33.42598109097087	2.8886382514818356
O	6.543691194571393	35.07165512309957	-0.6547826877314078
O	8.004922899178991	35.70323742464101	1.7502388343659716
O	6.179738540273478	32.53277856134125	-0.4435603535576528
O	7.56702039108706	32.92459230143071	2.569660322946094
O	6.617807407955184	34.520699159285954	0.589494666485489
O	6.40416620331942	33.20416910715524	0.7193405978967718
