13

O	9.624671752848302	32.45880447654055	-3.6011876948529213
O	10.271546866980286	33.421872033682504	-1.4514158973768896
O	8.972217367735267	31.508627121566292	-3.0284949851572773
O	9.8268122481051	33.661467712517016	-2.775978139113535
O	7.380968234709582	32.13802621546654	-0.3931834295353889
O	10.913999759415038	31.97609296155226	-3.929420271160204
O	8.449511791155178	34.32032509265889	-2.725592990490007
O	5.238993833444027	32.04016734031386	-0.7638041731479992
O	7.934477670177127	33.942440887883514	-1.3438346768700953
O	8.34610406167937	32.95477681534402	-0.5654017802045921
O	6.596230614134543	33.8808385947259	-1.0388265864505102
O	6.329108149914537	32.51108209971612	-1.0813126920540526
O	5.575699954613924	35.17887181963832	-2.1635489475863903
