70

O	-1.6103483003818182	2.3924768587454546	0.03262828393818161
O	-2.734920505381818	1.6806907497454544	0.12137781103818161
O	-3.724529285381818	2.5063052387454547	0.20191863483818162
O	-2.728203905381818	0.6065712647454544	-0.7217444320618185
O	-1.591835775381818	0.019829048745454436	-1.0632986640618185
O	-1.5296369373818182	-1.0245397312545457	-1.7180636340618185
O	-0.32855291638181805	0.6056956357454544	-0.9923502840618184
O	-0.46687672338181807	1.9123418027454544	-0.4128235040618184
O	-1.5470491873818182	3.1531035687454545	1.2424196659381816
O	-0.9907866123818181	2.3341446787454547	2.2489355359381817
O	-0.07680963538181818	1.3392325427454543	2.0243893059381817
O	-1.754212562381818	2.540961348745454	3.4274002159381816
O	-2.9915807453818184	2.1501000887454547	3.1906972859381817
O	-1.401562815381818	1.4561084127454544	4.334343005938181
O	0.7734142846181817	0.9383013257454544	-2.8308309340618183
O	-2.5098795953818183	13.231547588745455	-3.3141581740618182
O	-3.980391865381818	10.141316048745455	-4.983308524061819
O	-1.6858679403818182	5.414393788745455	-7.451259574061819
O	1.117797914618182	3.9748798387454545	-9.680833344061817
O	4.005509464618182	4.804368458745454	-9.794062304061818
O	3.462086754618182	7.545450868745455	-7.174692004061819
O	5.332186724618182	11.504593788745455	-5.408299684061818
O	-13.010893065381818	10.020023158745454	-2.4960255840618184
O	-9.898162535381818	8.138480678745454	-3.6434654640618183
O	-9.114823115381817	7.060416238745454	-0.0563900100618184
O	-6.0608325153818186	7.262733928745455	2.1470178359381817
O	-7.838836265381818	7.929182488745454	5.426013145938182
O	2.245814724618182	13.795837588745455	-0.39375503106181836
O	1.256638804618182	10.205768758745455	-1.1303269240618183
O	2.076473574618182	6.642259728745454	-0.036790047061818376
O	0.19736851461818183	7.217076458745455	3.1587585059381817
O	1.0909841746181819	4.684516018745454	5.858116755938181
O	2.1418325346181817	6.003897648745454	9.242211435938183
O	-0.22700972538181818	4.481663548745455	11.817452975938183
O	9.829771534618182	1.3809121697454545	3.837979875938182
O	7.312453544618183	-1.4191544512545455	3.2062338559381818
O	5.952604164618181	-4.661170221254546	4.616744275938181
O	3.4354075746181816	-7.388598711254545	3.794380645938182
O	4.829218714618182	-9.683495511254545	1.0961197549381816
O	-5.438317455381819	-14.378408911254546	0.1104586046381816
O	-5.459297405381818	-10.623716111254545	0.23643211763818162
O	-7.730962285381818	-7.5737729412545445	-0.0689731490618184
O	-10.740335345381817	-5.044758631254545	3.531527555938182
O	-7.571252275381818	-3.455048711254545	4.815427915938181
O	-4.456232645381818	-3.5950037112545457	6.924494685938181
O	-3.100465225381818	-6.886763871254546	5.536265805938181
O	-6.317947845381818	-8.696799591254544	6.454517045938181
O	-6.274370325381819	-7.014264141254545	9.878444285938182
O	-8.787488535381819	-4.904504201254545	-5.680541384061819
O	-5.1112218253818185	-5.490627601254545	-6.519725604061819
O	-6.050523445381819	-5.608643991254546	-10.186755524061818
O	-8.268599655381818	-8.611346541254544	-9.321018854061817
O	-5.571289655381818	-10.147193611254545	-7.063454544061819
O	-0.49002449438181805	-11.059547911254546	-0.11186221706181837
O	0.1959034746181818	-7.321439511254544	-0.5218816430618183
O	2.666994044618182	-4.544936861254545	0.4033208919381816
O	6.186266764618182	-5.133217541254545	-0.7949238530618183
O	6.423783874618183	-1.8544175112545456	-2.6922725240618184
O	3.4844167346181822	-2.7432382812545457	-4.938013914061819
O	4.720553474618182	-6.385849231254545	-5.293915234061819
O	8.103073654618182	-5.018770041254546	-6.463829394061818
O	6.410003484618182	-2.6660493412545456	-8.913724794061817
O	8.393460164618183	-9.103886211254546	4.592890195938181
O	7.5308451546181825	-3.2947014112545454	8.840507125938183
O	5.870309614618181	0.08544272674545439	8.191847845938183
O	6.622285134618181	3.3905656887454545	6.469115185938182
O	4.851029584618182	5.896028368745455	4.2289933059381815
O	5.119552734618182	9.483183998745455	5.439456725938181
O	4.258176094618182	13.047919988745456	4.424297565938181
O	10.572222334618182	0.9668657487454544	-10.144766624061818
