72

O	2.459577006762712	2.7986134592271186	-0.9432686764694915
O	3.620448946762712	2.153812299227119	-0.9477648274694916
O	3.525268776762712	0.8767083234271186	-0.6199130864694916
O	1.7303448267627122	1.9040531392271185	-0.2621094624694916
O	0.8047743467627122	-0.3438017707728813	0.7412920165305084
O	2.1207030067627124	-0.4360830207728814	-2.6348951334694917
O	0.3764780407627122	1.9356115052271186	0.3719158905305084
O	0.7664431667627123	1.2478660432271187	-2.4265975534694917
O	0.6209899767627123	0.9103066123271186	1.4936268065305083
O	2.4467022167627124	4.069261349227118	-0.9027926504694916
O	1.4092189867627123	-0.3218242107728815	-0.4933039474694916
O	2.361445126762712	0.6516182842271185	-0.0498009414694916
O	1.1330589067627121	0.0006583922271186093	-1.9030627434694916
O	5.007199276762712	12.146603389227119	5.0782685265305085
O	3.852349586762712	4.0451219092271185	8.556123386530508
O	-1.224592006237288	3.9701668992271184	12.040741246530509
O	-0.8353336352372878	6.9253852392271185	9.662300546530508
O	-2.424592473237288	11.28163618922712	8.68527166653051
O	14.581494016762713	7.7757424992271185	1.8715117165305082
O	11.503180916762712	6.204036589227118	3.4851929965305084
O	9.945246116762712	5.697902419227119	0.03170090653050839
O	6.519136376762713	6.489522829227118	-1.4931729134694915
O	7.712755996762713	7.365227779227118	-5.023130703469492
O	8.920095236762712	5.534375969227119	-8.129779753469492
O	10.339723516762712	9.178322679227119	-2.1312551534694917
O	2.3926230467627123	14.89722728922712	0.6748980865305083
O	-0.09327007723728775	13.68295588922712	3.2882741865305083
O	0.4683371667627123	9.95430935922712	3.5316910765305085
O	-1.2363695482372878	6.777108609227119	2.4367639165305084
O	0.1551932457627122	7.353860799227118	-1.0997459314694915
O	-1.5312815372372879	5.207874739227118	-3.7418891634694917
O	-3.0584730432372877	7.055188189227119	-6.756649563469491
O	-1.4394763912372879	5.509622769227119	-9.84717896346949
O	-1.1657202152372879	6.417185969227118	-13.512155653469492
O	-10.160620493237287	2.895720969227119	-0.2842414075694916
O	-8.022124433237288	-0.2657919907728814	-0.4177997356694916
O	-7.424598793237287	-3.4756457007728816	-2.3371879334694916
O	-5.240846793237289	-6.591141220772881	-2.2848887834694915
O	-6.376238493237288	-8.951452660772881	0.45280912753050845
O	3.0477277167627124	-15.04622891077288	-1.1192944864694916
O	3.610451866762712	-11.33829091077288	-0.9371784764694917
O	6.332390036762712	-8.664896950772881	-0.8584152454694916
O	8.935992846762712	-6.1614842207728815	-4.792358303469491
O	5.842718556762712	-4.018854690772882	-5.176572223469491
O	2.3952568867627124	-3.4979951607728816	-6.588936813469491
O	0.8537826967627122	-6.771987470772881	-5.294161373469491
O	3.5278604267627123	-8.836850440772881	-7.019271003469491
O	3.0736520567627124	-6.761719090772882	-10.193781893469492
O	-0.7412941002372878	-7.235755220772881	-10.032950803469491
O	8.857985406762714	-6.729115310772881	4.571118886530509
O	5.374318436762712	-6.898212910772882	6.088811306530509
O	6.997398456762712	-7.565487890772881	9.462082416530508
O	8.531949626762712	-10.71731301077288	7.9261354965305095
O	5.242275756762712	-11.636671610772881	6.1798856865305085
O	-1.2010851062372878	-11.13301251077288	0.40975011353050844
O	-1.1875238232372878	-7.359953910772881	1.2314806265305083
O	-3.347412843237288	-4.234080230772881	1.1469955765305084
O	-6.6743153132372885	-4.520496660772881	2.9522028865305083
O	-6.063491643237288	-1.4704454507728812	5.1352183265305085
O	-2.797458693237288	-2.942682250772881	6.577308856530509
O	-4.451198803237288	-6.380766640772881	6.9012419965305085
O	-4.758333693237288	-2.8931245907728815	11.036928946530509
O	-10.435803503237286	-7.538805160772882	-2.1704266434694914
O	-8.822464483237287	-8.586719110772881	-5.446755453469491
O	-8.538510333237287	-5.053818340772882	-6.818861043469491
O	-9.525580813237287	-1.4580945407728814	-6.025832083469491
O	-7.339651083237287	1.6011934672271186	-5.463736583469491
O	-7.279122083237288	4.7712629192271185	-3.3564418834694916
O	-4.765794513237287	6.775383459227118	-1.3331453954694916
O	-4.666508193237288	10.45494161922712	-2.1535039034694914
O	-3.1170097332372877	13.74744358922712	-1.0437527824694917
O	-8.074998583237289	1.0215707468271187	13.469743546530509
