15

O	7.146676174960221	33.9249938906713	-0.9757425233230115
O	7.018302231334145	32.61082291986967	-0.8119822022378651
O	6.361036672751723	32.0433471830277	-1.7510088588968544
O	7.014414757168154	32.10353862645869	0.4724716124969023
O	7.382788808577808	32.77647731808935	1.5726991312307923
O	7.799993492517593	32.14208889255479	2.62150184223012
O	7.936819241573303	34.007064765937436	1.4056223199305125
O	7.541456015294154	34.58059943934037	0.14623587080897082
O	7.664379880823766	34.1233676347112	-2.3522075420454724
O	9.03263820094485	33.60784847255287	-2.3184525509794547
O	9.798915450780653	34.40643355362309	-1.437085609427658
O	9.649792550916805	33.174851935321435	-3.564521807387476
O	9.556061118640402	31.864578203968733	-3.614317820371534
O	11.069009945135862	33.38396269629023	-3.5135122481177037
O	7.920384322876302	34.84699744441089	2.4827307873860853
