15

O	6.597795822705124	34.59537844552502	2.380088727306359
O	7.072102094665206	33.699887753801455	-1.253121228152228
O	7.321530120494488	32.35931417255162	-1.1590806851226136
O	6.591649914128259	31.77188711330989	-2.0453529617421546
O	7.481059156366415	31.79921037150315	0.09725524762315507
O	7.776289900375778	32.533485885106955	1.1656611763365046
O	8.178858521870913	32.06726406604483	2.2780574160883997
O	7.67230754141214	33.89077096202639	1.1252727224275367
O	7.097719308518144	34.385583995416276	-0.1322539306478956
O	7.698609011828284	34.202205572728964	-2.478629990157212
O	9.154855141871574	34.03174583773453	-2.2681864155840135
O	9.572414606514608	34.34381516240314	-0.9504291309082744
O	9.82783850776396	33.02355691229895	-3.022109135953658
O	9.556850146661553	31.79413396423753	-2.730224169310757
O	11.252789109076355	33.12250303530168	-2.9759640855426244
