75

O	2.8653463645374995	-1.5063145775	0.9833190398035715
O	1.4141941945374994	0.9239402314999999	-1.0463353491964285
O	2.344518594537499	-4.1804216975	0.7996565398035714
O	2.1567892045374997	-0.1797017285000001	-0.7467081011964285
O	3.2824487845374994	-0.44954167350000007	-1.3456199701964286
O	2.5350133845375	-2.1752289875	-0.35097599309642846
O	2.221557124537499	-0.34112641750000006	0.5765070008035715
O	0.6097638445374993	-2.9138426875000003	1.1637074498035713
O	1.8489689645374996	0.7574048434999998	1.2824805198035714
O	2.623292634537499	0.6453498484999999	2.2793967398035715
O	0.4845931345374994	0.8609831774999999	1.1014492798035715
O	0.2421834445374993	0.9870511864999999	-0.28247823818042844
O	1.3489460845374992	0.8948396414999998	-2.397227050196429
O	0.5999476545374993	-0.3472137175000001	-2.5778612401964285
O	-0.7079688404625006	0.10113574149999988	-2.3924399701964285
O	1.2892727045374992	-0.3176791135000001	-3.8714143701964288
O	1.6262238445374992	-3.2771316075000003	0.24514732580357157
O	2.1462716745374992	-1.3223044775	-3.6808198401964285
O	0.28475623453749943	-1.2907706975000002	-4.2998985801964285
O	8.7509225145375	9.5444794525	-2.7414687101964286
O	8.762912144537498	7.1489617925	0.18539122480357156
O	8.2875610445375	7.4772812325	3.9410444898035717
O	4.934358114537499	5.9004080325	4.386269879803572
O	2.253847704537499	7.1409349424999995	6.8200312998035715
O	0.23537990453749935	9.3224650425	6.384916619803572
O	1.5928868345374994	10.0897641025	2.8831510498035713
O	1.6674507745374993	13.2986813425	-0.5359255531964284
O	13.7838272545375	6.5971341425	-2.6184603901964287
O	15.791008654537498	1.2488500105	-1.5341365801964284
O	12.437879354537499	1.9391564825	0.14361182880357154
O	10.5157890545375	0.1545852414999999	-2.6066013701964286
O	7.640439234537499	1.0610284124999998	-4.828383740196428
O	8.914595144537499	-0.6045667225000001	-8.018541870196428
O	4.487771244537499	11.3939569425	-5.860525630196428
O	3.649387454537499	8.4941529625	-3.574749300196429
O	0.9810770845374994	5.8345826825	-3.0836712201964285
O	2.2146329545374996	4.0462513125	-6.092406360196429
O	-0.30087734146250067	1.5266779324999997	-7.394964630196428
O	-1.2054035584625007	1.7973656525	-11.179092180196427
O	-0.42863813846250065	-1.6215677175	-12.703701680196428
O	-9.011869655462501	4.4879035725	-4.706779730196429
O	-8.1101895254625	1.2830680074999998	-2.7926716101964284
O	-8.8051718454625	-2.4432806375	-2.5923368901964285
O	-7.870959875462501	-5.5057753675	-0.5535995711964284
O	-9.6552433454625	-5.4361744475	2.785661559803571
O	-3.171644625462501	-14.0547241575	6.200102469803571
O	-1.2899416434625006	-11.2860243575	4.484862979803571
O	2.202987784537499	-10.032544057500001	3.5551548698035713
O	5.308966264537499	-11.1716354575	-0.6187250781964284
O	3.169588084537499	-8.7671948775	-2.6078797101964284
O	0.06396974953749934	-8.0940833475	-4.595658130196429
O	-2.423873035462501	-9.2566983475	-1.9808910001964284
O	-0.7998510535625006	-12.6991017575	-1.8876797101964287
O	-0.6836315024625006	-12.8140341575	-5.6945841501964285
O	5.483995984537499	-6.463649047500001	7.542994679803572
O	2.2424320645374998	-4.6380661375	8.365795929803573
O	3.655250704537499	-3.8126459075000003	11.799339019803572
O	3.870657874537499	-7.5934459275	12.411447819803572
O	0.4080523045374993	-8.172622477500001	10.846253919803573
O	-5.6310091354625005	-8.8194808475	4.722760789803571
O	-4.239603205462501	-5.4903004075	3.4370469298035715
O	-4.965111345462501	-2.4313407375000002	1.2852859798035716
O	-8.1412039454625	-0.5986118995000002	2.4403863798035714
O	-6.464022865462501	2.7851753224999998	2.7257439798035716
O	-3.8019281854625007	1.3381539274999998	5.064825129803571
O	-6.6338603854625005	-0.5263706255000001	7.0525355298035715
O	-8.6364077954625	2.7075909525	7.388426159803571
O	-5.556920635462501	4.5164406425	8.614764129803572
O	-13.073003645462501	-4.4945943475000005	-0.7782125711964285
O	-7.113133915462501	-0.2603073195000001	-7.871517160196428
O	-5.796397335462501	3.3144208524999996	-7.816555260196429
O	-2.626655475462501	5.1581985024999994	-6.8194935401964285
O	-1.2311304794625006	7.4757477025	-9.419706710196428
O	1.4858801545374993	10.0689819625	-9.985785010196429
O	-7.125823945462501	9.9364419325	8.026900399803573
