12

O	9.810167305222022	33.62320268761833	-1.1546424842874154
O	9.368988703408682	33.68854862063664	-2.5037819381730886
O	9.959742048984392	32.64829419432507	-3.404680225511357
O	9.54275841394466	31.463040744330467	-3.197395741214565
O	7.912242313217614	33.54266502462603	-2.612131143815999
O	7.416863681381929	33.04349603393657	-1.2763245945000614
O	6.16520495596782	32.94544302904743	-0.7589628434283489
O	8.03157815055657	33.02526237290026	0.02610169976844534
O	5.369955099958779	32.86288593505641	-1.8223035645144727
O	6.057115776312454	34.138732173883376	-0.04700919586471264
O	7.108441399306244	33.756201984431996	1.2548793121811512
O	11.352240372962207	32.754058435354516	-3.45861246278524
