72

O	1.7518645416566667	-1.2576028336166665	-0.5913478137666663
O	2.2920966116566666	-1.1503453936166663	0.7346140922333337
O	3.2956972716566666	-2.1910847536166664	0.9118932922333338
O	4.211885881656667	-2.2706142036166663	0.03580130423333372
O	1.1189710616566668	-1.0601301736166664	1.6321232722333339
O	-0.08861697334333318	-1.8924948436166664	1.4688579522333338
O	-0.09364312034333316	-3.2302161336166666	0.9049404922333337
O	0.19161398065666685	-3.582305843616666	-0.25795865346666624
O	-1.0747193413433331	-4.096504313616666	1.4138107922333338
O	3.5538671616566666	-2.9802975136166663	2.0027343122333336
O	0.2742004036566668	0.1493229183833336	1.2167214922333338
O	-0.9265305253433331	-0.7857751136166664	0.9228510722333338
O	11.204191801656666	7.240741696383334	8.883869292233335
O	7.468325891656667	7.030864856383333	8.334439212233335
O	4.427062491656667	5.010202526383334	9.422735562233335
O	-1.2246479593433333	5.054906886383334	8.020989752233335
O	-4.261169078343333	7.244533676383334	7.285605422233334
O	-4.372737888343333	9.845716066383334	5.787793642233334
O	-0.5944023903433332	9.892306726383334	5.2593682022333335
O	3.062912711656667	12.662740736383334	4.116721982233334
O	7.8855180816566675	-2.6353233336166664	13.547117592233334
O	5.020876891656667	-0.9315519236166663	11.671957592233335
O	6.119814251656667	-2.476616483616666	8.365789972233335
O	6.891411351656667	-1.1036590536166664	4.934137622233334
O	9.776883701656667	-3.4072725036166664	4.086082862233334
O	10.360620201656666	-7.006784573616667	3.0751311322333335
O	10.226390301656666	-1.9939075536166664	8.113892432233335
O	11.525467601656667	7.3077092063833335	4.193906812233333
O	8.525929021656665	9.526823886383333	3.4237454922333335
O	5.545866961656667	7.206366986383333	3.4008261422333335
O	3.234015041656667	5.4354531963833335	0.9503574822333338
O	6.0533368816566675	3.0147670663833335	0.13431881723333372
O	5.450837261656667	1.0485262313833337	-3.0542486577666663
O	8.257101571656666	1.1310425873833336	-5.705756267766667
O	9.121178631656667	-2.5378144736166663	-6.360782667766666
O	11.940814001656666	-4.429543113616666	-7.999429097766666
O	-0.3220893343433332	6.408993776383333	-8.477031337766666
O	-2.2570291683433332	3.3324277263833335	-7.287378557766666
O	-3.6225620783433334	-0.006552880616666368	-8.430880427766665
O	-5.641135208343333	-2.9454977836166663	-7.129369627766667
O	-9.321966388343334	-2.029477933616666	-6.938523907766666
O	-11.141963998343334	-11.599990863616666	-1.1151783367666663
O	-8.166282488343333	-9.613023363616666	0.04762714223333375
O	-5.449944698343333	-9.422650123616666	2.7335952022333334
O	-0.6873584453433332	-11.792445763616666	3.063907532233334
O	0.5551761816566669	-9.105522343616666	0.6813095082333338
O	0.9713288516566669	-7.841184183616667	-2.8242935677666665
O	-2.697713628343333	-8.106616303616667	-3.8518828277666666
O	-2.784546478343333	-11.812633563616666	-2.9979698577666665
O	0.5333197206566669	-12.323740663616666	-4.810683357766666
O	-0.8028688893433331	-10.461528563616666	-7.895155147766666
O	-6.428277298343333	-6.362263333616666	8.117071892233334
O	-8.194545258343334	-3.669837033616666	6.093184072233334
O	-10.233225878343333	-2.8622099636166665	9.182341992233335
O	-11.551777698343333	-6.4565937836166665	9.066050402233335
O	-9.858933428343335	-6.115880603616667	-3.1015763877666664
O	-7.393200928343333	-3.4095384836166662	-2.0435883377666664
O	-5.216335748343333	-0.5116808036166665	-3.2697347677666664
O	-7.2178802783433325	2.2153161363833336	-5.028779037766666
O	-5.815377868343333	4.948629316383333	-2.7825521377666664
O	-7.173207858343333	3.3030922163833334	0.3848390702333337
O	-10.447874698343334	2.3875506663833335	-1.3662807777666661
O	-10.093639218343334	7.135788346383333	1.2184313222333338
O	-7.645473738343333	-0.6428217836166663	-11.475235507766666
O	-2.6215489683433333	-3.0676622036166665	-12.081747507766666
O	-0.4387213897433332	0.05303644538333363	-11.895340107766666
O	2.1788613316566665	0.9757080553833336	-9.275560817766666
O	3.5347186316566668	4.075398086383334	-7.535958247766667
O	4.576570881656667	5.166460276383334	-4.062092967766667
O	7.977698821656667	6.7974514463833335	-3.8649022777666664
O	10.326043901656666	8.557586676383334	-1.4414907777666661
O	-9.073834598343334	12.671683836383334	0.5062581482333337
