12

O	9.731351971847825	33.7410750183375	-1.1675003610390984
O	9.210653795159224	33.93087393501741	-2.4713704440330773
O	9.687690802122106	32.810152560682326	-3.347255073656563
O	9.108876339392443	31.68312125493306	-3.1760520639241685
O	7.761741648120078	33.91782993791555	-2.4278531891477213
O	7.333498292465248	33.27659507230511	-1.1128806663475699
O	6.0466991550518845	33.07164996609033	-0.7535154782397704
O	7.82686641556556	33.35265021888632	0.23431886422913406
O	5.39774248307595	32.885172378268386	-1.9037701888810763
O	5.760389373756046	34.19624325606183	0.03119986531354524
O	6.7805368268964745	34.01274444735623	1.3859711718760246
O	11.084435879186506	32.69636408432579	-3.213581178300351
