15

O	8.483724474869481	33.97587334577133	-2.030111797225472
O	8.81831559998042	32.54493440146137	-2.028230862809669
O	8.718593805840868	32.00198886253108	-3.3686736328366376
O	8.923389433557006	32.78465945251541	-4.347614971300869
O	7.8209699740912635	32.02831991729599	-1.0456740666356787
O	8.258319995325374	31.439840541686625	0.1725923108814359
O	6.559535432255458	32.971338139454204	-1.112376547696741
O	9.198392623703253	30.41901062946944	0.5427854801580184
O	6.035140817961958	33.19709747691727	0.2937944767713804
O	7.104715209406642	34.187166375231634	-1.759710455886749
O	5.223264694441111	34.247587524535795	0.49251765713043205
O	6.002339548551454	32.27682503646712	1.4425683559205988
O	9.974616107068831	29.629633224766945	-0.07692158317402942
O	9.095432907915663	29.953477952299554	1.8838946151666978
O	9.077668233897827	30.69012245325055	-3.5469005495568187
