72

O	0.10572173354385972	1.0454411730175441	-1.6112826282368418
O	-1.3738066074561401	0.8806384624175441	-1.431933408236842
O	-1.7846841934561404	1.9038347440175443	-2.3459522782368416
O	-1.2136199934561402	2.998783584017544	-2.6357242782368417
O	-1.3508483204561403	0.7280893050175441	0.04412825276315807
O	-2.34855370645614	-0.08134103498245593	0.695282171763158
O	-0.2098258274561403	1.689861567017544	0.648872529763158
O	-3.24542428645614	-1.2027269159824558	0.37922270376315803
O	0.4900994635438597	0.9917585040175441	1.8337002417631583
O	0.6340955335438597	1.818814337017544	-0.5461815532368419
O	1.6418718935438599	1.3539493420175441	2.3641175117631583
O	-0.11482930445614026	0.09957116501754404	2.8535554817631583
O	-4.44420848645614	-1.2162956159824563	-0.09097286223684192
O	-3.2833301664561403	-2.427086375982456	1.1083803117631579
O	-2.6233991664561405	1.439428304017544	-3.3707226482368418
O	1.85603985354386	13.117004084017545	0.19317773276315808
O	-0.29247556245614026	11.186764284017546	2.657454591763158
O	0.7224961635438597	6.832900104017544	6.357433321763158
O	3.10678351354386	5.494931784017544	9.017819811763157
O	6.09832064354386	5.492446854017544	9.004678141763158
O	6.249224423543859	7.422309934017544	5.732139641763158
O	9.05625306354386	10.040395574017545	2.9775793817631584
O	-9.122307716456142	12.799454484017545	0.03578533276315804
O	-6.57065905645614	10.514255224017544	1.757256731763158
O	-6.30268590645614	8.286058894017545	-1.315035745236842
O	-3.4477073164561403	7.020302044017544	-3.4154679282368416
O	-5.11927625645614	7.209383484017544	-6.796663808236842
O	-7.72947886645614	5.329856974017544	-8.779381238236843
O	-5.95479867645614	10.800868094017545	-4.595027548236842
O	3.99841020354386	12.878110384017544	-5.1792347482368415
O	6.4340612435438596	11.502282784017545	-2.593263398236842
O	4.56264261354386	8.690401124017544	-0.8581759072368419
O	4.34714911354386	4.891305694017544	-0.775590911236842
O	2.5763454635438596	5.026822144017544	-4.136970528236842
O	2.50331774354386	1.686665633017544	-5.860496048236842
O	3.7698873535438597	1.6110429730175442	-9.550125998236842
O	0.9278024135438597	0.11767845901754403	-11.614795058236842
O	0.012006862543859742	-0.09598960798245593	-15.268368558236842
O	10.13372003354386	-3.1752798059824556	-2.801926918236842
O	7.0024242035438595	-4.873939605982456	-1.447198668236842
O	4.72518680354386	-7.869405285982457	-1.888227208236842
O	1.6247376335438597	-9.463778715982455	-0.3746504597368419
O	2.47709864354386	-11.149725415982456	2.926047011763158
O	-8.627179656456141	-12.338936615982455	4.905090661763158
O	-7.62227010645614	-8.923590985982456	3.687141311763158
O	-8.93268810645614	-5.401588505982456	3.013879631763158
O	-11.37618936645614	-3.3531127659824564	-1.258441326236842
O	-7.94136486645614	-3.097256535982456	-2.8168772282368417
O	-5.043686596456141	-4.616623155982456	-4.634581288236842
O	-4.60609603645614	-7.648607535982456	-2.3590010582368417
O	-8.22660389645614	-8.718695635982455	-2.849052858236842
O	-7.90132771645614	-8.169690245982455	-6.610982238236842
O	-8.965767476456142	-1.045812875982456	7.525050401763158
O	-5.51559099645614	-2.298098775982456	8.553245761763158
O	-6.2908694264561404	-1.1179422859824562	12.090222741763158
O	-9.283506196456141	-3.515126865982456	12.118440241763158
O	-7.21585120645614	-6.304118515982456	10.495334741763159
O	-2.95304169645614	-10.596354715982455	4.301428421763158
O	-1.2508055214561402	-7.255310565982456	3.6307302117631584
O	1.82062428354386	-5.621527535982456	2.047247351763158
O	5.12309091354386	-6.802170215982456	3.4419483917631584
O	6.2500843235438595	-3.252565265982456	4.262225481763158
O	3.25140859354386	-2.567503835982456	6.514828021763158
O	3.53359681354386	-6.134462435982456	8.014805021763157
O	6.27987521354386	-2.152101465982456	10.387501841763159
O	5.86428091354386	-12.616332415982455	-0.4925556922368419
O	6.37296259354386	-8.262051805982455	-6.277830298236842
O	5.760716363543859	-4.527861585982456	-6.709081418236842
O	7.47568408354386	-1.2077786359824563	-6.005480368236841
O	6.62396605354386	2.229500634017544	-4.658985918236842
O	7.78158303354386	5.0993512340175435	-6.816219928236841
O	7.97044705354386	8.893247344017546	-6.908801638236842
