72

O	1.7278163553636356	-0.0705785688490903	2.1102948215854536
O	1.4167782053636355	-1.16222422384909	-1.981378268414546
O	1.1465013653636356	-0.9476727738490902	2.9200652215854537
O	0.29726615336363565	-1.0682821238490903	-1.216831828414546
O	1.7426324353636358	-1.1198508438490902	4.041363991585453
O	0.4375200263636357	-1.8988372438490901	2.300496521585454
O	-0.7380744286363643	-1.6766427138490902	-1.5438990384145461
O	0.2766619723636357	-1.91892684384909	0.9847430085854538
O	-0.5427016896363643	-2.7280425038490903	0.5340465295854538
O	0.40680252936363565	-0.8146594538490903	0.1940215505854538
O	1.2217384653636356	0.10401848815090975	0.8497824875854538
O	1.7410557253636356	1.0730454631509097	2.9793550415854537
O	0.6943725453636356	1.9170433561509097	2.6985746215854536
O	0.17963454836363563	2.0709067761509097	1.439895681585454
O	0.2946221923636357	2.59090186615091	3.881875891585454
O	-0.16408208163636434	1.6488429741509099	4.6958288315854535
O	-1.0270762026363645	3.13263015615091	3.5642804215854538
O	12.626946135363637	0.4192798781509097	5.727375301585454
O	10.535583835363637	-2.68248017384909	5.030930411585453
O	8.008888775363637	-4.866150663849091	0.2859244245854538
O	8.252900905363637	-5.49356120384909	-3.500707148414546
O	9.466023745363637	-3.70791011384909	-5.589105198414546
O	10.484647635363636	-1.1030983438490902	-2.9799330984145462
O	13.361919535363636	2.57895008615091	-2.2514701484145463
O	7.820183555363635	-5.80350253384909	13.427392091585455
O	7.236981825363635	-5.58665838384909	9.664199801585454
O	4.701348115363635	-2.76009281384909	10.116877891585455
O	4.290409295363635	0.6714654881509098	8.624709161585455
O	3.0219199753636357	2.41206751615091	11.747492591585454
O	12.447964235363637	5.47314205615091	3.295033471585454
O	9.557167655363637	3.1905552361509097	2.4101067715854536
O	6.100186185363635	3.3385033961509096	0.8260968385854538
O	4.754524115363636	4.91219409615091	3.9414444715854535
O	1.3990568253636355	6.6233155061509095	3.3969402715854535
O	1.0725143453636357	10.22944598615091	4.4998401215854535
O	-1.8439397646363644	10.38117289615091	6.950604181585454
O	0.8654693653636356	8.81749819615091	-5.887119668414546
O	-1.6325084146363644	6.02676086615091	-5.166011988414546
O	-5.320551264636364	5.29325432615091	-4.704855498414546
O	-7.674544504636365	2.3807137261509097	-4.0438697084145465
O	-8.132020574636364	0.32659113915090976	-7.217154488414546
O	-13.319363264636364	-7.622911913849091	-1.026290748414546
O	-10.142008274636364	-6.3164598038490904	0.48653987858545383
O	-7.721195254636364	-6.81684417384909	3.3919275515854537
O	-7.726173674636365	-4.88202070384909	8.363636441585454
O	-6.456344224636364	-1.6346892238490902	6.912387651585454
O	-7.094908094636365	1.6554026031509097	5.205502471585453
O	-9.088122494636364	0.2723106971509097	2.249869961585454
O	-11.591588064636364	-1.3875885138490904	4.584929901585454
O	-11.763671164636364	1.8105626311509098	6.657223791585453
O	-2.8859952446363644	-10.84967595384909	2.884480601585454
O	-2.4157862446363643	-9.64829355384909	-0.7208630514145462
O	-0.8971006976363642	-13.01367705384909	-1.552433308414546
O	-4.254769184636364	-14.554253153849091	-0.5243314394145462
O	-6.252576124636365	-11.83522745384909	-2.3584724484145463
O	-9.576913674636364	-3.98206945384909	-3.9030055484145465
O	-6.043010884636365	-2.69781831384909	-3.1979515084145462
O	-3.7113158146363645	0.2837546191509097	-3.7650318884145464
O	-3.0869617246363643	1.1220415531509098	-7.379630188414546
O	0.6946409053636355	0.8786308378509098	-7.100365798414546
O	0.5598902933636356	-2.7518896438490903	-5.970092468414546
O	-2.2034985946363643	-3.55355283384909	-8.533730788414545
O	0.05469187536363568	-2.13750086384909	-11.271137708414546
O	2.9946374053636355	-4.16972170384909	-10.015879008414545
O	-8.764062594636364	5.16520446615091	-8.422968648414546
O	-5.929408914636364	9.84136603615091	-3.6634775784145464
O	-2.9573284546363645	9.53559115615091	-1.283721808414546
O	0.8367034853636357	9.747307636150909	-1.367035178414546
O	3.8192336853636357	7.91225180615091	0.09879939138545381
O	6.370579275363635	10.143038576150909	1.776378161585454
O	9.802150835363637	10.03813502615091	3.4180012615854536
O	7.348503365363635	-1.6228594938490901	-12.577998808414545
