73

O	2.682535734428571	1.0820756710696429	1.5318874893446432
O	1.4075621444285709	1.6215306693696427	1.6109929993446432
O	1.7302777544285708	1.7339348843696427	3.7794785493446437
O	1.005856194428571	1.3026691773696428	2.823612149344643
O	-0.3502125295714289	1.2377011863696428	2.7704409493446436
O	-2.1280662855714287	0.7980605283696427	1.3101284193446432
O	0.769002244428571	2.3878534383696426	0.6645791543446432
O	2.662597644428571	-0.8082326716303572	0.28529490734464324
O	3.6349333444285707	-0.6056480016303571	3.565038429344643
O	-0.6329733256714289	2.394870408369643	0.8758696893446432
O	3.8007420144285713	-2.1392141016303574	2.241288629344643
O	-1.0450970625714289	1.3153693333696428	1.6020484193446431
O	0.6445424444285711	2.3700250583696425	-0.8512616496553568
O	-0.35906547157142893	3.474927418369643	-1.0620405976553569
O	-1.291290362571429	3.1894799483696428	-0.17139539945535676
O	2.639257614428571	-0.3513702316303573	1.6228954893446432
O	3.945927124428571	-0.6781944716303572	2.2780016793446434
O	7.885183804428571	11.071882118369642	1.6914811793446431
O	4.323903594428572	10.551857678369641	2.968705319344643
O	-0.694790564571429	9.174097338369641	0.49120035934464323
O	-2.987965305571429	9.505536838369641	-2.563142240655357
O	-2.203703705571429	9.701792868369642	-5.450509230655356
O	1.521598494428571	9.557504218369642	-4.626175490655356
O	2.884658744428571	10.319901578369642	-8.765070440655357
O	5.835071104428572	10.476863368369642	-6.340866600655357
O	5.131737104428572	9.859942138369641	12.260858309344643
O	3.176151124428571	9.099911968369643	9.071111469344643
O	4.652439624428571	5.589703808369643	8.879373589344643
O	6.400592544428571	3.5966856383696424	6.200624439344644
O	8.854541574428572	1.7913508873696427	8.450676369344643
O	10.53745487442857	8.537733958369643	-2.564936150655357
O	7.225928164428572	6.972333638369643	-1.6035083306553568
O	5.300320674428572	3.761764318369643	-2.1600036906553566
O	7.514666244428572	1.959813761369643	0.22381141034464325
O	7.313321024428571	-1.8227963716303572	-0.15235851595535677
O	10.543221874428571	-3.7064485116303567	-0.7011845146553568
O	10.816327474428572	-6.296254871630357	2.0836370693446433
O	4.141498304428572	-3.6073406416303566	-8.973667600655357
O	1.4104842644285709	-4.562484351630357	-6.497134440655357
O	-0.3051867425714289	-7.505276521630358	-4.842633410655356
O	-3.123014505571429	-8.248578851630358	-2.399864790655357
O	-6.4958658055714285	-7.836332891630357	-4.122318880655357
O	-11.501136625571428	-8.619320871630357	6.0056782093446435
O	-8.52578769557143	-6.337358451630357	5.933451409344643
O	-6.541005325571429	-3.851921861630357	8.040851509344643
O	-2.533844915571429	-4.560604301630357	11.490178809344643
O	-0.2558170985714289	-4.941753131630357	8.496168559344644
O	1.197072544428571	-7.024257421630357	5.733974879344643
O	-2.103980505571429	-8.298910081630359	4.310242369344643
O	-3.163043995571429	-9.705433181630358	7.683905499344643
O	0.3013276354285711	-11.226289481630358	8.123730039344643
O	-8.095747475571429	2.2734648583696426	8.101929059344643
O	-8.756661875571428	2.0382857783696426	4.335390069344643
O	-11.270829725571428	4.868246878369643	4.7055243493446435
O	-13.197549925571428	2.6145701083696427	7.124052809344644
O	-12.747498425571429	-0.4497157616303573	4.861244599344643
O	-8.696827305571428	-7.032743041630357	0.9845975393446433
O	-5.998447755571428	-4.441257421630357	0.13039427434464324
O	-3.113295985571429	-3.7707076816303573	-2.2644532206553567
O	-4.066073185571429	-3.7202242516303574	-5.913596710655357
O	-2.693892185571429	-0.23681318163035714	-6.562697970655357
O	-4.940709485571428	1.3350583533696427	-3.908299330655357
O	-7.920903775571428	-0.8351039716303572	-5.058159990655357
O	-7.371572475571429	0.4377963433696428	-8.619312680655357
O	-7.189184265571429	4.011712528369642	-7.392220090655356
O	-3.582584065571429	-10.633439681630358	-7.112983740655356
O	3.524973554428571	-10.071319681630358	-5.786144370655356
O	5.605010974428572	-7.201606031630358	-4.3726560506553565
O	7.132189154428572	-3.9042636116303573	-5.480297630655357
O	7.527184894428572	-0.3596083016303573	-4.169745690655357
O	11.092016374428571	0.9487598076696427	-4.352202710655357
O	13.141914074428572	4.101665518369643	-3.7577189906553565
O	-4.913869115571429	6.649928118369643	-11.868929990655356
