70

O	0.1594405691960783	2.7207376348823527	1.556742462058824
O	-1.1415046768039219	3.216779306882353	1.7552458420588242
O	-4.056423600803922	0.7793364138823529	-1.971312387941176
O	-3.729989410803922	1.5194906608823529	-3.262939497941176
O	-4.152489830803922	3.081002056882353	0.3714064950588239
O	-2.7390899808039215	1.3940340458823528	1.585294542058824
O	-2.742587420803922	2.564947467882353	-2.931390517941176
O	-4.2403481308039215	2.879862336882353	-1.130876833941176
O	-2.736210600803922	2.7442442218823526	-1.445438027941176
O	-2.911043190803922	2.2877293728823527	0.5082294620588239
O	-1.4666273851039218	4.375188896882353	2.5588090220588238
O	-2.114128350803922	5.341044986882353	2.0281081720588237
O	-1.6312228848039219	0.7453132168823529	1.577035242058824
O	-2.695929540803922	2.000082603882353	2.8612384220588236
O	-3.221438910803922	3.8814314868823527	-3.1315434979411765
O	-4.879520960803922	1.6311089478823528	-1.2622612139411762
O	-2.4509219258039217	1.6854849788823527	-0.6796262789411761
O	-1.8401621418039218	3.311989716882353	0.5090553750588238
O	-1.4847290513039217	4.465858406882353	3.9476629320588237
O	-6.8035458108039215	11.880935956882352	-7.895860407941176
O	-8.437726840803922	8.467608556882352	-7.688805767941176
O	-6.469036100803922	2.865464576882353	-8.946151137941177
O	-1.7479745508039217	4.700493646882353	-11.277141977941177
O	-13.146141620803922	7.913228136882353	-3.7006941179411763
O	-11.05851361080392	7.966436126882353	-0.5066063739411761
O	-7.360723170803921	8.656937486882352	-0.09222551594117609
O	-1.2557659558039218	13.238343356882352	-7.646442367941176
O	-1.802229462803922	9.651761436882353	-6.596251997941176
O	-0.2880795808039218	6.799480096882354	-4.397655467941176
O	-0.9190874698039218	8.777163396882353	-1.322282887941176
O	1.2777602891960782	7.698019616882354	1.5127115920588239
O	3.2367983291960787	10.403388956882353	3.377191262058824
O	2.2720144091960783	10.038510506882352	7.026150112058824
O	9.320562879196078	4.298639576882353	-1.576767587941176
O	7.6685011691960785	1.1221735368823529	-0.3427490529411761
O	6.346442479196078	-0.709770113117647	2.6687871620588237
O	4.345687239196079	-3.6316820131176475	3.9676594120588233
O	5.2409866691960785	-7.011172233117648	2.5264584220588238
O	-3.3009478308039215	-11.873719943117647	7.886815492058823
O	-4.284209590803922	-8.478848943117647	6.522597372058824
O	-7.3512279608039215	-6.431250393117647	5.727921452058824
O	-8.790040940803921	-2.6445868531176475	10.560869922058822
O	-6.363790000803921	-1.3982725531176472	7.918344762058823
O	-2.9855334108039218	0.2980800968823527	8.502353572058823
O	-1.2625118038039218	-3.0491010931176468	7.965280792058825
O	-3.253393910803922	-4.735025083117646	10.728264322058823
O	-10.496972660803921	-6.306714843117648	1.598808992058824
O	-7.346659190803922	-6.717158313117647	-0.5290502029411761
O	-9.216636460803922	-8.511321443117648	-3.3918329279411763
O	-7.1670491908039216	-11.384567043117647	0.4483042480588239
O	0.23949204919607814	-8.785074743117647	4.273494542058824
O	-0.31784732080392186	-5.603260803117648	2.3071649920588237
O	1.3310782891960782	-2.7154688831176474	0.4931931130588239
O	4.301307809196079	-3.8438731431176474	-1.4796977479411761
O	3.5194843691960784	-1.888389393117647	-4.621223587941175
O	0.3036670191960782	-3.9290301031176473	-5.040568807941176
O	2.1959539391960785	-7.081845713117648	-4.365878127941176
O	4.643742299196078	-6.260082333117648	-7.1894757479411755
O	1.7168535191960783	-5.484840533117648	-9.494985557941177
O	-0.07717454080392172	-8.745708743117648	-8.698419347941178
O	11.469377479196078	-7.711158563117648	1.6516265020588239
O	9.779442079196079	-4.662069383117647	3.1307057820588238
O	8.527677079196078	-4.960081963117647	6.711096822058824
O	8.261281039196078	-1.2120681131176472	7.268824502058824
O	9.157047179196079	1.8854291158823528	5.236449072058824
O	7.039584559196079	4.752879626882352	3.810948782058824
O	6.695838919196078	6.721793746882353	0.5863968140588238
O	4.172952929196079	8.262047176882353	-1.7941372079411761
O	4.239742779196078	11.997684456882352	-2.2963378079411765
O	4.1995421891960785	-2.6303559131176475	-13.517178077941177
