83

O	-1.016605717962264	-0.6977470957169797	-1.8039821537735847
O	-2.1353559529622643	-1.1478849257169799	-1.0964700447735847
O	-1.9170116039622642	-1.7160338657169798	0.08708826822641524
O	-0.7129368759622641	-2.0962452757169796	0.6150938562264152
O	0.06861964603773596	-2.43735807571698	-0.4592731968735847
O	-0.016511563962264164	-1.5843574257169797	-1.5322584977735847
O	1.021461546037736	-3.2392088457169796	0.23729863922641525
O	1.719452256037736	-2.6055563757169797	1.3695971162264153
O	2.9805698960377356	-3.2863912357169793	0.9882684562264152
O	1.3250954060377358	-2.8227065657169796	2.772742276226415
O	2.3497614460377356	-2.6510162057169797	3.587472166226415
O	0.45732953603773585	-1.9015596657169795	3.4944820462264152
O	-1.1986974275622642	0.7806717352830204	-2.163831173773585
O	-3.128255203962264	-0.35964836571697967	-0.8642891587735847
O	-0.9954715089622641	-3.1533288057169795	1.3428656562264152
O	-2.509621583962264	-1.3165929557169798	1.3209160662264152
O	-1.729466554962264	-0.1888966657169796	1.854013256226415
O	-2.603691053962264	0.5254331082830204	2.5760297862264157
O	-3.0911134539622642	1.4866435742830204	1.6940970662264154
O	-1.701206781962264	2.0565123142830206	0.9472141062264152
O	-0.8608230829622641	0.48775491228302037	1.1082657862264154
O	0.15601512603773604	1.2958388752830203	0.6772054162264154
O	1.0672982460377358	1.3999691032830204	1.6717454362264152
O	1.2755805660377357	0.8544786636830204	-0.10713402177358472
O	-4.172484493962264	2.4034329042830205	1.6071821562264155
O	-4.763215173962264	2.1533724842830204	2.860028536226415
O	-5.773412703962264	2.97839974428302	3.0725245562264156
O	-5.731218003962264	4.221432644283021	2.4525956062264154
O	-4.567120903962264	4.67912439428302	1.9618609862264151
O	-3.7141014639622645	3.73192308428302	1.5961731962264152
O	-5.001353763962264	-13.758990695716978	-3.272567953773585
O	-6.720515263962264	-11.099475595716978	-1.2288688397735847
O	-8.561148483962263	-5.51695198571698	-2.4595052237735846
O	-10.350398193962265	-2.97766301571698	-4.6131175037735845
O	-7.7493323939622645	-6.10618690571698	-7.903075583773585
O	-6.119365703962265	-9.645093095716978	-10.876215733773584
O	-5.293928683962264	-13.780764395716979	7.6771872062264155
O	-5.957503963962265	-11.33264119571698	4.892552716226415
O	-2.298368393962264	-10.199714495716979	4.906972936226415
O	0.104275076037736	-9.679822495716978	1.9743879462264153
O	3.2067973360377353	-11.052267895716978	3.653264616226415
O	5.455859086037735	-9.800809095716978	6.4721297662264154
O	-1.7814767369622642	-13.16822939571698	-7.934473723773585
O	-2.324831633962264	-9.861769395716978	-6.2585115837735845
O	-0.7669378309622641	-6.3744163657169794	-5.976097293773585
O	2.212162236037736	-7.897928895716979	-4.146056053773584
O	5.254241986037735	-5.59021711571698	-4.081025803773585
O	8.596789586037735	-7.063513565716979	-5.177742213773585
O	10.859865186037736	-6.27883909571698	-2.1737947237735846
O	14.284260886037735	-7.195174235716979	-0.8486815757735847
O	5.569074376037736	4.14685270428302	-5.902250363773585
O	4.699402576037736	6.436735004283021	-3.0504881837735844
O	2.8509113260377354	9.623455064283021	-4.014283953773584
O	0.9673680760377359	8.62127268428302	6.264515436226415
O	-0.564307076962264	5.45220155428302	7.767198556226415
O	1.152575796037736	5.01291229428302	11.184883666226415
O	3.965551046037736	2.4024749642830203	11.065448066226415
O	3.3677517960377354	1.6094991172830204	7.403537776226415
O	6.2447330460377355	1.3191449942830205	4.766073756226415
O	5.117874706037735	4.834216554283021	3.633618216226415
O	6.055484726037736	6.25692559428302	7.074118246226415
O	0.04578601603773591	10.07304893428302	11.006631366226415
O	-3.206642583962264	8.135082844283021	10.549014966226416
O	-4.559849503962264	4.732708874283021	11.679571566226414
O	-5.185457943962264	3.4004765142830204	8.148533006226415
O	-5.320448763962264	4.85380140428302	4.903474626226415
O	-9.275876843962264	4.99901719428302	4.738834886226415
O	-9.006787423962264	7.35878768428302	7.676145916226416
O	-6.280657313962264	9.21611771428302	5.776811526226415
O	1.269043206037736	9.989551784283021	1.3659339662264154
O	0.4931661460377359	6.59364623428302	0.11035887422641533
O	0.731765066037736	3.8637272642830203	-2.606735073773585
O	0.20230794603773594	5.59797671428302	-5.971220383773585
O	-2.049819380962264	2.8646465242830206	-7.289545633773585
O	-4.520169173962264	3.62444290428302	-4.455135313773584
O	-4.240751813962264	7.3519408042830205	-5.274402953773585
O	-5.059687373962264	6.80185347428302	-8.933265453773584
O	-8.035312543962263	4.700996054283021	-7.895355073773585
O	6.298706706037736	9.02594477428302	-7.744070903773585
O	8.483471726037736	9.54371137428302	-4.664982243773585
O	10.036562786037736	6.08900156428302	-4.737701223773585
O	8.692866186037735	-0.41139041571697954	-6.818798893773585
O	4.012274156037735	-5.7403118157169795	-8.383230143773584
