19

O	40.876702310132266	2.284298590833099	7.052288734050503
O	40.733373505859916	3.1047567607136792	5.921137108794554
O	39.697013055245186	8.20625704368857	7.686824344451454
O	41.846590324324154	7.712967437341801	6.700374583172676
O	38.88649427639709	5.631412758325608	5.764170369881901
O	38.887588505644175	3.9978137883606726	7.508608780589222
O	40.994043587963574	8.88332121420995	7.200940116542318
O	39.83445837203497	6.841186193759659	5.75271849450024
O	40.99628905522681	6.554997624456983	6.632181385764792
O	39.65704163840792	5.016937405243128	6.929881485810759
O	40.08161712648921	2.7444262074554304	4.691187041760008
O	40.187487396171136	3.602979151352365	3.7570507533106587
O	39.148261445360625	3.5324963332573605	8.64507280896117
O	38.35180442496225	2.9899179782850966	6.739435860239855
O	41.643315701294696	9.134007726733948	8.454115522214453
O	39.08440100078133	7.69993166953099	6.577387979117544
O	40.26194541507181	6.019341953967793	7.713464955086655
O	40.800913644982366	4.461549054007517	6.181045419719412
O	39.465488048431105	1.568414008304186	4.333402878608712
