21

O	40.80901084909673	2.149137734987673	6.618867772440938
O	40.25865698799218	3.061460083872763	5.7023887554449875
O	40.427802225639624	9.930389884957407	8.901348981113545
O	38.861178141390944	4.265287185957797	7.309389980608564
O	41.69771633940999	8.778312686790514	7.166556760427726
O	40.22919846317784	8.778415013583185	6.936133219721429
O	39.83709228871777	7.404922070227725	6.640973650142954
O	39.6442267701982	5.241641804607627	6.570349804868783
O	42.04875489872424	7.401305331736181	6.962645731219947
O	40.43687325344534	6.929298500964461	5.303169217761379
O	39.28692435689235	5.862982034642405	5.250368977782914
O	39.555831253133164	2.468729946394932	4.609486731174532
O	38.760265415921864	3.1504773032989055	3.9342567601088323
O	39.592388094840786	3.7796668917979517	8.261098514773325
O	42.32262614539579	9.370923376932886	8.170600667754856
O	38.398461254173526	3.018953272775627	6.87239039280931
O	40.20300816432822	6.262245446418973	7.380775869820617
O	41.662918842719016	6.597130636274358	5.903131010475295
O	40.66897636366008	4.372460532205093	5.94096052064586
O	39.71632636993546	8.87809813661304	8.300899830417235
O	39.262097499739724	1.1068864459916394	4.627747158024317
