21

O	40.782315907679006	2.3635677205524366	6.555543844903167
O	40.379274721376945	3.334143561915175	5.635672326861734
O	40.097261773471295	7.921629481089299	9.11326541064414
O	38.682657156211334	4.2959990121170115	7.1247133486084335
O	41.678684066661056	8.642620812025498	7.567682322578815
O	40.24402625551087	8.704602217191688	7.001173564063112
O	39.86082454324302	7.305202594235717	6.7923121184610205
O	39.55822330791052	5.292452156309133	6.591030193220304
O	41.96074981248282	7.2320166501177585	7.587702672917189
O	40.7569284169325	6.864220079996285	5.602692152024412
O	39.54057121864052	5.957182313693471	5.246603653186845
O	39.811385754754355	3.115757545387151	4.345135386455772
O	39.989490899131475	3.9448997647680235	3.4406642039880406
O	39.2382228184485	3.7252393233013805	8.13494616505606
O	41.730880435060485	9.420269465794732	8.64578975962409
O	38.287634337190134	3.176373322326956	6.383448242926896
O	40.07009898844921	6.191133216125849	7.551768492508975
O	41.820381084222966	6.460848989493487	6.436907566857674
O	40.78994460577938	4.560125562855053	6.161203308022754
O	39.480538770016096	8.913083442360572	8.234144964532595
O	39.34727399026849	1.8723298533301942	3.9050821111686105
