24

O	41.62324201913916	5.466969663813072	6.459348102750631
O	42.14306155710503	6.356045445507766	7.402978345461357
O	41.52298685455249	3.3538557622936693	5.983124234221789
O	40.23765115905316	5.5937950783913095	6.0282089272595
O	39.21761255258748	5.555760299383081	8.715778017239256
O	41.44135629534682	3.9967965291796426	8.265258418620192
O	41.772310809874966	7.46455362607875	6.619724319572374
O	38.95722454086516	2.843781265951903	7.114213411481917
O	40.39578942523446	7.738161325464507	7.028229410862366
O	37.489594802017926	4.127007446851464	6.734827278939178
O	39.55805656520829	6.5770663832087255	6.74185354025404
O	38.29505467523197	7.0015683151255335	7.173224888352902
O	38.21651859736642	7.612378604730589	8.604303697432158
O	39.26002438092123	8.514012100227529	8.946655862134401
O	40.46727885276654	7.8060795699988805	8.466801107382885
O	41.545717981235434	4.146230320597321	6.99713869172932
O	37.94951637244377	6.281140213161965	8.629271012978663
O	38.61949783289057	4.305339997626815	9.045894375367872
O	38.3019653324478	3.669211699042842	7.809434800502267
O	37.79432972218517	4.750294328893776	10.282786024019163
O	38.20434448774833	6.083840706706324	10.870201066653648
O	39.45210700137736	6.248437501329464	10.057055053211613
O	37.36825906706774	7.1260311141815595	11.040261834160786
O	38.77205948874116	6.2197046118746	12.14207918162729
