15

O	39.477362750763426	4.475786228652971	6.886753018842295
O	40.52458705904585	5.983806022382737	8.213438531161216
O	38.07333053885146	5.540765206298364	5.428488205092512
O	40.45253389022409	7.033267525788666	5.857936877924001
O	39.75240500390262	4.759006795953322	8.135902422365527
O	39.702803675681665	4.588122280129004	3.0022662695120257
O	40.989554949418995	6.1682537162202005	6.89422086102243
O	40.664077992774615	6.149243817534035	4.784360384309528
O	37.493729000976685	3.5060324608612676	5.472618820283528
O	40.86089716224007	4.690969919870323	6.38919987822643
O	39.55749024954483	2.6888199769333068	3.7807919385900064
O	40.725886338386594	4.781090265809995	4.942903786990067
O	40.94182546903877	6.602139210620333	9.44525408586874
O	38.347419358840035	4.442893509947393	5.9471518074177805
O	39.805727835862065	3.980024249412736	4.148544384932639
