24

O	42.6195683325157	5.26612054009505	4.9444269819098
O	41.299384725093795	4.791866063417308	5.1709936658069955
O	40.82786398923088	4.206288449605847	3.9169091699456553
O	39.68955479738116	4.563701940156907	3.4100354640825046
O	40.469043120555064	5.923430527654705	5.514155568076102
O	40.20348830914463	2.930175075930931	4.4666715382390745
O	38.827202043343696	6.973144476099483	8.800584185452564
O	37.040413290084345	3.015992226661609	10.301695595003874
O	40.125327815606255	7.125185670684313	9.116267375360447
O	38.81681241794264	3.314228660501043	9.809903084233738
O	40.811443318822484	6.529321411186398	8.06303060896617
O	40.231092581064125	5.9376470033950195	6.930802239637374
O	39.109545172950426	5.247506477380176	7.318318422934673
O	40.048132664313016	7.26111964860016	10.660766806519494
O	38.4649656055872	5.783515768176443	8.32140789651846
O	38.17278829209696	8.072016653855052	8.687728510228467
O	38.63432556561548	4.243404830234791	6.785277233512042
O	37.979788903839506	3.735126917626194	10.947985958208271
O	37.10517437907934	5.501622958317445	8.505608907112967
O	36.91790322185959	5.772738325726156	10.023241750357895
O	37.781907035296214	5.137808024597948	10.763927193595066
O	36.97618643425407	5.708960154152041	12.303640027988926
O	37.017671752822054	7.361476774773788	11.605855095639946
O	36.61792507266961	7.054474584671715	10.342601955647197
