73

O	2.766041537250001	-0.11220705534615383	-0.030957019499999627
O	3.4729590072500005	0.3975708586538462	1.1004346385000003
O	0.41765742425000085	2.651934199653846	1.7384373075000004
O	1.183915607250001	-1.4641715503461539	2.9475306275000004
O	-0.024002458749999067	2.4781841696538462	4.255174047500001
O	1.3815082872500009	2.9923158596538464	3.8268698275000004
O	2.028239847250001	1.695976755653846	3.5135039475000003
O	2.070716737250001	-0.31722889034615376	3.0234258075000002
O	0.027319936250000953	1.6806331916538462	5.553448947500001
O	1.954134407250001	0.9288064816538462	4.7901438575
O	2.701425427250001	-0.29346359034615377	4.419079587500001
O	4.98020851725	0.27798726065384616	1.0803983915000004
O	5.4385383572500015	1.0109463196538462	2.0465081375000005
O	-0.036044953749999054	-1.1821907203461537	2.6697466175000004
O	-0.6713087237499991	3.659460409653846	4.157202237500001
O	1.635791707250001	-2.459578190346154	2.0356397275000004
O	1.474716747250001	0.8610755299538462	2.6220193675
O	0.658547857250001	0.4752668906538462	5.136675017500001
O	3.282713157250001	-0.48294140034615385	2.2541027975000003
O	1.135583307250001	3.6075954796538463	2.5308406475000003
O	5.640360927250001	-0.9724255303461538	1.1826237435000002
O	5.184375417250001	11.645478389653846	8.9887330775
O	2.477719897250001	9.256295099653846	10.1143616575
O	-2.7991517027499992	7.566130599653846	7.641902397500001
O	-2.475672722749999	11.262709289653847	3.5595493675000003
O	0.631585647250001	14.820673289653847	2.2862608675000002
O	4.193666317250001	4.875759339653846	14.127290757499999
O	6.085762637250001	2.7329939896538464	11.614644757499999
O	7.114146547250002	3.488722099653846	8.0482094775
O	6.535750187250001	13.235060589653846	3.7093656975000004
O	4.218792407250001	10.213455579653846	3.6443866575
O	3.256410037250001	7.172636269653847	1.4421561305000004
O	6.6635080572500005	5.776388459653846	1.8847273675000005
O	7.416611087250001	3.257358589653846	-0.7954657924999996
O	10.77566408725	3.701037019653846	-2.6526272324999995
O	12.48654668725	0.3439311646538462	-2.1847211124999997
O	1.157150477250001	2.369034139653846	-7.7429067824999995
O	1.364633747250001	-1.3502752303461536	-7.117318642499999
O	-0.3230224057499991	-4.424451250346154	-5.708645132499999
O	-3.882715682749999	-5.006121820346154	-6.834985872499999
O	-4.97548289275	-13.675972210346155	0.16477017950000034
O	-3.030381112749999	-10.863181910346153	1.7693136975000003
O	-1.902542142749999	-9.652815810346153	5.1541312775
O	3.950620837250001	-11.644761910346153	6.381678587500001
O	3.4899870872500007	-8.354561400346153	4.536243567500001
O	5.268222047250001	-7.131170190346154	1.3908901415000003
O	2.3167921272500007	-8.396714410346155	-0.6915217524999996
O	2.495933517250001	-11.928633910346154	0.6613253975000004
O	-4.216931432749999	-6.802628690346154	8.8193744275
O	-5.782269562749999	-4.804058830346154	5.974113587500001
O	-8.89536351275	-3.838328270346154	7.9778028775
O	-9.667395692749999	-7.475294140346154	8.7324186975
O	-9.00773146275	-8.191452400346154	5.0699786075
O	-4.45418944275	-8.341810090346154	-2.3795915825
O	-3.0169976527499993	-5.078262910346154	-1.1573262124999997
O	-1.5594671327499992	-1.6561853903461539	-2.0362845024999996
O	-3.625828452749999	-0.19161280334615383	-4.9146955325
O	-3.8685888027499993	3.3002576196538462	-3.4543469925
O	-5.8363155527499995	1.875297639653846	-0.5024922124999996
O	-8.005475892749999	-0.08497833634615382	-2.9088784325
O	-8.90273220275	3.107414649653846	-4.823201052499999
O	-9.70902101275	4.839038899653846	-1.5424049125
O	-11.94327241275	2.005493189653846	-0.3170160414999996
O	-4.7857922627499985	-3.5138297103461538	-12.9222546425
O	-1.489290933749999	-3.3008038803461535	-11.0652146425
O	0.29748908425000087	-6.586661700346154	-10.3733132425
O	3.672221407250001	-4.9697899203461535	-9.6933534425
O	5.059163257250001	-1.4193867303461536	-9.846661042500001
O	6.5071053172500015	0.9264988516538462	-7.185714312499999
O	6.248195037250001	4.553909889653847	-6.123609742499999
O	6.079923617250001	6.832009669653846	-3.1086732524999996
O	8.833047897250001	9.358610619653847	-2.6058021024999998
O	-9.62539239275	10.167548919653846	-3.0046030425
