19

O	42.00034259132383	2.9524328752549525	6.881929041106922
O	40.87809918247937	3.254745256063492	6.090034842973727
O	38.79563063621463	7.590254457592543	8.36858726698886
O	39.69876610483266	8.733595600384053	7.921591139976163
O	38.54459243643789	5.590197110985666	5.773982162157973
O	39.00915680242938	3.847896488023	7.524882754950614
O	40.76016691093848	8.149799815388599	7.078692473755192
O	38.89644858694117	7.011299826214328	6.1760963133074025
O	40.333704037566214	6.770929816653409	6.682346997448805
O	39.42841857904886	4.975121202500694	6.7887357341572745
O	40.62037791518749	2.695723957522122	4.780681462838863
O	40.44890483782697	3.48323751554188	3.7886137942603444
O	39.85503012340243	3.4248494699257286	8.39310276034063
O	38.79330625637104	2.681372397529726	6.756885000260224
O	40.72596447203707	8.593249283440187	5.7353113291731885
O	38.035821215822295	7.272660440764411	7.260623835180498
O	40.07556158300571	5.883852084880523	7.6494478032461
O	40.666908601976004	4.6698404923830275	6.034519381463579
O	40.18011945850831	1.4101458693672408	4.4791432658162575
