21

O	40.286516547721455	10.10158786673011	10.657323717880509
O	37.64171182689071	7.599723617034653	10.250638433031291
O	38.467698631813825	8.401076005880801	12.481472018885821
O	38.1337374668857	9.654565347770829	12.847893967375692
O	37.8048140713256	7.082455000494276	8.90969499484352
O	40.5654003106306	3.7692246297763816	7.47280055953096
O	39.03986328724639	7.874811964157101	13.426115358088776
O	39.096167347124435	7.013498359656666	8.332649619396507
O	39.910828617898964	7.792951467620732	9.14989947196323
O	40.290796347833925	4.11293336391031	4.523544084323982
O	39.699029563673825	8.439908156111764	10.337734010284455
O	38.72046353403538	2.9770399115925765	5.340277471099597
O	38.61623879137486	8.141661706208607	11.060508558791508
O	36.556546593904734	4.112684415981813	10.99073913474654
O	39.26023567720775	5.906629483340837	7.433937738741859
O	37.61205225913697	2.6079009349477156	9.704789161721795
O	39.93640512977438	4.869888978912833	6.720611766301774
O	36.764475344994494	5.92748461626373	9.042574274849528
O	36.85372462120663	4.582206030271575	8.643405093108415
O	36.78707371932117	3.685832165303222	9.848312508933404
O	39.461173062423306	4.158458801219735	5.518822533728567
