71

O	-2.627414417442308	0.622542125711538	-2.1983248255961536
O	-2.922916017442308	1.979643084711538	-1.9881949955961538
O	-1.172970251572308	3.302184715711538	3.0521991344038466
O	0.01475419255769217	4.155528865711538	1.1291248744038462
O	-3.597539507442308	3.255490155711538	0.7932954994038461
O	-3.4590561274423077	0.917803177711538	0.31605959640384623
O	-0.0537299774423079	4.284858995711538	2.6541538544038463
O	-2.373208107442308	4.104415745711538	1.1709948544038462
O	-1.143145265642308	3.415774705711538	0.7041669054038462
O	-2.6916368074423076	2.087075124711538	0.41335837840384626
O	-4.1138559674423085	2.6626434317115377	-2.4154820355961535
O	-4.105606367442308	3.922018865711538	-2.2288333355961534
O	-2.9340410374423076	-0.22249930428846199	0.30654076640384625
O	-4.5964455674423075	0.878368733711538	-0.4581081585961537
O	1.104831672557692	3.520211485711538	3.0117789244038464
O	-2.3340426974423076	3.8109580057115378	2.5466613244038463
O	-1.4928244374423079	2.1226786847115378	1.1524847544038461
O	-2.2610833974423077	2.554618665711538	-0.9184380175961537
O	-5.206056517442308	2.183021534711538	-3.0993607055961534
O	-1.7426310204423079	15.069294895711538	3.1723221444038465
O	-2.477484507442308	12.426945495711538	5.775284164403846
O	0.709311712557692	7.811654375711538	7.954830094403846
O	5.355171882557691	9.345919285711538	5.327795554403846
O	6.685622232557693	13.029900495711537	2.3869702844038465
O	-8.472655207442308	11.278279605711537	6.826547924403846
O	-9.082184137442308	9.313539725711538	3.6106640144038464
O	-6.8388930274423085	8.90231577571154	0.5859448504038463
O	1.8695922225576922	14.854089795711538	-1.2264674755961538
O	1.340927232557692	11.406719585711539	0.2597839424038462
O	1.4214077025576919	7.616375655711538	-0.6204815955961538
O	-1.380238380442308	8.132109595711537	-3.0363015655961534
O	-1.566077419442308	5.3129829257115375	-5.529622675596154
O	-1.827877888442308	6.333835505711538	-9.186817915596155
O	-4.909978107442308	4.550180925711538	-10.503311555596154
O	6.961858992557692	2.003746208711538	-7.352303205596154
O	5.488521192557693	-0.9217155442884621	-5.439495705596154
O	2.772083382557692	-3.554505414288462	-5.404431705596154
O	0.9329341725576921	-6.167288154288462	-3.4054177755961534
O	3.109291442557692	-8.597128504288461	-1.500510935596154
O	-5.816709967442307	-13.277816104288462	3.3510069244038463
O	-6.172886307442308	-9.509463204288462	3.1321706944038463
O	-8.187975047442308	-6.675880644288462	4.594018024403846
O	-13.109861717442309	-5.340965744288462	0.8887288884038462
O	-9.794920257442309	-3.6225612842884622	0.21498288640384627
O	-8.027623637442307	-3.2010393142884617	-3.1337496455961538
O	-5.887713247442308	-6.248707284288462	-2.3450344355961534
O	-8.894501467442307	-8.501951204288462	-1.804805345596154
O	-7.687766627442308	-3.9269143942884623	8.964486734403845
O	-3.918141587442308	-4.089460194288462	8.372904254403846
O	-3.0385851174423077	-3.848656034288462	12.107058344403846
O	-3.6774196574423077	-8.573778604288462	9.962187444403845
O	-1.354758270442308	-9.768061304288462	1.6288433944038463
O	-0.9767099384423079	-5.993961784288462	1.5628892044038463
O	0.9138078525576923	-3.023185394288462	0.11773905340384624
O	4.580382112557691	-3.817072384288462	-0.12805592359615375
O	5.8079602625576925	-0.528491854288462	1.2471078744038462
O	4.1572993425576925	-1.3682282842884619	4.593141654403846
O	5.582772872557692	-4.808633214288462	4.486677884403846
O	9.122398882557691	-3.3891202642884624	4.107302574403846
O	8.451827592557692	-0.993041354288462	6.9858309844038455
O	7.159662222557692	-3.733985074288462	9.291783414403845
O	8.307407042557692	-10.284047504288463	-4.725964525596154
O	5.587767202557693	-7.948413544288462	-5.957944595596154
O	2.324700862557692	-9.564920304288462	-7.059649295596154
O	1.149466252557692	-6.567326914288461	-9.064753775596154
O	2.6414722625576923	-3.1817947942884617	-9.990207995596155
O	1.6176269025576921	0.42697521571153807	-9.213215645596154
O	3.189442852557692	3.6878544257115378	-8.059723165596154
O	2.686108542557692	6.680940835711538	-5.780754885596154
O	2.458340732557692	10.100425815711539	-7.355621985596154
O	12.458426582557692	2.744029455711538	6.315640124403846
