21

O	38.154785684839545	2.3880257571717114	6.611090495159621
O	39.34813967969922	10.171857158239153	8.435216460863579
O	41.96191523549807	5.41659259870824	5.713509876875786
O	39.42036617289378	3.9318204010428586	4.247669437770087
O	41.324186539884394	9.294631284006455	9.530034712896535
O	37.55840757689745	6.703583051882523	8.906719717143032
O	37.94061537746164	1.4698619642702377	7.75353636532167
O	39.4964916171919	9.477373633757143	10.540312200860814
O	36.94055750508764	1.9643396245880789	5.479317065673683
O	40.1792992847537	6.44254389203975	6.677588007392222
O	38.37983218114912	5.516931935094228	5.23828703421141
O	37.64820956996424	3.840913536792073	7.360243303583674
O	39.52791571598759	1.7258462497131206	6.038697362065529
O	39.26608410989972	6.88512639184331	7.6642146143623835
O	38.24574949713662	7.669311784477827	9.365764546151347
O	39.374881445427924	7.831934113674711	8.620850101279316
O	38.479649447392106	4.681116212806245	8.15758054529963
O	38.19851190723768	6.037950105167585	7.965807228295338
O	40.566708818110584	5.137129076939597	6.14172273574418
O	39.63882663036356	4.831860595862154	5.0478846077294515
O	40.007823134946996	9.016909259523084	9.067780028041971
