18

O	38.89935094408596	4.519801092089864	6.69987887778687
O	41.03780288842621	5.291763347062338	6.9947187728430915
O	40.715381476023765	3.100564870706477	5.363136570313108
O	38.89039422606737	5.912568545853712	7.445533153273929
O	39.44104762005757	1.927564846041931	6.785090110286905
O	40.19539226115255	6.447629441314454	7.070791111953102
O	38.38219822031346	5.220732685219765	8.62025452397311
O	40.22176615996078	4.1209115690777	7.346810082939472
O	35.44804685839439	2.404354922081266	8.97208718350764
O	40.45798137685496	2.880725815189698	6.585418208207613
O	37.252346460264654	1.196285752838918	9.22495681026841
O	37.35523611926543	4.763321461436016	9.426441150697498
O	37.02002427165421	5.666660839786006	10.560810846546868
O	36.45690828430121	5.331614534717884	11.811596283839553
O	37.03202319459936	4.2027880120743895	12.229507827582946
O	36.864109303023774	3.177310461730461	11.21123183260538
O	37.18508165630547	3.482204240190334	9.859642749328662
O	36.73729000339266	2.448433787007648	8.997651180607795
