77

O	1.1654247345454545	1.514016193369091	-1.300419665325455
O	1.0254520745454543	0.185298714369091	-1.812311899325455
O	-3.8828841054545453	1.285872782369091	-1.155183409325455
O	-4.360617955454545	-1.6750768876309092	-2.471947385325455
O	-3.5801875654545454	-0.790124887630909	0.337387784674545
O	-3.1377992854545456	0.491242540969091	0.623782044674545
O	-4.732928245454545	-0.689294577630909	-0.34348976432545497
O	-0.1489344954545455	1.834133932369091	-0.845009859725455
O	-2.4895898354545456	0.892993667369091	-0.542276159325455
O	-4.850801005454546	-2.961581007630909	-0.35152394832545497
O	-5.165633555454546	-1.764897737630909	-1.2057038313254549
O	-1.2795960968545455	0.888352230369091	-1.3356557073254551
O	1.3558796345454547	0.516735615169091	-3.2681714353254554
O	2.4120717345454543	1.076123873369091	-3.549177165325455
O	-4.202997345454545	-3.777926317630909	-1.008660984325455
O	-4.522031485454546	-2.8562999976309094	0.999814404674545
O	-0.40257814845454554	-0.332120886630909	-1.579327571325455
O	-0.8741415594545455	-1.268320427630909	-0.530173096325455
O	-1.1550703384545455	-2.6959338576309086	-0.6840021123254549
O	-1.5366081004545455	-3.272126357630909	0.38665166467454504
O	-1.5001646894545455	-3.113586017630909	-1.941110435325455
O	0.8196335945454547	-0.4860737876309089	-4.041212865325455
O	-0.5615178534545455	10.731676962369091	-9.314843175325453
O	-3.6165707254545456	8.927341832369091	-8.014593045325455
O	-6.044496905454546	8.29989196236909	-2.526866185325455
O	-2.7025852754545454	12.21080816236909	-0.34685018932545497
O	0.9628815245454545	15.081739062369092	-1.935723525325455
O	-2.8121204754545452	7.994956802369091	-14.001180695325454
O	-5.667984905454546	2.954535232369091	-15.046355695325454
O	-5.643755425454546	4.206512232369091	-11.455554695325453
O	-2.8883917154545458	1.7813270623690909	-10.499706365325455
O	0.35609357454545454	2.4222087823690908	-8.542636595325455
O	2.5762614945454545	0.157385019369091	-10.583974835325455
O	2.9478941745454543	-3.593935487630909	-10.935628695325454
O	0.11613243454545441	2.444075412369091	-13.276264095325454
O	4.193524254545454	12.201918962369092	-6.534220685325455
O	2.1185280945454545	9.794391382369092	-4.500607565325455
O	2.4249286345454544	7.220721952369091	-1.675956967325455
O	4.424767084545454	4.937216372369091	-3.959978785325455
O	6.465561134545455	2.3723013223690907	-2.061349545325455
O	10.155165394545456	2.125587712369091	-2.8553186853254546
O	10.558690594545453	-1.557718437630909	-3.717336295325455
O	13.104461494545454	-3.8524809976309085	-5.259278295325455
O	11.129548394545456	-4.579379747630909	-8.428311085325454
O	5.381138704545455	-0.611281227630909	7.364495504674545
O	2.7522386145454547	-3.296617397630909	7.913778424674544
O	0.7776778845454544	-3.0180244576309088	11.137753904674545
O	-5.230346845454545	-9.111758277630909	5.1038453746745445
O	-6.414080605454545	-8.197157957630909	1.6373039346745448
O	-6.390775135454546	-11.289018437630908	-0.5312310583254549
O	-3.2906057454545454	-11.468031837630908	-2.737435745325455
O	-1.8012644194545455	-8.246691877630909	-1.553736791325455
O	1.7984791045454545	-7.570689977630909	-0.510377201325455
O	0.7348002045454547	-7.904516087630908	3.1566164846745446
O	-0.6256436924545455	-11.359723637630909	2.560961034674545
O	-8.521523305454545	-12.751430637630909	4.006895394674545
O	-10.625623105454544	-9.892279037630908	2.665056034674545
O	-11.557741905454545	-8.593124667630908	-0.7564917414254549
O	-10.035532195454547	-5.048501017630909	-0.15229127532545494
O	-9.106401385454546	-2.7697295176309087	2.7663688246745446
O	-12.491967005454544	-1.185516287630909	2.937499034674545
O	-3.113382295454546	-6.316291427630909	8.780115254674545
O	-2.3571454354545454	-3.4908387276309085	6.415060154674545
O	-0.1654223454545456	-0.47792188763090904	5.548293614674545
O	0.3924128845454544	1.560797596369091	8.692511114674545
O	-0.3384816964545455	4.860752052369091	6.975167284674545
O	-3.9024596154545454	3.8591200223690914	6.408361164674544
O	-4.182442435454545	2.553026092369091	9.947893704674545
O	-3.1103384254545454	5.954800962369092	11.318536704674546
O	-5.675111635454545	7.589572692369091	8.982120604674545
O	5.586929864545454	-1.771656327630909	12.466988404674545
O	5.959054394545454	-5.392949917630909	11.336576204674545
O	8.217115124545455	-4.607511797630909	8.373870894674546
O	9.842183994545454	-1.4739953176309089	6.967399874674545
O	9.555674094545456	0.494179521069091	3.736912234674545
O	7.451387764545454	6.248159572369091	-0.019266475325455
O	8.890181594545453	10.443767672369091	-5.4670151753254554
