72

O	0.507735325636364	0.4431983726363636	1.6058398503865465
O	-0.785200658363636	1.4188430066363635	0.3443083210865465
O	0.47697071563636395	1.8773372286363637	0.1815251517865465
O	-0.854840488363636	0.7337182137363636	1.5233508103865465
O	-0.966117656363636	-1.9054954713636363	1.2008008043865466
O	-1.835073014363636	0.6805168826363636	2.2995561703865466
O	1.0741675556363641	1.6614137036363634	1.3114332703865463
O	-1.436013771363636	-3.7764712213636367	3.614683920386547
O	1.0301209156363642	-0.19335356436363638	2.7283134403865468
O	-2.991564384363636	-3.1199528613636365	2.3801046603865466
O	2.2921380756363643	-0.2842515013636364	3.1300243303865467
O	3.1655381156363642	0.9018687926363635	3.1918805703865467
O	3.438738305636364	1.5207523596363637	1.8499086303865464
O	2.286659585636364	2.4909080686363634	1.6229960303865465
O	-0.19702061536363602	-0.8438705013636365	3.4614103503865468
O	-0.820118276363636	-1.8643414813636365	2.5836006903865467
O	-1.948918584363636	-2.6311745313636363	3.212359750386547
O	-3.7569067843636357	5.752938308636364	12.366367060386546
O	-0.15541420436363595	4.904366618636364	11.593849460386545
O	3.562143045636364	6.510028378636363	7.1414878703865465
O	5.0997675456363645	9.147552858636363	4.862418900386547
O	0.04059786763636397	10.237644538636363	5.127110570386546
O	-4.419359004363636	11.944209828636364	6.318252650386547
O	1.4743886556363641	-2.7122212113636364	16.943293560386547
O	1.9860094156363641	-0.3578997113636364	14.039073460386547
O	0.111535923636364	-2.7072430613636365	11.677589660386547
O	-2.642197004363636	-1.8972745713636363	9.152587190386546
O	-4.705331574363636	-5.0295666913636365	9.711619160386546
O	-4.308910424363636	-8.700738451363636	8.876403700386547
O	-7.934158104363636	7.337857468636364	8.806013260386546
O	-4.931774574363636	6.012144658636363	6.909892680386546
O	-4.030147424363636	4.422734598636364	3.6196229503865465
O	-5.930942644363636	1.3371876846363637	4.419227550386546
O	-6.6836767843636355	-0.7363856613636364	1.3723668303865464
O	-10.366628494363637	-1.7451588813636363	0.9372396323865464
O	-10.226184314363636	-5.525874091363637	0.5975538983865465
O	-12.543195634363636	-8.509552931363636	0.6227275983865466
O	-4.477232544363636	3.0136203786363636	-7.029850709613454
O	-2.860731974363636	-0.33660719136363637	-7.750313689613455
O	0.351423625636364	-2.2980489413636365	-8.213894119613453
O	2.912917935636364	-0.7484564113636365	-10.532213439613454
O	8.458524005636365	-7.617664561363636	-4.924640189613454
O	8.548840805636365	-7.734521081363637	-1.1386204096134536
O	5.255371615636364	-12.657555371363637	1.0093328733865465
O	3.4792225856363643	-9.385824471363636	0.4412147923865465
O	0.17868872663636404	-8.833417251363636	-1.3519520696134535
O	2.099157695636364	-7.865019861363637	-4.5031687596134535
O	3.9734502156363645	-11.138696171363636	-4.558341359613454
O	10.972061165636363	-4.847997091363636	2.401803960386547
O	10.169016965636365	-1.8637423313636363	0.17607480608654652
O	13.198140365636364	0.1795284306363636	1.3197561203865464
O	15.576101665636363	-2.6221962513636363	0.3788334393865465
O	13.664501265636364	-2.8945307313636364	-2.8838054096134536
O	6.718098595636364	-4.050084171363636	-8.095566279613454
O	4.818544825636364	-2.2691277313636364	-5.3274409996134535
O	1.8774632556363642	0.002359899636363627	-4.354061579613454
O	1.694133335636364	2.8329029286363636	-7.002693709613454
O	1.170818015636364	5.5227350186363635	-4.327374969613453
O	4.639277145636364	4.839879628636363	-2.9581502896134535
O	6.077823255636364	4.828189418636364	-6.521003359613454
O	4.640845605636364	8.289971688636363	-7.2052277996134535
O	6.080295055636364	9.528019228636364	-3.903395499613453
O	-1.6069656893636362	0.1802018746363636	-12.835728939613453
O	-1.419699340363636	-3.6177533413636365	-12.854259739613454
O	-4.417869044363636	-4.136888891363636	-10.579591139613454
O	-6.996484034363636	-1.8840275313636363	-8.953555939613453
O	-7.9341310043636355	-1.0544743713636364	-5.376773289613454
O	-8.726511764363636	1.9442715686363636	-3.2015125296134532
O	-8.145975614363635	3.4197323286363637	0.2522158914265465
O	-11.114103834363636	3.9787035186363635	2.507703830386547
O	-11.761075634363635	5.378933838636364	5.9766236403865465
O	3.266447265636364	14.232834328636363	-3.1751207796134535
