76

O	2.078093140724138	2.421543941641379	0.01468100418103388
O	1.244244510724138	1.246840905641379	-1.7687432988189662
O	0.3948211737241381	3.847275471641379	-1.479629348818966
O	2.844103380724138	1.050385848641379	-0.15571705281896614
O	-0.15379315927586187	3.681445211641379	0.6867802021810339
O	2.565403520724138	0.737224209941379	-1.553571768818966
O	2.261763040724138	0.6284648726413791	1.109088369181034
O	0.774378560724138	1.8190356816413789	-0.49886249881896616
O	1.883689280724138	2.6277032416413793	4.6481730411810345
O	-0.013599236275861848	3.0630419416413788	-0.5703840778189662
O	-0.16664331127586188	2.677676771641379	3.891529051181034
O	2.285292750724138	0.4900736446413791	2.4853540711810336
O	2.765829550724138	-0.836870558358621	2.9580982811810337
O	2.449688360724138	-1.5064460383586211	4.160405761181034
O	1.1461670207241381	-1.340125638358621	4.390245221181034
O	0.843376000724138	0.08278779264137903	4.408140731181034
O	1.317717000724138	0.9066538146413791	3.3503024111810342
O	1.1265632407241382	2.276764191641379	3.6641271611810335
O	11.11326292072414	3.060238501641379	-10.289521348818967
O	11.793562520724139	1.2524586866413792	-7.062112388818966
O	9.443380130724139	-3.770199268358621	-4.6552734188189655
O	8.189050750724139	-7.34678615835862	-4.758725428818966
O	6.615717640724138	-5.113136668358621	-9.164678108818967
O	6.150552030724138	-3.269433908358621	-13.662568248818967
O	14.138454820724139	4.718500131641379	-2.4603451288189664
O	10.92780362072414	6.651673861641379	-1.6797871588189661
O	7.6224672807241385	6.762423221641379	-3.5762352788189657
O	6.937934920724138	10.46755386164138	-3.1173110688189665
O	5.869628320724138	12.67595471164138	-0.1990860418189661
O	6.439286690724138	3.018513591641379	-13.517728048818967
O	5.733094770724138	1.535346346641379	-10.119038448818968
O	2.872418000724138	0.8899531206413791	-7.624566788818966
O	2.480892600724138	4.613997801641379	-7.175417348818966
O	-0.8603983382758619	5.501519631641379	-5.657690948818966
O	-2.8512861692758618	8.265565321641379	-7.538121018818966
O	-3.594961309275862	10.81291141164138	-4.796587058818966
O	-4.893707369275862	14.35013341164138	-4.433439538818966
O	-7.1041162692758615	-1.4857942983586212	-4.842328018818966
O	-7.602325889275862	-0.25717995835862084	-1.3044123388189661
O	-7.017970889275862	-0.853415678358621	2.3780027111810336
O	-7.9442997992758615	-4.32035331835862	3.621148981181034
O	-3.860814349275862	-2.089047898358621	13.836550651181033
O	-1.687528709275862	-0.618876998358621	11.166183351181033
O	1.802699980724138	0.7626487824413791	10.644413251181033
O	2.368192220724138	3.730330131641379	12.860724851181033
O	1.845761750724138	7.0630896916413795	11.062796851181034
O	1.0342941407241382	5.591242051641379	7.740580341181034
O	-1.758843649275862	6.39148225164138	5.309124661181034
O	-3.834970239275862	3.468542761641379	6.710611931181034
O	-3.5551286592758617	4.71692057164138	10.253829351181032
O	0.18007513772413813	-0.03247122335862096	15.812163351181033
O	6.426834350724138	-1.5080471783586211	9.663680361181033
O	4.476722820724138	-4.06366199835862	7.533348851181034
O	6.989547030724138	-6.83908341835862	7.897313021181034
O	6.6432452807241384	-6.5971995583586205	11.691609351181032
O	2.871117260724138	-6.410458748358621	11.201510551181034
O	-4.779891269275862	-3.323026098358621	8.126613731181033
O	-2.853895049275862	-2.586351088358621	5.025813681181034
O	-2.705889929275862	-2.154546558358621	1.169528482181034
O	-4.694731329275862	-4.936144798358621	-0.38566633881896617
O	-2.2032118592758616	-5.704251428358621	-3.1390697188189662
O	0.3357833337241381	-6.76932011835862	-0.47860975181896614
O	-2.3114423192758617	-8.78269639835862	1.284366491181034
O	-3.066650309275862	-10.747019188358621	-1.918411238818966
O	0.6595810907241382	-11.32696998835862	-2.4276802988189665
O	1.211763280724138	-12.55471878835862	1.133604586181034
O	-13.179519679275861	-6.619166548358621	0.9112945121810339
O	-11.691818379275862	-3.198791928358621	0.2728466636810339
O	-12.162770879275861	-0.5611628983586209	2.9701230811810335
O	-11.33045987927586	2.395170251641379	0.7208911291810339
O	-10.59609507927586	2.816217221641379	-2.987541308818966
O	-7.5515149492758615	4.068044991641379	-4.923774108818966
O	-5.483279169275862	3.125426121641379	-7.9713911588189665
O	-1.891903549275862	2.923922881641379	-9.222050928818966
O	-0.9410817322758618	5.02729507164138	-12.180566848818966
O	0.8373823007241381	-12.817764288358621	-7.7289398988189655
