71

O	-0.22060211709803945	2.0777574330000013	-0.20557897598039232
O	-0.9356360790980395	3.245548047000001	-0.20594117898039233
O	-2.8720689260980397	1.377711446000001	-0.8027078923803923
O	-1.4333883260980396	2.280711016000001	-5.343966194980393
O	-1.1506009593980395	3.416576827000001	-4.439424474980393
O	-1.6007561000980395	3.116072207000001	-3.1171083449803922
O	-2.551804286098039	2.425946344000001	-1.6426226989803923
O	-2.6097679060980394	1.379100071000001	-5.1334503449803925
O	-3.0715135660980395	2.835648107000001	-3.6254151749803922
O	-3.6761738060980393	3.164075607000001	-2.3482099349803924
O	-1.0324468024980396	4.314499027000001	0.7914614050196077
O	-0.9093040880980394	5.458273447000001	0.19721233901960766
O	-2.4211568560980394	0.20901497700000093	-1.0660284159803923
O	-0.37619899109803945	1.504429968100001	-4.839662054980392
O	0.20024182390196055	3.755088807000001	-4.259341114980392
O	-2.6843799360980394	1.563420803700001	0.5999931550196077
O	-1.3751226010980395	2.088113330000001	-2.3543637349803923
O	-3.2335130560980394	1.5008728080000011	-3.9131502349803924
O	-2.0769211170980393	3.621710097000001	-0.9994528779803923
O	-2.2756513260980396	4.454303437000001	1.4903985850196078
O	2.153965153901961	11.367622447	-10.873115594980392
O	0.3519274139019606	8.126088137	-11.655804394980391
O	1.9833597039019606	2.288781982000001	-11.002965294980392
O	7.170494653901961	3.522333737000001	-9.515725724980392
O	-5.85585503609804	8.450758227000001	-11.866981294980391
O	-6.42320455609804	8.816896337000001	-8.107579414980393
O	-3.897936126098039	9.334485547000002	-5.301298324980392
O	6.2314780139019605	12.361781687	-7.023858104980392
O	4.593811523901961	8.992346557000001	-6.391730014980392
O	3.82971441390196	6.379477217000002	-3.5842748449803925
O	1.6826985039019606	8.876857377	-1.8371053849803922
O	1.2744160739019603	7.999604567000001	1.8081924350196075
O	1.9033466739019607	10.814839487	4.310458435019608
O	-1.3228391450980395	10.949649937000002	6.318156135019608
O	6.42672831390196	0.859573146000001	5.032904295019607
O	3.2270094139019605	-0.479330472999999	6.507240825019608
O	0.45622381390196054	-3.0354386129999984	6.2756316050196075
O	1.5976537539019604	-6.625065132999998	6.013081535019608
O	-8.91537158609804	-10.196259813	4.597993085019608
O	-8.28996246609804	-6.972047062999998	2.7253870550196075
O	-9.752911326098038	-4.860079102999999	-0.03565225398039229
O	-13.49110353609804	-0.37698626299999893	2.3732698450196077
O	-9.792106996098038	0.34951969700000096	1.9569006950196077
O	-7.31522754609804	1.928705255000001	4.375123585019607
O	-6.2620349860980395	-1.5883135529999988	5.4973013850196075
O	-9.772437356098038	-2.7439623729999987	6.3166972850196075
O	-9.33726931609804	-5.059646252999999	-5.196251154980392
O	-5.673677836098039	-5.989450412999998	-4.646182654980392
O	-5.417617886098039	-8.039395102999999	-7.907555264980393
O	-8.40607791609804	-10.155040813	-6.965176484980392
O	-6.82731927609804	-10.470622413	-3.5353089749803925
O	-3.494044436098039	-7.849540142999999	4.079304055019608
O	-2.1600137660980394	-4.962255162999999	2.0605793850196075
O	0.5620737039019605	-2.2870810829999986	1.5623455550196077
O	3.9476772839019603	-3.9793838129999983	2.2351873150196075
O	5.6873247839019605	-2.4157787929999985	-0.7440593129803923
O	3.35973330390196	-4.3609192929999985	-3.0490923749803924
O	3.87614730390196	-7.473935222999998	-1.0886120109803923
O	7.67207588390196	-7.201059532999999	-1.5607855679803921
O	7.17137841390196	-6.623235982999999	-5.270845464980392
O	4.8482475439019606	-9.614838312999998	-5.6914304449803925
O	6.686927973901961	-7.834084212999999	9.572012405019608
O	4.88125000390196	-4.515269892999998	9.361658605019608
O	1.5602774639019603	-4.252913762999999	11.194957505019609
O	1.5104510339019603	-0.45059453299999896	11.210804205019608
O	3.93024441390196	2.2828496680000008	10.117927705019609
O	3.7141298239019607	5.051389307000001	7.490774905019607
O	5.831959333901961	6.592119807000001	4.755272805019608
O	5.68727043390196	7.942785147000001	1.2146664650196075
O	6.58830430390196	11.565718287000001	0.6682070250196078
O	12.008710663901962	-4.441656432999999	-6.780645774980393
