83

O	-0.9281894245789475	0.32331716848421044	-3.836534034263158
O	0.22493794242105258	0.7697713854842104	-3.1667757142631583
O	-1.3403000095789475	2.9595256784842103	4.332053685736842
O	-0.7477496831789474	3.48727046848421	3.183681455736842
O	-2.9530536685789475	2.5361778884842106	1.0333826757368418
O	-1.5279521915789473	3.9614896284842107	-0.4723284152631581
O	1.1948534314210526	2.9073478184842108	1.7734738857368417
O	1.6308576414210527	0.7452953004842104	3.713932585736842
O	0.46953840142105263	2.89279779848421	3.099512285736842
O	0.5459708114210526	1.6458762014842105	3.5470224057368416
O	-0.6921725589789475	1.4558949429842105	1.292665465736842
O	0.9778343914210526	1.7514262294842105	-0.2271300082631581
O	-1.7491531685789474	1.9912066294842106	0.5259349057368419
O	-1.2211989235789473	2.5929780484842104	-0.5999140722631582
O	1.4310485614210526	0.9109954944842105	-3.993423264263158
O	2.171767971421053	1.9630240874842104	-4.173134274263158
O	0.6102342614210525	1.7624266294842106	1.0466876157368419
O	0.039070748421052626	2.1697929644842104	-1.0725391092631582
O	2.7525848114210527	1.4030488787842104	3.351405115736842
O	-1.0707391695789474	0.9222864064842105	2.306351895736842
O	2.2129378014210523	1.9713877744842105	-0.42672364726315815
O	1.9784329514210526	0.1503099684842104	2.427404435736842
O	-3.2392663885789474	3.7631326984842106	-0.1592092202631581
O	-0.0024477395789473944	2.07827159348421	5.2132821657368416
O	0.25000296442105263	2.0366359944842105	-2.493516544263158
O	2.4392870314210526	0.41177352848421056	-2.949344014263158
O	-4.435659858578948	9.438101618484211	-10.38586285426316
O	-4.105527568578948	10.32802065848421	-6.743879074263158
O	-6.668364908578948	8.20907798848421	-1.7306915112631582
O	-10.185093618578948	4.9614928784842105	-4.538737664263158
O	-11.212547748578947	4.05455811848421	-9.269811874263159
O	3.7720716614210525	15.50779579848421	-6.4040898942631586
O	1.0535794414210526	13.26632609848421	-5.052014774263158
O	3.2946781614210527	10.17230197848421	-5.189439294263158
O	2.579478801421053	6.7417486684842105	-6.679847024263158
O	5.942434701421052	6.22066807848421	-8.325559104263158
O	9.430987951421052	5.48774436848421	-7.067980604263158
O	-5.959740928578948	4.464633888484211	-12.76153625426316
O	-5.2430540985789476	4.065649218484211	-9.08510741426316
O	-4.162555978578947	1.4021236564842106	-6.569354214263158
O	-0.8122035415789475	1.1677875904842105	-8.282725414263158
O	0.9908953414210526	-1.9356674615157894	-7.110559594263158
O	2.4060482114210524	-4.05548932151579	-9.99430064426316
O	6.085721201421053	-4.40296925151579	-9.085973704263157
O	9.334659751421052	-5.53161863151579	-10.631565214263158
O	-3.8320732085789473	-8.18430901151579	-1.9565842942631582
O	-0.7997645585789475	-8.273814291515789	0.29697179573684185
O	0.7211592114210525	-7.32097681151579	3.6519060357368422
O	-1.3807526175789473	-8.11192519151579	6.694553925736842
O	5.357005221421052	-0.8905212015157897	10.251981245736843
O	5.890642201421052	2.5457421784842102	8.712325035736843
O	9.544837451421053	3.4252850784842104	8.836637985736843
O	11.320589251421053	2.755316808484211	5.536601355736842
O	8.282090271421053	1.5713335734842104	3.7064049657368416
O	7.970123771421052	-1.5455673615157897	1.4695795557368418
O	6.287057421421053	-3.27895307151579	4.454355655736842
O	9.343901751421052	-2.7205419415157897	6.636953485736842
O	8.334562901421052	1.4815597098842104	13.52690334573684
O	6.024855141421052	4.4446016884842106	12.930812945736843
O	3.144831811421053	6.9704030484842106	8.864579565736843
O	0.04079255942105253	4.74001032848421	8.878394855736843
O	-2.225150948578947	7.241615228484211	10.60047394573684
O	0.1978269934210526	7.28770139848421	13.542750945736842
O	0.32492094142105254	3.4763731284842105	13.304726945736842
O	1.7199009814210526	-4.37369164151579	9.527714945736843
O	0.4520930014210527	-2.76411175151579	6.415302755736842
O	-1.2674087275789474	-3.09170448151579	2.9542180657368418
O	-4.350024568578948	-5.3268552815157895	3.4636314557368415
O	-6.609693158578947	-3.0458838115157896	1.447463745736842
O	-5.971809258578948	-0.24965559151578942	4.021822835736842
O	-6.707007658578948	-2.7528250715157894	6.825168225736842
O	-10.024090408578948	-3.80881648151579	5.344000065736842
O	-11.004566648578948	-0.1778046915157896	4.969591115736842
O	-2.0138249185789476	-12.178043301515789	3.5981912557368423
O	1.7229215214210527	-12.28268290151579	4.354346295736842
O	2.8414998614210525	-11.65701000151579	0.7726602257368418
O	1.0862674514210526	-11.27307540151579	-2.5703786242631583
O	0.7486389814210526	-8.49714652151579	-5.125980594263158
O	-1.8920450985789474	-6.837129471515789	-7.269787664263158
O	-3.0587060085789473	-3.45042999151579	-8.508159994263158
O	-3.0215088585789474	-2.77716693151579	-12.214924754263158
O	-3.9306582785789477	0.07948519848421043	-14.56563795426316
O	-15.373240748578947	-0.7110711015157893	1.5294654257368419
