73

O	-0.08312029494545453	3.6108658101272737	0.5743829530909089
O	0.1544516280545455	3.9104644801272737	1.8963723290909091
O	3.941047854054545	1.4411761611272738	-1.0218182669090912
O	2.1063140240545453	2.6876510401272737	-1.513434900909091
O	2.8065569740545455	2.686868860127274	2.064115469090909
O	0.5033555840545455	1.5807115557272737	2.772368549090909
O	3.6485371940545455	2.9705705901272736	-1.502657550909091
O	3.0410502340545453	2.8502627901272737	0.5980181970909089
O	2.0278190640545453	1.9627741501272737	-0.2289328392090911
O	1.4751685540545454	2.1070896621272737	1.856573809090909
O	0.12811013005454552	5.214778170127273	2.549660889090909
O	1.0491363940545453	6.038348020127274	2.252867919090909
O	0.8902429840545455	0.7020351881272737	3.533676999090909
O	-0.6999554239454545	2.2237144301272735	3.143774479090909
O	3.9724924340545456	1.7883276491272737	0.3635602870909088
O	1.1169990740545455	1.8464867391272737	0.5868051140909089
O	1.4273137540545453	3.489049860127274	2.391347449090909
O	0.01477969505454546	5.123555040127274	3.9601646990909094
O	8.465597064054545	11.780563580127273	-3.847113590909091
O	10.114249034054545	8.633699850127273	-2.543711320909091
O	9.797651334054544	2.8618940201272736	-4.153730280909091
O	6.9092799240545455	3.9728000501272738	-8.75380909090909
O	5.145318494054546	7.996496910127274	-10.933220870909091
O	12.071953434054546	8.844214100127274	3.303146999090909
O	8.615442104054544	8.497732350127274	4.8661716590909085
O	5.205751344054546	8.663285350127275	3.253037409090909
O	3.572965384054545	10.740602750127273	5.943283629090909
O	2.423188524054545	10.111476350127274	9.48712708909091
O	3.533300604054545	12.300020080127274	-6.624955540909091
O	3.873096574054545	8.837707880127272	-5.143744550909091
O	1.8012287140545453	5.825389080127274	-3.871929450909091
O	0.4857974370545455	7.779882260127274	-1.066309084909091
O	-2.8288674459454546	6.556834880127274	0.26260536009090885
O	-5.736666265945455	8.911434770127274	0.5499791210909089
O	-6.824459995945454	8.685679860127273	4.188945749090909
O	-8.941172035945455	10.441803860127274	6.739048139090909
O	-4.950053415945455	3.8968461801272736	-8.534902830909092
O	-7.451759405945454	1.9611968231272736	-6.390894770909091
O	-6.310421735945455	-0.9322797398727265	-4.220293950909091
O	-6.511829815945454	-2.5017635698727263	-0.7881033599090911
O	-5.136825805945454	-5.068046649872726	1.594894799090909
O	-4.679752505945454	-8.530872519872727	0.1874802390909089
O	0.21845105005454546	-12.091555619872727	9.56767039909091
O	1.3351758540545453	-8.591888819872727	8.67218738909091
O	4.058140914054546	-6.0948694898727265	9.432810049090909
O	1.3854336140545453	-1.2848740098727265	10.404915029090908
O	-2.0122677859454545	-0.13238630987272626	9.07085910909091
O	-2.673134165945455	-3.6902089398727265	7.88708420909091
O	-2.2540819159454544	-5.061642529872726	11.40223832909091
O	8.830157694054545	-5.440973609872726	7.540034559090909
O	7.395665154054546	-6.415218089872726	4.141370679090909
O	10.697188634054545	-7.8714060898727265	2.843462679090909
O	7.3449996040545456	-11.050361119872726	5.265392829090909
O	-1.1837057059454545	-9.509273219872727	4.398955789090909
O	-0.0848960289454545	-6.257844999872726	2.779047049090909
O	-0.8855735659454546	-3.6455074898727267	0.1741181990909089
O	-2.2150294059454545	-5.296643709872726	-2.968393200909091
O	-0.16733954494545455	-3.265038799872726	-5.394679590909091
O	3.0026361040545453	-4.802475049872727	-3.901167500909091
O	1.4658636640545453	-8.228216719872727	-4.079864200909091
O	0.7916944340545454	-7.769751899872727	-7.808527540909091
O	4.365959304054546	-6.578948189872726	-8.302328200909091
O	5.875660024054546	-9.520833919872727	-6.420035250909091
O	-9.367213775945455	-10.234793119872727	-3.738477150909091
O	-9.138329485945455	-6.960511059872726	-1.857066240909091
O	-9.924747025945456	-7.057564009872726	1.857061039090909
O	-10.518994465945456	-3.3246352798727266	2.150126039090909
O	-10.591691565945455	-0.41072501987272636	-0.2989516599090911
O	-8.497744045945455	2.761038500127274	-0.6673559019090911
O	-6.714637755945454	4.759504900127274	-3.363023330909091
O	-3.5106341359454545	6.650563620127274	-4.133127960909091
O	-3.7395162959454544	10.326916710127273	-4.889085970909091
O	4.069499084054546	-4.176475119872726	-13.26825117090909
