28

O	-31.199740254427724	30.462416993469787	-38.13235028916935
O	-27.69665139148136	29.87789590446207	-37.45668465546661
O	-26.86711134968819	29.657470389089987	-38.533312572257465
O	-29.04202324738152	28.60511704125677	-40.773420484990105
O	-28.618934679816412	28.801275288624375	-37.636172746408626
O	-28.649241383079037	28.449699286698365	-39.02770506125806
O	-24.722435646476978	29.37628676664463	-38.7969396238127
O	-27.471759572096868	27.54560315080989	-38.90455260464517
O	-26.072162177086046	29.34833057226673	-41.36723172098816
O	-26.392086005734313	28.328113923451518	-38.792209068010855
O	-28.218607996566448	29.15074843289352	-40.14842659475972
O	-27.197814746139183	29.874736619311484	-40.803992723202214
O	-27.30063156309459	31.260582077134202	-41.12647453917036
O	-28.23720650391346	31.468148129657312	-40.06707055555548
O	-29.442672491283794	30.982093324105335	-39.903029222235716
O	-29.78451020876409	31.316640067005352	-38.64577082226272
O	-29.615210374300652	32.733481194354184	-38.50062145591463
O	-28.913157169364165	33.63883346949994	-39.32068037150786
O	-28.23446898271044	32.80905918721745	-40.11047245393462
O	-25.608503295125818	30.23334255651651	-38.42108104523729
O	-25.33802738628593	31.544498688217683	-38.81018073080048
O	-25.837613491848387	32.752898729966205	-38.49748193005471
O	-25.621964354099745	33.855639679647226	-39.275602347521364
O	-25.175732365541684	33.63154986558069	-40.538156273744896
O	-24.322690631385903	32.58978573006811	-40.6643754846974
O	-24.922935170858253	31.447394312283485	-40.04565221019912
O	-23.03655034949586	32.52537609517727	-41.05304187065759
O	-26.762679446087187	32.39507132098721	-37.59851183151312
