22

O	-29.26411055246564	29.221581809993445	-39.61117673420121
O	-29.75784129372073	30.29718947426729	-39.13440166483062
O	-30.001688346909717	28.092169801872114	-39.06991891373932
O	-29.81624565854259	27.080892384239394	-39.74762845169382
O	-27.9073073525002	29.270022599813895	-40.07224800894389
O	-27.250013237529174	28.85095137149049	-41.34069906329052
O	-25.78164385417837	28.760258880718535	-41.13258100052126
O	-25.179497080977967	28.231140084848022	-42.37713651035432
O	-26.278122495997952	27.332156745752474	-42.9619404488172
O	-27.04261811430552	28.352709908743066	-43.70890359771218
O	-26.359327108371776	29.58309187714061	-43.923014469787276
O	-26.793859374002032	30.885660329487155	-43.71545621285782
O	-26.15077976151027	31.574220084740123	-42.62632928351949
O	-26.661527044029206	32.01823473289489	-41.416649188322
O	-26.126699247967142	33.27122014556355	-41.09338065152451
O	-25.118768792281973	33.778518063578545	-41.855472980363324
O	-24.289106132526545	32.77343185118961	-42.35441605993716
O	-24.754900791773263	31.519257449389695	-42.59746053095989
O	-25.199821875442233	35.00815767449963	-42.64885445552809
O	-23.859631023364166	35.481438957590655	-42.62462327302723
O	-26.143501292132928	35.03746751769387	-43.69651583270773
O	-27.999192480630576	31.09636500064663	-43.66937144736676
