22

O	-31.20489780110827	29.825310179291044	-38.82140233287672
O	-29.839260710970446	24.511027938292667	-38.34568599649723
O	-27.05124159877659	27.501854791403908	-39.43681481607554
O	-28.195184980430284	28.29045220023124	-39.76650946443123
O	-28.407015950182995	29.538081891894336	-38.828562444603044
O	-29.14546253174023	28.733475053611958	-37.80446156218512
O	-28.433550131194906	27.589492550778676	-37.69290390786033
O	-28.935365692472377	26.34267876486606	-37.518373636212125
O	-30.18602840000058	26.17803102623241	-38.0037802464455
O	-30.945347495417103	27.273654270538124	-37.74952189082978
O	-30.38079699159793	28.403806229383587	-38.283715149806774
O	-27.688450335773496	28.829674141568407	-40.98491186629094
O	-28.97259296696185	28.983873111812922	-41.16151602556114
O	-26.783480966287758	29.823653150252362	-40.592774254173705
O	-25.772549689127544	29.29523320092444	-39.77114026864267
O	-24.946643240836494	30.292935285386296	-39.37736081879971
O	-23.65454616613692	30.794561202292567	-39.55159693058325
O	-23.53006648814761	32.20625480278083	-39.82279257749776
O	-24.597401718088836	33.10316722430694	-39.73217659360728
O	-25.42425658108576	32.390196632855776	-38.848569403672506
O	-25.91243364924727	31.229343350795837	-39.27049107083995
O	-27.10930081930882	30.898466205814213	-39.87861677856318
