84

O	-2.864732941125	-0.2173929192142861	4.211748504189286
O	-3.711965746125	-1.1163617856142862	0.8141210841892859
O	-3.5677564261250003	-2.435886088614286	0.44818250218928574
O	-1.3556686461250003	-3.4468015886142864	2.670903874189286
O	-2.3684284631250003	-0.8238899316142861	1.2030968841892857
O	-1.7337066511250003	-2.0438379186142863	1.615093844189286
O	-4.008273116125	-3.5980086286142865	-1.3416816188107141
O	-1.3516246161250003	-2.4064443586142863	0.22169883418928577
O	-2.9466886111250004	-5.314151888614286	0.7456217541892858
O	-2.4681036939250003	-2.8144022886142865	-0.39286115931071425
O	-2.278421798125	-3.271261078614286	1.9751626841892858
O	-3.1531495191250003	-4.340296018614286	1.678581474189286
O	-4.308071976125	-4.649341908614286	2.4568990241892856
O	-4.3991783761250005	-3.297849708614286	2.9127076941892858
O	-3.568718736125	-2.600448838614286	3.647742314189286
O	-4.027754906125001	-1.3374400386142862	3.588011264189286
O	-5.408739676125	-1.347079488614286	3.975254984189286
O	-6.3005533561250004	-2.4327854786142864	4.0798921341892855
O	-5.611284956125	-3.4003874486142864	3.478585184189286
O	-4.5590226161250005	-2.9126321786142864	-0.3994161116107142
O	-5.762651726125	-3.4413713486142865	0.06469383218928576
O	-6.755317536125	-2.998168978614286	0.8557587641892859
O	-7.664954966125	-3.8425545186142864	1.428110354189286
O	-7.342015756125001	-5.161136918614286	1.4489038641892857
O	-6.666057056125	-5.5993010686142854	0.36263685418928576
O	-5.550275146125	-4.727914318614286	0.15314697318928577
O	-6.974719226125	-6.508109018614286	-0.5797870208107142
O	-6.3007426061250005	-1.769481988614286	1.130758084189286
O	-6.330036656125	12.649691521385714	8.209128284189285
O	-5.700871296125	9.456747931385713	6.285046494189285
O	-8.511896616125	7.059947881385714	6.954126814189286
O	-6.588744896125	3.8176048513857137	7.362300114189286
O	-3.826975806125	5.093540221385714	9.700350574189285
O	-8.924767316125001	3.4523898413857137	-8.735424175810715
O	-10.911033456124999	5.717867061385714	-6.375252645810714
O	-13.307195946124999	3.504031921385714	-4.623831925810714
O	-13.140872546125	1.787613031385714	-1.3412967618107143
O	-9.413208646125	0.8113804913857139	-1.433800405810714
O	-8.660969876125	4.2701569213857145	-2.1366320358107145
O	-11.389582316124999	6.321176411385714	-0.6118272028107142
O	5.531322953875	8.543874781385714	2.264111804189286
O	6.131266283875	5.130018781385714	0.8133030241892858
O	2.7294856238749996	4.7670619013857145	-0.9792740518107141
O	4.064903423875	2.2291979313857135	-3.3996777158107143
O	1.068274523875	0.8536377033857139	-5.257269645810714
O	-0.14310193612500033	3.988154461385714	-6.978745585810715
O	0.012165783875000002	3.759827351385714	-10.784763125810715
O	-5.073493856125	4.848216851385714	-11.087612625810715
O	-4.951267246125	4.714148971385714	-7.282010055810714
O	-4.204934576125	1.316604381385714	-5.763616615810714
O	-4.2279445061250005	0.03968747338571389	-2.3498086058107144
O	-4.474145846125	3.2823918613857135	-0.4375315294107142
O	-1.9150054731250004	4.815914281385714	-2.6651716958107143
O	-3.380074016125	7.768679101385714	-4.3638684658107145
O	3.084268153875	7.434855001385714	-5.595932325810714
O	5.424132453875	9.675813551385714	-3.768588705810714
O	5.920994143875001	-6.4500276186142855	3.141257424189286
O	5.562905863875001	-5.864507388614286	-3.494233155810714
O	6.089416723875001	-2.382760858614286	-4.650294725810714
O	4.479763483875001	-2.7509921186142865	-8.050843715810714
O	3.693111913875	0.8355229243857138	-8.804085075810715
O	8.161545153875	-9.005163388614285	-0.15360058081071423
O	5.797858013875	-11.861759978614286	0.5448593271892859
O	5.021319293874999	-13.430341478614286	-2.8542841558107144
O	-3.5096937661250003	-14.491061778614286	-3.864147905810714
O	-1.1625470461250003	-12.212671378614285	-1.8528370158107141
O	-1.5567829061250003	-8.644153048614285	-3.358361425810714
O	-0.7000305361250001	-7.263574338614286	-5.818626445810714
O	0.5061822238749998	-10.765507478614285	-6.583155765810714
O	3.0434234138749994	-9.330102718614286	-8.981777545810715
O	10.570237953875	0.8598622883857139	4.853114854189286
O	6.9491132838750005	-0.05748131511428611	5.433749924189286
O	6.7976047538749995	-1.6326061986142861	8.847379954189284
O	6.819774903875	-6.745578118614286	7.8770971341892855
O	7.596955853875	-6.3716132586142855	11.567378674189285
O	1.6709274138749994	-6.178340928614286	12.511957974189285
O	-1.7652994461250002	-7.480397728614286	11.759360474189284
O	-0.2145714361250004	-8.836278518614286	8.378109254189285
O	10.170137053875	6.393382331385714	3.2231894641892858
O	7.562130153875	4.777725981385714	5.423899174189286
O	4.563205553874999	2.9750368713857136	4.000928224189286
O	2.769217093875	-0.16389801311428612	5.2379851541892855
O	2.7321150038749997	-0.2027004192142861	9.145572624189285
O	-0.5387104861250003	-0.8302447986142861	10.903976674189284
