86

O	-2.74863420382623	-4.358925265278689	0.45639682347541
O	-3.61350278382623	-3.4227411252786886	-0.35690907752459
O	-4.411301163826231	-2.844716015278689	0.46317189347541
O	-3.37470901382623	-2.248685615278689	-1.1790874425245899
O	-2.4960931138262303	-0.9985748352786888	-0.8527423185245899
O	-2.7668906838262304	-0.7852558252786889	0.4523051334754101
O	-1.7838309888262303	-1.2911314752786889	1.3364010034754101
O	-0.6050678918262302	-1.857602355278689	0.7836635734754099
O	-0.43371830982623016	-1.757641145278689	-0.60691199552459
O	-1.3723369158262302	-1.2726644552786892	-1.5171224525245899
O	0.5876970761737699	-1.140173875278689	1.30662217347541
O	1.7078775061737699	-1.3673503652786891	0.7441390434754099
O	0.34683452617376975	0.17805056272131115	1.71915917347541
O	0.6034293461737699	1.1344075347213112	0.8368074934754101
O	0.04339496617376981	1.104880381721311	-0.41504107452459
O	0.7608761961737698	1.161524328721311	-1.5548508975245898
O	2.13084975617377	1.098929843721311	-1.16705050352459
O	2.5954346961737698	1.6147489917213111	0.11740682147541004
O	1.48848460617377	2.140630534721311	0.74062773347541
O	0.7266670261737698	3.240430504721311	1.13714494347541
O	0.6417253361737698	2.427916604721311	-2.33021121652459
O	1.1749816661737698	3.610287794721311	-1.89761045652459
O	0.7351218161737698	4.598968944721311	-2.70323596652459
O	-0.6493717918262302	4.678719484721311	-2.73884940652459
O	-0.9099219038262302	2.998330784721311	-2.23246410652459
O	-12.50230435382623	-2.412938495278689	-7.79913384652459
O	-9.71171345382623	-0.47485811527868893	-6.07843439652459
O	-6.77931290382623	-2.987595255278689	-6.21798524652459
O	-4.14900791382623	-0.17441112527868896	-6.18032095652459
O	-3.17317392382623	0.3589192677213111	-9.557300596524591
O	-0.6985207678262302	3.101834924721311	-10.33653603652459
O	-0.6039564808262302	1.6642766537213112	-13.76481025652459
O	1.7150323061737698	-1.1034053952786889	-12.49710385652459
O	-7.90580003382623	12.517151944721311	7.662514433475411
O	-9.05084772382623	8.94847851472131	6.82850683347541
O	-9.92018081382623	9.625319654721311	3.19635926347541
O	-12.88473285382623	8.23345815472131	1.2439155534754098
O	-12.71861075382623	4.463531344721312	1.73824416347541
O	-9.45684568382623	2.5102071447213112	1.5202795734754102
O	-7.93889801382623	5.882357774721312	0.56270863347541
O	-10.45448822382623	7.348529314721311	-1.8454338565245898
O	5.38647034617377	9.734594504721311	-6.21272013652459
O	6.83358058617377	11.981764544721312	-3.5307067965245897
O	6.22006342617377	4.917766094721311	-7.56179401652459
O	7.18968801617377	5.589865304721312	-4.00586900652459
O	7.51507375617377	3.644017054721311	-0.8265422355245899
O	4.1624776561737695	4.919217594721311	0.65207412347541
O	5.07382563617377	3.753245904721311	4.14532773347541
O	1.62454404617377	4.003043424721311	5.88410176347541
O	0.93384365617377	7.760300864721311	5.56703494347541
O	-4.02375535382623	8.894292524721312	5.00344824347541
O	-3.7562024038262303	5.166019094721311	5.56450954347541
O	-3.7230249838262304	1.9548042747213112	3.7000777534754103
O	-4.035243683826231	3.433459424721311	0.23639961247540997
O	-1.13901592142623	6.033009594721311	1.03917199347541
O	-1.62034154382623	9.746507064721312	1.3896587734754102
O	1.8070478861737698	11.368612744721311	1.52150909347541
O	14.56937054617377	-1.5863369552786888	5.482004213475411
O	11.02429114617377	-2.552293735278689	4.41012913347541
O	10.19353444617377	-5.929858495278689	2.70651707347541
O	4.19031267617377	-7.636102645278688	3.28055045347541
O	4.5657007561737695	-3.211679925278689	8.46998700347541
O	6.03648241617377	0.1920332447213111	7.5728496434754105
O	4.19744193617377	1.9298606877213111	10.42503384347541
O	-3.31996805382623	-8.317608235278689	9.771954943475409
O	-3.11575680382623	-4.713980515278688	8.487074333475409
O	-1.9427514258262302	-2.269495145278689	9.779910743475408
O	-1.8768847808262301	-4.160308205278689	13.19691044347541
O	1.5265739861737697	-2.816882245278689	14.17840824347541
O	11.20220164617377	-0.27264811527868893	0.42822542347541004
O	6.87523295617377	-3.5553329352786887	-1.65496332852459
O	5.98179797617377	-6.508664155278688	-3.9648323565245898
O	5.22247341617377	-10.219516455278688	-0.28979949352459
O	5.40396219617377	-12.253525255278689	-3.5655680665245897
O	-0.28652257682623017	-11.55899775527869	-4.65401081652459
O	-3.98743980382623	-10.678864655278689	-4.8129166965245895
O	-3.9861296038262304	-9.497896055278689	-1.19751807952459
O	-0.7972421758262302	-11.010306855278689	0.34513231347540996
O	-0.19095960582623017	-14.383292455278688	1.8098771734754102
O	8.42528164617377	0.5112902117213112	-4.53991338652459
O	5.54028683617377	-0.2301023052786889	-2.32992225652459
O	2.58347630617377	-2.748806675278689	-2.43500961652459
O	1.8501669461737698	-5.325450495278688	-5.0452563765245895
O	-1.5960545788262301	-6.273841395278689	-6.51305778652459
O	-0.9325781008262302	-8.96292744527869	-8.98292405652459
O	0.4280301461737699	-6.3598413552786885	-11.400023456524591
