64

O	-0.5067838185333333	-0.12689890536111104	0.5844461857333334
O	-1.4128631355333334	0.990454275488889	0.6662987817333335
O	-1.9891793555333335	1.519788455488889	-0.25807200426666665
O	-0.7201308195333334	-1.459206234511111	1.0070732477333333
O	0.9215447334666667	-5.616206714511111	3.4090054957333336
O	0.6460073844666666	0.4078435104888889	0.5786719137333334
O	-0.5702647715333333	-2.928820134511111	1.1188809197333334
O	-0.5950885185333333	-6.137518204511111	1.9593699037333334
O	-0.5142925415333334	-3.449718484511111	2.4859380857333333
O	0.9077746654666666	-3.604104604511111	2.868926715733333
O	1.6630788444666667	-3.881651204511111	1.6151753797333335
O	0.7784976804666667	-4.859077724511111	0.9492596549333334
O	0.5860457114666666	-5.814803604511111	2.0213933057333335
O	1.6285534044666667	-6.690881944511111	3.8957883557333335
O	2.8425279444666667	-7.024486994511111	3.3836906657333334
O	3.2630350744666665	-8.30690742451111	3.5001731857333334
O	2.3302632444666664	-9.231313834511111	3.878570225733333
O	1.2760311644666666	-8.80050752451111	4.638687655733333
O	0.9839873824666666	-7.476016794511111	4.763843605733333
O	11.605947684466667	6.540670335488889	1.6086627777333333
O	12.467027284466667	3.026291755488889	2.6939665157333335
O	9.921390844466666	0.8491267134888889	0.8191287557333333
O	10.577451184466666	2.741827025488889	-2.5297332342666667
O	6.285551204466667	0.35968434848888897	13.529406285733334
O	7.263554304466667	-1.822431754511111	10.635001315733334
O	4.653514254466667	-1.019537562511111	7.957523905733334
O	5.513588484466666	2.608917835488889	8.881023095733333
O	9.144973704466667	2.8566432554888888	9.978757575733335
O	1.5972495344666666	12.03155762548889	-3.2461353942666666
O	-1.1853164955333333	9.52692997548889	-2.9714045642666664
O	-0.5198193515333334	8.22525873548889	0.5763370437333334
O	-4.141439875533333	7.367164915488889	1.2093762297333335
O	-3.9647323155333334	5.232641575488889	4.427288935733333
O	-2.7556050155333334	7.831860315488889	6.8751817257333325
O	-5.373134035533333	8.42191539548889	9.558111295733333
O	-0.8211681745333334	3.438676415488889	8.420646395733334
O	0.6865601584666666	1.377433885488889	5.745045725733334
O	3.6902509844666667	3.716484605488889	4.827020685733333
O	1.3964111744666667	6.609699855488889	4.953774285733333
O	-4.827509445533333	-1.464096564511111	-5.843722604266667
O	-8.931660485533333	-5.655988534511111	-4.502930934266667
O	-11.207664915533334	-6.617368194511111	-1.6167994942666666
O	-10.536652615533333	-9.96983656451111	-0.03343289626666657
O	-10.059277115533334	-11.75687217451111	3.341249895733333
O	-6.807829655533333	-10.65701967451111	4.840343355733333
O	-6.077530745533333	-8.18591550451111	2.0447818857333333
O	-5.354667555533333	-4.866815464511111	3.7888108257333335
O	-6.766059935533334	-2.652873464511111	4.928233055733333
O	-9.660730025533333	-5.147644784511111	4.3560047057333335
O	-12.056611015533333	-2.286594364511111	4.593378615733333
O	-0.9952011655333333	4.035299845488889	-7.469876174266666
O	0.6544553414666666	1.636230735488889	-9.887778514266666
O	-2.2777339455333334	-2.643124024511111	-9.777063714266665
O	-0.09478467053333334	-3.008595954511111	-12.841120014266666
O	4.408220064466667	-7.441019784511111	-12.411554514266665
O	4.011214614466667	-5.524892014511111	-9.170282814266667
O	5.045585014466667	-7.673408944511111	-6.202218904266667
O	1.4569424444666665	-7.366968844511111	-4.887324034266667
O	0.47635927846666665	-9.87881578451111	-7.639502524266666
O	0.7688059524666666	8.63675370548889	-7.347129014266667
O	0.8436457604666666	6.175954785488889	-4.446848454266666
O	1.3844836644666667	2.445007285488889	-4.5271009542666665
O	3.885738904466667	1.130560005488889	-7.061614364266665
O	6.676206714466667	-1.182770974511111	-6.175481774266666
