82

O	-3.010954158733333	2.9749826280166665	-0.931933531458334
O	-1.211637581733333	-2.1391697219833334	0.03800050154166601
O	-2.078274920733333	0.6086431810166666	3.1375362585416657
O	-2.8357841387333327	1.3106908210166666	2.151382218541666
O	-2.235620054733333	2.7131960380166666	1.758980628541666
O	-1.3074266327333328	2.1139713980166666	0.748602017541666
O	-0.8026144447333329	1.0180325410166666	1.3585553105416661
O	-0.534932358733333	-0.1760918219833334	0.776114243541666
O	-1.289580871733333	-0.44025646198333335	-0.313660195458334
O	-1.451177227733333	0.6779165010166666	-1.065444031458334
O	-2.021416436733333	1.6891415010166666	-0.334982257458334
O	-3.9587619487333328	1.6104591120166667	2.976672788541666
O	-4.489199268733333	1.7181138730166667	1.7888026985416658
O	-3.537452498733333	2.6680605380166664	3.791972308541666
O	-2.397204188733333	2.3145606880166665	4.534376338541666
O	-1.995619596733333	3.3755234080166665	5.273078638541666
O	-1.9180081827333328	3.8444021880166668	6.586711308541666
O	-2.406310821733333	5.178938118016667	6.836702258541666
O	-2.765975808733333	6.068378398016666	5.821121278541666
O	-2.0110082517333328	5.531504748016667	4.765390078541666
O	-2.320831590733333	4.307619798016667	4.353042878541666
O	-3.146655178733333	3.8572179180166666	3.339661838541666
O	4.923174441266667	4.676970048016667	-12.094900561458335
O	4.640761021266667	9.951907808016665	-10.946442661458335
O	3.4432434612666674	8.286444068016667	-7.730568431458334
O	1.5232636212666673	10.739571058016667	-5.617951971458334
O	-1.337945623733333	8.706321058016666	-4.319171361458334
O	-2.156532126733333	7.119108608016667	-7.704375851458334
O	-1.425490637733333	9.581333718016666	-10.503932961458334
O	9.554739561266667	5.776301518016666	7.226527758541666
O	9.845221661266667	8.675476718016666	4.751703298541666
O	7.2530270912666674	11.192952228016667	5.7337523785416655
O	3.688099891266667	11.783138028016666	4.570549588541666
O	2.5157119912666674	8.214447378016667	3.899391228541666
O	5.669095881266667	7.646467998016666	2.116973778541666
O	6.537471021266668	10.956717628016666	0.6098437480416661
O	2.830011971266667	-1.7392788519833333	-10.829446561458335
O	4.373481261266667	-3.9339210019833337	-8.183173171458334
O	2.666114711266667	-5.313007811983333	-5.1338633214583345
O	4.1575162112666675	-2.8051261719833334	-2.604702521458334
O	3.7019638212666672	-5.199312971983334	0.32657881854166604
O	4.330617751266668	-3.1076093219833334	3.4739567585416657
O	7.813070921266667	-1.9520675919833335	2.983181388541666
O	10.056334261266667	-3.298292751983334	5.739945948541666
O	11.680825461266666	1.5724725150166665	6.782611038541666
O	9.057871861266666	2.6087475280166665	4.209261258541666
O	5.479222061266667	1.9229455880166666	5.201350868541666
O	2.3053080612666674	2.7971311080166665	3.682570388541666
O	3.4220090012666677	4.117272138016666	0.238975535541666
O	5.727923601266667	1.1507472260166667	0.023970721541666018
O	9.248973561266666	2.3528046380166665	-0.323237170458334
O	9.045462561266666	-4.215324021983333	-1.237321721458334
O	9.196776161266666	-5.599911961983333	-4.708933101458334
O	-7.573488128733333	-5.468143141983333	0.887824802541666
O	-2.652616018733333	-7.559165291983334	5.147919688541666
O	0.6922188912666669	-8.021239061983334	3.554795978541666
O	2.7489384212666677	-7.439006141983334	6.679829398541666
O	6.080156641266667	-6.509858441983333	5.202288358541666
O	-7.583972318733332	-9.011304201983334	4.041626558541666
O	-9.876279518733334	-6.941034441983334	6.179638378541666
O	-8.743263528733333	-7.589478031983333	9.774396468541665
O	-7.842541098733332	0.06472391801666655	13.896522738541666
O	-7.773148658733333	-1.3213049219833333	10.331022398541666
O	-4.062545618733333	-1.0391986519833334	9.138353998541666
O	-1.4928445107333328	-2.3948478519833336	9.553481138541667
O	-3.747413738733333	-4.258614951983333	12.089034438541665
O	-1.415865264733333	-7.169468431983335	11.959344338541666
O	-3.8604426887333325	-8.609784981983333	-6.590555111458334
O	-4.451943798733333	-5.160781151983333	-5.320086621458334
O	-7.836430658733333	-3.907860371983334	-6.472994851458334
O	-11.061237188733333	-4.7454814219833334	-2.449057561458334
O	-13.284006038733333	-4.090206701983334	-5.438109521458334
O	-12.843050338733333	1.7836292630166666	-4.188395941458334
O	-12.665220938733334	4.647415878016666	-1.6988539114583339
O	-11.816430338733333	1.9005140480166667	0.9023985615416661
O	1.463640061266667	-8.189435621983334	-8.852757561458334
O	-0.8078914147333329	-5.214784151983334	-8.554790441458334
O	-0.8190659787333329	-3.0880987319833335	-5.455199131458334
O	-3.8815044787333326	-1.3193045419833336	-4.078133771458334
O	-6.398498068733333	0.19668190701666655	-6.278719401458334
O	-7.529207578733333	3.7732227780166667	-5.819832111458334
O	-10.733370598733334	4.016787308016667	-7.774114441458334
