21

O	-28.117561900013	32.84699086000879	-40.431896764827805
O	-28.20790227460198	25.443144981821362	-39.37251283082009
O	-28.91241571514498	24.364803942074367	-39.39731639686628
O	-25.353802079829563	35.83515173995516	-42.0909921023371
O	-27.250586226108197	31.86104590625627	-39.875665451195594
O	-29.204426998042102	26.750257389626697	-40.55579831429927
O	-24.368239339193536	35.641289780249	-41.17426693161006
O	-23.043108655393386	30.864196690159403	-39.52919088499344
O	-26.18191138280597	34.782535220261174	-42.36559810660681
O	-24.125155124899656	34.37780445209337	-40.728340251038745
O	-25.521943076778538	33.55583572718547	-42.38112743536241
O	-25.777885649020465	30.27575151289376	-40.35660842887806
O	-26.031857177332743	32.49636897689377	-39.89185710474177
O	-28.05648242061353	29.401263590372913	-39.89429633453201
O	-27.42574037001532	28.01447383013621	-39.828674430700936
O	-23.63999785801876	32.11393702581746	-41.39631680705913
O	-24.52271673709933	33.33118763280807	-41.506896391724354
O	-25.177690259674193	31.39034351363098	-39.85337372369643
O	-27.147092710133226	30.553001886930353	-40.21854504990253
O	-28.3261597747448	26.784201050809127	-39.72928309277943
O	-23.7562672765909	31.82290199532131	-39.974404219083056
