22

O	63.67655353988729	26.489696983796243	5.522151262634608
O	67.03023154311661	29.553498852284953	-1.5091394027664726
O	63.08302620669908	28.40033326225721	0.6896397996856798
O	66.37474398300948	25.93263677237789	2.7495361005178087
O	64.66536707478954	28.611018628365613	-0.612555330239329
O	62.88859564649406	27.13777759359725	4.62600765265934
O	64.8748176400016	27.09984793181585	5.564992944453549
O	66.78461593488765	26.27712496839235	1.537673327901437
O	65.14895992984185	25.36474872776691	2.823815801764515
O	63.35183242299853	28.025081580517114	3.69521534305834
O	65.1675951464102	27.876736665116702	4.50879417069675
O	65.78270971073235	26.478635259275745	0.6417109324902956
O	64.18075248152955	25.894575308836497	1.9646674928767545
O	66.6903308648813	29.248336871405655	2.1102011011776467
O	67.28021824304888	29.254560642823158	0.8437867787621246
O	64.82268954329908	29.551488809873128	1.4931850591586149
O	64.58373369531701	28.408382632205058	3.515328184575656
O	64.4366814304797	26.580959282584548	0.9084525546159274
O	65.43314846382188	29.10695573735885	2.566168897523087
O	66.56709758964529	29.826607587465535	-0.15985239971448362
O	65.25086262248927	29.731138810487533	0.16053099590691144
O	63.83570397145944	27.62699492263907	0.06977086196272642
