66

O	-0.24409368077816335	-0.9655188939044901	-5.843434573326531
O	-0.7521756527781633	-1.64740499390449	-4.896199503326531
O	-2.0219501287781636	-1.91286278390449	-4.617198963326532
O	-3.1587694587781634	-0.99814432390449	-4.3887768233265305
O	-3.627624618778164	-0.6913660239044901	-3.019014003326531
O	-3.976936618778163	-1.9953518839044901	-2.479412243326531
O	-3.4211519587781636	-3.20937334390449	-3.249271943326531
O	-2.052905588778163	-2.85639034390449	-3.631694383326531
O	-0.6941268238781634	-2.76581381390449	-3.290264823326531
O	0.11956951922183667	-2.0759233139044904	-4.006722443326531
O	1.1005278312218367	-1.01261639390449	-3.711688983326531
O	0.36997619622183664	0.24863029509551	-3.538902593326531
O	0.6783891412218366	1.14602931809551	-2.608195183326531
O	1.8247378512218366	0.96855262609551	-1.890345336326531
O	2.4590678212218364	-0.23259419590449004	-2.214013983326531
O	1.5318874012218366	-1.27352711390449	-2.4113413733265308
O	3.3495083312218368	2.25551791609551	-2.347939223326531
O	-8.367257158778163	5.78712154609551	5.573014906673469
O	-4.7962747287781635	6.13243408609551	4.398198506673468
O	-3.222450058778163	7.69380176609551	1.2181520666734689
O	0.13772036122183662	9.48319350609551	1.244141186673469
O	2.417584801221837	8.98401671609551	-1.7859924303265309
O	4.815545441221836	6.15510766609551	1.740493976673469
O	1.4774407312218367	5.80202352609551	3.5825958166734693
O	-0.9452421357781633	3.20870648609551	2.359760236673469
O	-3.8687590787781634	1.87324482609551	4.1488153266734695
O	-6.2727574387781635	2.03088221609551	1.269905736673469
O	-8.496594738778164	-0.9913773939044901	2.090092046673469
O	-5.630051328778164	-3.44365859390449	2.691170986673469
O	-2.5432970787781635	-2.1182399739044904	0.8196734866734692
O	-0.47901213277816335	-2.3767156239044898	3.799348786673469
O	2.2475376712218367	0.30810175709550996	3.920410866673469
O	4.746600021221837	2.14394169609551	6.0519824666734685
O	7.5496954712218365	4.13429787609551	4.291991136673468
O	10.653009091221836	6.19903547609551	5.036596206673469
O	-5.4156039487781635	10.88291091609551	5.236153156673469
O	-5.592418678778164	11.75878671609551	1.539215506673469
O	-8.498316698778163	4.40677592609551	-11.131331063326531
O	-6.388952398778164	6.07001564609551	-8.36920375332653
O	-3.533530988778163	7.69799579609551	-10.336791863326532
O	-2.7938807887781634	4.33505016609551	-11.93290286332653
O	-3.053453038778163	2.41836325609551	-8.709396233326531
O	-0.6117526736481633	4.69198753609551	-6.927317833326532
O	1.6477726712218368	4.50967494609551	-10.103099803326531
O	1.4889059312218367	0.69652799545551	-10.028004003326531
O	2.555500621221837	0.6904084801555099	-6.586549303326532
O	5.519150951221836	2.8653274860955102	-6.873908823326531
O	6.642571701221836	0.72290576399551	-9.698627483326531
O	6.278849481221837	-2.4624284239044902	-7.7277228233265305
O	8.137622471221837	-0.9528321939044899	-4.714387723326531
O	10.924443791221837	0.17477660509550996	-6.810650803326531
O	8.190858161221836	-2.70892029390449	3.124894566673469
O	5.315642051221836	-6.1077020539044895	0.33629629667346905
O	3.376682501221836	-6.37711584390449	3.631411666673469
O	4.0980793912218365	-10.13255168390449	3.951044566673469
O	3.4063249212218363	-11.12071358390449	0.32717868667346917
O	0.4691599912218367	-13.479178183904489	0.1087703066734691
O	-1.9975369087781634	-12.47628008390449	-2.650888653326531
O	-1.1480855067781635	-10.68056888390449	2.971868316673469
O	-1.6253909787781633	-6.9632909339044895	3.327901876673469
O	-0.47361079477816337	-7.19759691390449	6.976852856673469
O	-3.144547648778163	-9.75676768390449	7.624288226673469
O	-5.822735138778164	-7.79088933390449	5.875428746673469
O	-5.184780468778164	-4.62041419390449	7.793542756673469
O	-10.123411928778163	-4.97108043390449	9.014092436673469
O	7.933006241221836	-5.12909407390449	8.311491746673468
