23

O	13.94570564995188	-25.00617339528124	-12.140342784484204
O	12.782108948405275	-25.47110930587948	-12.387396282234395
O	12.71188066346184	-25.985966609941148	-13.690871231747588
O	12.29815879800095	-26.411704866287113	-11.362518540800718
O	11.09298910843583	-26.289268915962698	-10.732517876260278
O	9.996116954310626	-25.643967478780944	-11.426803199542782
O	8.843655381658092	-25.7700204607963	-10.612714792582965
O	8.031380970563127	-24.74215895377421	-10.129148920584731
O	8.198070270629739	-23.516703523941377	-10.078545950725442
O	6.737468849840079	-25.377916292580572	-9.720213429607192
O	7.277189621761242	-26.717305710381815	-9.324050527836764
O	7.349812513630207	-27.417378721837295	-8.122862424917614
O	7.530302547546478	-28.788436668591217	-8.33333148344027
O	8.711694246996785	-29.0914774849243	-9.007961759075782
O	8.879279914696431	-28.297265351576304	-10.149754272259962
O	8.36372327484689	-27.00539982223274	-10.150240200006078
O	11.056915042469226	-26.590349641798653	-9.38961109472235
O	11.926631749112902	-27.54239392439152	-8.943794847908856
O	12.759109002970963	-28.16485270595104	-9.842165406462778
O	13.335300447336003	-29.431495223087456	-10.012027075987369
O	14.522913966915382	-29.119490218414185	-10.686960833747854
O	14.386265565584248	-27.867487527555895	-11.30590435879575
O	13.185139310351344	-27.342339653009006	-10.888953636677542
