72

O	2.9546585949795925	1.4495792337734692	5.999941810734694
O	2.7835080549795923	0.2852913130734692	5.523901990734694
O	3.6587604249795924	-0.6547504322265308	6.072189740734694
O	2.4894103149795925	0.1582269667734692	4.113411190734694
O	1.7417901049795925	-0.8653089962265308	3.604533330734694
O	1.4176964349795922	-1.9967749362265308	4.463154270734694
O	0.2693568429795923	-2.6594638762265306	3.9298379407346937
O	-0.5343545140204078	-3.5121672962265307	4.7626046207346935
O	-0.7060826420204077	-3.5053869362265306	5.995448360734694
O	-1.529716265020408	-4.148676416226531	3.8701798307346937
O	-0.8018024180204077	-4.064336946226531	2.590199140734694
O	-0.8460935410204077	-4.928526706226531	1.5631598997346938
O	0.11942530997959228	-4.900111066226531	0.5999029667346938
O	0.8107211249795924	-3.6963510162265307	0.4378030937346938
O	1.2680339049795921	-3.257280546226531	1.6761709837346936
O	0.22855926697959228	-3.1464242062265306	2.6118733807346937
O	0.9964458149795922	-0.5619162592265308	2.4680648807346937
O	1.7342555049795925	0.0912564897734692	1.496633190734694
O	2.7029452349795924	0.9617109757734692	1.897653530734694
O	3.681660684979592	1.7406335537734692	1.2583659017346938
O	3.6611323949795924	2.917243093773469	2.032828430734694
O	3.5645927049795922	2.375665443773469	3.350612640734694
O	2.9268339649795925	1.1331606947734691	3.259804310734694
O	-7.020528715020408	-7.186203836226531	-5.855035179265306
O	-4.198564625020408	-4.708924316226531	-6.308925229265306
O	-0.32242434102040773	-5.237768436226531	-6.277012319265306
O	2.0038506949795925	-3.122931506226531	-8.405888929265307
O	5.356367384979593	-2.087459496226531	-6.919977729265306
O	2.854259954979592	2.331891773773469	-6.673908259265306
O	-0.41554023662040773	0.3479597798734692	-6.743449949265306
O	-1.5025720250204078	-1.1099428762265309	-3.3976102492653064
O	-4.880712835020407	-2.352309596226531	-2.6306752492653063
O	-3.8707193550204075	-5.4793514562265315	-0.9451514592653062
O	-6.663973695020408	-5.83693989622653	1.6565173927346937
O	-6.532271755020408	-2.2311160462265307	2.914360630734694
O	-2.935486935020408	-0.9210152362265307	2.246607910734694
O	-4.407925815020407	2.082742053773469	0.4429156017346938
O	-2.0702919850204076	3.289579793773469	-2.333897369265306
O	-1.9773765950204076	5.423992203773469	-5.4905032492653065
O	1.4956198849795923	6.357995103773469	-6.873533839265306
O	3.154531164979592	8.401700263773469	-9.619419279265307
O	-3.4878039450204077	-6.904491396226531	-10.604989479265306
O	-0.35301967942040774	-8.74240354622653	-9.439511579265307
O	3.3380708649795925	-11.040817886226531	-8.446709779265307
O	5.689241304979593	-12.66295998622653	3.789896290734694
O	5.197480774979592	-10.66010998622653	0.5442519667346938
O	8.745809694979592	-9.64783285622653	-0.4489591692653062
O	9.154391214979592	-8.158525646226531	3.039384350734694
O	5.798346284979592	-6.363430846226532	3.095519680734694
O	6.463910404979592	-4.73276963622653	-0.28771341926530625
O	10.007215094979593	-3.859647526226531	1.0284030837346938
O	8.603400864979593	-2.4005653162265306	4.228334790734694
O	6.082253594979592	-0.3225363932265308	2.2267936307346936
O	8.777372434979592	1.2006761817734692	0.06921175673469382
O	10.919821594979592	1.9972652137734692	3.037638070734694
O	8.032293824979593	3.6479853037734693	4.8509203007346935
O	7.061432894979593	5.646667553773469	1.7162162527346938
O	10.551196694979593	6.846571683773469	1.3353408157346938
O	0.37603039797959226	9.21866502377347	-0.6323861592653063
O	-0.05178840002040774	7.198416773773468	4.126103280734694
O	-3.7496657550204078	6.911009693773469	3.122878390734694
O	-4.907530105020408	9.11116775377347	6.050544610734694
O	-2.7151187550204074	7.537410723773469	8.783176350734694
O	-4.834141985020407	5.93984946377347	11.466850820734694
O	-3.5266793050204077	2.5123523237734693	12.458564120734692
O	-6.963927745020408	4.534301013773469	7.996245860734694
O	-6.225180015020408	2.8182769137734693	4.748078130734694
O	-8.622319785020407	5.222906193773468	2.922395160734694
O	-11.357551105020407	4.23869712377347	5.297358710734694
O	-10.640486205020407	0.5470312117734693	5.0147877007346935
O	-10.726024505020408	0.5031669837734691	1.2564861097346938
O	-4.703270825020407	11.90177561377347	-1.1305238992653064
