71

O	-1.2635162257170214	-1.9441437092425533	-4.07846217680851
O	-0.026220937217021234	-4.150446769242553	-3.2736218568085103
O	-0.9654680522170214	-3.2232671192425535	-2.8994939168085105
O	-1.2489432332170214	-3.101857089242553	-1.5673796168085103
O	-0.5923358732170213	-3.8123736892425533	-0.6076167438085103
O	0.4824574527829786	-4.583898389242554	-1.0325306418085103
O	0.5429865127829787	-4.991410389242553	-2.3609823168085105
O	1.0825319227829786	-5.230474509242553	0.14183830219148977
O	0.3322013527829786	-4.647045689242553	1.2973470831914897
O	0.4510530827829786	-4.903684719242554	2.5216750431914896
O	-0.8508976012170213	-4.117869079242553	0.7406590081914898
O	-2.1647903842170213	-4.058979009242553	1.3223100931914897
O	-2.3241838472170215	-2.7399067592425532	1.9328645131914897
O	-1.5344842962170213	-1.6348307592425533	1.7612800631914896
O	-1.9965121422170213	-0.45125006324255335	2.2769330131914898
O	-3.0158718372170212	-0.26415801134255334	3.18461417319149
O	-3.6292703372170214	-1.4775191792425533	3.5353151131914897
O	-3.2457724372170214	-2.687776189242553	2.9494263731914896
O	-3.6077933672170213	-3.8728323492425534	3.7562936031914895
O	-4.871985287217021	-3.9903248992425535	3.8680792331914895
O	-3.0092513972170214	-3.8423042392425533	5.02758399319149
O	-4.685739417217022	-1.1007668372425532	4.37042916319149
O	-4.9922822372170215	0.24005219775744668	4.00237740319149
O	-4.161853417217022	0.5674444927574467	2.9142275431914895
O	6.105160392782978	0.20607774875744667	-6.78951021680851
O	2.4103073727829782	0.09350033375744665	-7.92970330680851
O	0.3998229227829786	3.218330590757447	-8.759175896808511
O	-3.2593042472170213	3.2632628107574466	-7.66585775680851
O	-1.2466922710170214	6.477508840757446	-4.27054564680851
O	2.1170969627829788	4.7589854407574474	-4.83251797680851
O	2.692833692782979	1.5109502107574466	-2.9638776668085103
O	5.935830312782978	-0.14380352184255335	-2.42833926680851
O	4.806929492782978	-3.6092981892425535	-3.2166748768085105
O	7.150703392782978	-5.601797869242553	-0.8985579188085102
O	6.468047812782978	-3.5199218392425533	2.2394827931914896
O	2.9757702127829786	-1.9404903092425534	1.7721353531914896
O	4.503423772782979	1.5077531407574467	2.5305972031914896
O	2.658769832782979	4.2870692507574475	0.6575988741914898
O	2.9653607727829785	7.9041471507574474	-0.4658530168085102
O	-0.22132741721702143	9.689428210757447	-1.6782080968085102
O	-1.5137588432170213	13.063263060757446	-2.8503166168085103
O	3.379059012782978	-0.7297752862425534	-12.481015936808511
O	-0.21645349721702134	-2.9713996392425535	-13.875088636808512
O	-2.6905385172170213	-8.432733119242553	-12.257775836808511
O	-4.720833037217021	-11.663103139242553	-6.00875792680851
O	-3.748395047217021	-8.098183079242553	-7.10477555680851
O	-7.147288057217022	-6.543059629242553	-8.01453805680851
O	-8.359662157217022	-7.4842551792425525	-4.52212853680851
O	-5.236402377217021	-6.290949399242553	-2.70399806680851
O	-5.455094947217021	-2.8515426192425535	-4.47508913680851
O	-9.20895538721702	-2.8087782692425534	-3.6474098168085103
O	-8.541683527217021	-3.6943588792425532	-0.02453573880851026
O	-5.952457987217022	-0.9306192872425534	0.10338998319148976
O	-8.258867877217021	1.7338097907574466	-1.0207724938085103
O	-10.98536132721702	0.6126831017574467	1.2921218331914897
O	-8.70377943721702	0.6418311157574467	4.28324714319149
O	-7.262575277217022	4.087052550757447	3.3360582931914897
O	-10.694664697217021	5.432169570757447	3.08918441319149
O	-0.5741952612170214	8.049807470757447	5.09031122319149
O	-0.9207335642170213	3.474330710757447	7.58813443319149
O	2.906793702782979	3.690177290757447	7.39195753319149
O	3.3343042927829787	3.6225768807574465	11.21357046319149
O	0.8496370227829788	0.8263227607574466	11.99220236319149
O	2.545790672782979	-2.2235351092425533	13.466768463191489
O	1.3563133627829786	-5.482337649242554	11.80063326319149
O	5.392073252782978	-1.2623947292425532	10.380780663191489
O	5.378805512782979	-0.6410426812425534	6.65809251319149
O	7.875652922782978	2.2565490207574466	7.19242289319149
O	10.200631552782978	-0.09839850324255334	8.96297231319149
O	9.84708045278298	-2.8161364992425533	6.37049022319149
O	10.662826052782979	-0.5696726282425533	3.4728717631914896
