23

O	13.665694211270857	-25.412940466587035	-12.428740404981504
O	12.452434644112083	-25.75923763321969	-12.288910955523423
O	11.822102425881857	-26.01737927600911	-13.508094632340129
O	12.110121347777522	-26.624199213718402	-11.181307146811962
O	10.885520680386756	-26.600007220280094	-10.576917806045156
O	9.804685040256343	-25.849973366097423	-11.202797455438231
O	8.825291175538348	-25.545514400253545	-10.20762955328918
O	7.890838590070295	-24.47143919505535	-10.406918866247075
O	7.982916675597725	-23.44070095421248	-11.098685095196604
O	6.937356463621667	-24.532897328748668	-9.275810731120535
O	7.066527029634108	-25.95902537794299	-8.922545910052374
O	6.116477317877394	-26.771628150135257	-8.431956950498916
O	6.283883817257059	-28.124929608410643	-8.470012780547673
O	7.598192309541101	-28.594089704909006	-8.545421809203555
O	8.263653841836295	-27.936851260142475	-9.575310862993627
O	8.209085393462491	-26.542339893169633	-9.4314499623271
O	10.873926682817732	-26.923050953874807	-9.22242375779285
O	11.585415291534055	-28.074660285732627	-8.935618573956742
O	12.706400217477553	-28.339470689017187	-9.663723212328476
O	13.63349052110684	-29.392451706407243	-9.73462831166603
O	14.841966934056927	-28.69618723281193	-9.93318352133513
O	14.433562182300003	-27.70204273438754	-10.873430170808039
O	13.068951570619507	-27.459863901511223	-10.678525820094723
