25

O	5.105218739277442	-29.234747298459343	-8.078165336435003
O	6.338521575552336	-28.22518418482336	-8.835571796554554
O	7.513999666314195	-28.721312550705864	-9.307731323952174
O	8.15826691786346	-27.901236082195098	-10.236124303250136
O	8.320720206033993	-26.5824030965116	-9.744165055321638
O	7.025170935945666	-26.06855203474035	-9.556888595923237
O	6.12394943283873	-26.879224547468965	-8.926606392194092
O	7.010680344766138	-24.601379761411838	-9.519847485363483
O	8.355056181296895	-24.27093720844107	-9.9945742710515
O	8.73956946115635	-23.1100846356318	-10.183769268070339
O	9.052438307219948	-25.459360707034623	-10.177266095317526
O	9.941582740538314	-25.561590888590985	-11.316277675730753
O	10.94796685667264	-26.524137798822164	-10.965008950297065
O	10.708488394010198	-27.454716080006232	-9.985885984116742
O	11.779893893597977	-28.067013250952662	-9.409715137797878
O	12.868961715107718	-27.186140881617224	-9.319183807872887
O	13.213311010452173	-26.774777102783506	-10.647250711251196
O	12.220031757186021	-26.239526873503298	-11.447778335658574
O	12.609303160718014	-25.745483235535055	-12.743574285497127
O	12.920946507087788	-26.597542361870715	-13.65014688186383
O	13.82845077833155	-24.983630834299912	-12.757522443342282
O	14.37187001700971	-26.00451188134572	-10.682105323692278
O	15.469622691198719	-26.62563039348559	-10.116472861031973
O	15.18740984725325	-27.91562660860582	-9.504386478787628
O	14.003180276750932	-27.75233967105798	-8.72062826512633
