24

O	7.733318282632447	-29.162407884551655	-8.579823863328691
O	8.792734341170085	-25.921887035349858	-10.359466814970231
O	11.965892311956226	-25.87304020515169	-13.326427762484933
O	10.75887105491057	-26.826748951990012	-9.201851607630818
O	8.254980635397814	-23.613032998643202	-10.381091112515154
O	8.521873175345135	-28.424143381911865	-9.461329572831069
O	13.983836861416153	-26.443684453830016	-12.74286280864063
O	11.574662036705277	-27.690805134906235	-8.541678371614665
O	13.605602618625337	-29.062790706214074	-8.927507363531655
O	6.135616075284786	-27.494838952036854	-8.675859438753687
O	14.388214873569535	-27.29953935827642	-9.939261075943463
O	6.751841060583343	-25.275537514222897	-9.583595625670508
O	14.831471540966513	-28.359753763937853	-9.136250720049704
O	9.88732676334294	-26.059072948463776	-11.302699770191055
O	6.401471125647651	-28.853745059432743	-8.56252874113099
O	11.046732349589442	-26.302179882498102	-10.448654985053093
O	8.321907348417621	-27.059821133179717	-9.671722131415743
O	12.552611534464116	-28.292139381662622	-9.334076980017201
O	6.949274885998652	-26.79546671423971	-9.583505775999235
O	12.238453916178354	-26.585003268604048	-11.043101824230277
O	13.081248338681949	-27.439034817401172	-10.313023274156826
O	7.973299847485174	-24.822659334206403	-10.267496389146253
O	12.696502783791848	-26.076235505857547	-12.307931722309217
O	5.374442972735443	-29.878154705358558	-7.558734027048609
