73

O	1.4945024729361702	-4.609861741671064	-1.4592309191702135
O	1.1743360329361703	-4.579588861671064	-0.2479810501702135
O	-0.1205236870638299	-4.944008831671064	0.41941508382978654
O	-0.6879650110638299	-5.954887631671064	-0.0019069631702134382
O	-0.5058437760638299	-3.569087391671064	0.9090217618297866
O	-1.63082738706383	-3.416349771671064	1.7586168218297864
O	-1.7629079770638298	-2.211725961671064	2.3729989018297863
O	-0.5687275870638299	-1.631867951671064	2.7860013618297863
O	0.6315063819361701	-1.945925971671064	2.2308274518297866
O	0.6287732779361701	-2.778847111671064	1.1061661618297864
O	1.5511657429361703	-3.662034331671064	0.7164362218297865
O	2.58624206293617	-4.118377911671065	1.6565528918297865
O	3.48522113293617	-3.431464321671064	0.8498583718297864
O	3.47928559293617	-2.047493491671064	0.8797879618297865
O	4.541217472936171	-1.610930131671064	0.13376042482978656
O	4.693584302936171	-2.245152161671064	-1.0946076081702136
O	5.853302872936171	-1.9497110416710641	-1.7589947281702134
O	6.371618362936171	-3.007711251671064	-2.5118091981702135
O	5.21474280293617	-3.576402391671064	-3.2829520381702135
O	4.557090932936171	-4.265855281671064	-2.3032193481702135
O	4.470298922936171	-3.631907591671064	-1.0951088171702135
O	3.72032594293617	-4.291205371671064	-0.1861016841702135
O	3.87962251293617	-5.746724901671064	-0.14371214717021347
O	3.30249946293617	-6.569523401671064	0.5801181718297864
O	3.96717645293617	-6.334085451671064	-1.4395965541702136
O	-3.23772764706383	-1.190943650671064	2.9013220718297865
O	7.07913738293617	9.392621748328935	-1.4697315161702136
O	4.10437228293617	8.150680408328935	0.46883110282978646
O	3.68718315293617	6.638696648328936	4.0029859318297865
O	0.6475776769361701	7.361976148328936	6.150762361829786
O	-4.17186061706383	4.642855318328936	4.503940751829786
O	-1.6380563870638298	6.438076378328936	2.3131897618297863
O	0.7706400479361701	4.000964208328936	0.6322358518297865
O	2.84760000293617	4.944905098328936	-2.2388720881702135
O	5.99550862293617	3.465144838328936	-1.0259638441702135
O	7.5214807929361704	2.379680958328936	-4.400396548170213
O	4.24939836293617	1.0265095583289359	-5.917992768170214
O	2.27000967293617	-0.4119974597910641	-2.7970697381702134
O	-0.7025851070638299	1.337461298328936	-4.258755598170214
O	-3.01938719706383	2.819920428328936	-1.6527152181702136
O	-5.79424264706383	5.341984708328936	-1.0588900111702135
O	-7.78461756706383	5.051737478328936	2.2239216918297866
O	-10.70980749706383	6.564586208328936	4.087573911829787
O	4.90755653293617	12.076624928328934	3.3046383618297863
O	6.24858139293617	9.950988128328936	6.173816421829787
O	11.73086410293617	-3.887746701671064	7.927611911829786
O	9.15542822293617	-1.0350144756710642	7.948873291829786
O	7.16847533293617	-1.680406411671064	11.187755791829787
O	6.500364162936171	-5.201459221671064	9.994323191829787
O	5.670565052936171	-4.171878501671064	6.425158871829787
O	3.08848974293617	-1.6229732016710643	7.584578041829786
O	1.7801842229361702	-4.355798851671064	9.990513991829786
O	1.5182034729361702	-6.895246951671064	7.184235071829787
O	-0.3460886090638299	-4.485764461671064	5.147877741829786
O	-2.89656513706383	-3.658102651671064	7.610872411829787
O	-3.48418824706383	-7.271409801671064	8.367843611829786
O	-4.08539428706383	-7.997581521671064	4.7186251218297866
O	-6.496250467063829	-5.035491861671064	4.304950581829786
O	-8.451493427063829	-6.119545151671064	7.228256351829787
O	-8.897003097063829	-0.4127768811110641	-1.9589224881702134
O	-5.52245463706383	-4.338958291671064	-3.3822124881702136
O	-4.74559693706383	-1.874574591671064	-6.1714347281702135
O	-5.914115617063829	-4.195003581671064	-8.986123778170214
O	-4.473811417063829	-7.452008471671064	-7.718219148170213
O	-1.7700182970638298	-8.800029311671064	-9.969495648170213
O	1.4440692229361702	-9.850079031671065	-8.242494218170213
O	-0.6998231700638299	-4.627134631671064	-10.103134128170213
O	0.057752706936170115	-1.8424265316710642	-7.671301708170214
O	-2.10756568706383	0.5199398983289358	-9.841387828170214
O	-0.007801213063829887	-0.34924370257106413	-12.835259808170214
O	3.22153102293617	0.09672267932893586	-11.001710008170214
O	2.34857117293617	3.551053918328936	-9.720315058170213
O	-10.294817097063829	1.819521268328936	-7.060973768170213
