87

O	2.656307250122449	3.451216257081633	-4.141289688930612
O	1.8206071501224488	2.933388127081633	-3.106513258930612
O	0.5000145101224489	3.377668117081633	-3.3018756489306123
O	-0.5159768441775511	2.959792027081633	-2.404759518930612
O	-0.05488045387755114	2.1869199870816334	-1.3895011429306119
O	1.038695140122449	2.7301281370816333	-0.917512664930612
O	2.068866740122449	3.046140427081633	-1.744266438930612
O	-1.081837909877551	1.3052343790816332	-0.43505189153061197
O	-2.032043089877551	0.7338800630816332	-1.3596691729306118
O	-1.7000896598775512	2.2310440070816333	0.413686771069388
O	-0.6001886228775511	-0.028875526918366812	0.436182106069388
O	-0.5866763458775511	0.3425224650816332	1.696201511069388
O	0.1770132731224489	1.4198598070816333	2.1399093310693877
O	1.1258487801224488	0.8421482260816332	3.128881851069388
O	0.7444218501224489	2.588254917081633	1.603362581069388
O	-0.15115139487755114	-0.8528877329183667	-0.570384055030612
O	0.7339939601224488	-0.01826036991836677	-1.430847370930612
O	0.7069879101224488	0.05218907208163315	-2.690486418930612
O	2.076076610122449	-0.43994455791836684	-1.111112038930612
O	2.432810600122449	-1.773494642918367	-0.908901562930612
O	1.7231435301224487	-2.929236122918367	-0.612483079930612
O	0.8552654701224489	-3.163525712918367	-1.455058415930612
O	1.3797447001224488	-3.168635102918367	0.6736749210693881
O	0.22718462312244886	-3.491549512918367	1.319541921069388
O	-0.1435469468775511	-2.486026502918367	2.330980161069388
O	1.1336333401224488	-2.119216342918367	2.696380631069388
O	1.5862572201224487	-3.314425042918367	3.065867471069388
O	2.874021500122449	-3.412397072918367	2.672973611069388
O	3.0882773801224492	-4.188826422918367	1.5838753410693878
O	1.9359408501224487	-5.125905442918366	1.676168841069388
O	0.9003162801224489	-4.431554772918367	2.390043521069388
O	1.4679286401224487	-0.24827292791836675	0.240982490069388
O	3.310955890122449	1.1791132060816332	0.5923077010693881
O	3.9859149201224486	1.7303045070816334	1.6347954310693877
O	4.465922530122449	0.8016887870816332	2.520491011069388
O	4.215517320122449	-0.5638821129183668	2.396780001069388
O	3.5500197201224495	-0.9073358429183668	1.252572421069388
O	2.684090350122449	-0.0009204729183668325	0.826678451069388
O	-8.21704127987755	-0.5191636829183669	-10.247630428930611
O	-7.965205379877551	0.9886786330816332	-6.7710288289306115
O	-9.890077119877551	-0.2519219939183668	-3.735496618930612
O	-7.319331229877551	-0.4895364929183669	-1.133837964930612
O	-8.07279672987755	-1.5111203829183668	2.447348811069388
O	-3.527563839877551	-3.881169502918367	0.679132231069388
O	-3.387660319877551	-8.753875602918367	-1.6577709789306119
O	-4.713560859877551	-7.921952332918367	-5.022680558930611
O	-1.9550470498775512	-7.016138622918366	-7.475321568930612
O	5.737019470122449	-10.006936932918368	-2.039936068930612
O	7.703377280122449	-4.091566902918366	-0.46601274433061196
O	9.648906070122448	-0.9017154629183669	0.33102281006938805
O	13.11858357012245	-1.655521452918367	1.136008231069388
O	9.609011370122449	-8.103731682918367	-5.059291468930612
O	5.445079540122449	-4.324829182918366	-10.900829728930612
O	2.815864000122449	-2.512477652918367	-8.955360148930612
O	2.538767000122449	1.1765616530816332	-9.290244558930612
O	-1.254171988877551	0.7739779850816332	-10.060327888930612
O	-3.8258902698775508	-1.993437862918367	-10.186974918930611
O	-5.014929039877551	-2.650793042918367	-6.644861808930612
O	-7.844265579877551	-4.634646582918366	-5.174515648930612
O	-6.751207659877551	-5.730463372918367	-1.7236919889306122
O	-8.562790529877551	-7.312338902918366	1.1883076310693879
O	-8.530127119877552	-10.811670332918368	-0.200830135930612
O	-12.61919332987755	-6.8337503929183665	-0.8937514189306119
O	-2.809700549877551	2.456281337081633	13.157165871069388
O	-4.251397399877551	1.0235730870816333	9.900155171069388
O	-7.183976399877551	2.668217487081633	8.145273141069389
O	-5.884209669877551	2.632973807081633	4.5517096410693885
O	-8.165860939877552	3.791046847081633	1.6507276910693878
O	-2.968881069877551	5.368198407081634	1.3054679710693882
O	-1.2069463518775512	10.386665927081633	2.8108202310693877
O	-0.8217464938775512	9.486914037081633	6.489794861069388
O	2.531952540122449	8.039050267081633	7.482249121069389
O	7.229583230122449	8.459203317081633	-0.813239181930612
O	5.723585310122449	1.736847817081633	-3.763040098930612
O	6.159793370122449	-1.6618063529183669	-4.892734418930612
O	9.84018867012245	-1.999433742918367	-4.115460178930612
O	10.71313267012245	1.6145973070816333	-4.090885118930612
O	10.851350970122448	4.760561187081634	-1.943936758930612
O	11.63349217012245	5.959054327081634	1.545154281069388
O	12.507936670122449	9.340056977081632	2.929620911069388
O	7.63043096012245	2.692849617081633	8.372254151069388
O	6.709902960122449	-0.6127167229183669	10.035009471069388
O	3.058335830122449	0.4229260110816332	10.424432371069388
O	1.195512680122449	3.589428367081633	11.35285467106939
O	-1.0430114908775512	4.449979607081633	8.374022731069388
O	-4.0960046598775515	6.6205693170816335	8.282656401069389
O	-4.519211979877551	7.744501867081634	4.668502831069389
