48

O	21.59715696992428	-1.9966599148407138	15.22968753147582
O	20.683637992655928	-3.9448918899824026	14.24708397165412
O	22.59795146455881	-1.2428636707543959	14.57955835680568
O	20.90771009574354	-2.708600415842856	14.29263098324482
O	19.763459393191553	-2.5901440522766723	16.70110289444581
O	20.547453723232834	-1.8913859219456508	13.400760022357726
O	21.31836810827219	-4.877421697345092	14.908530716519998
O	20.002426899528817	-1.543309308872871	17.44842272834617
O	19.34637956143127	-2.230421551721756	19.317083257849283
O	21.37462229501534	-5.45182361668075	13.578829213894675
O	21.050275769315338	0.3097893915780243	20.284162456299768
O	21.59855643185732	2.2800177266663377	19.684768218939805
O	20.33194665186764	-5.462333550029833	12.51552116498093
O	21.422933453046443	-5.009940705343476	17.412584226845517
O	23.342588483982297	1.2687139536661602	19.956753372941595
O	21.562137506420544	-6.714439089967304	15.912840003820932
O	21.109109823537377	-0.8077730812689619	15.911467093061603
O	19.807052100466276	-0.8436587851720623	15.38501885663353
O	19.146357911064577	-2.1350587456209724	15.52982573874692
O	18.615534669364628	-2.9280010484047487	17.43060031216479
O	18.59800221025776	-4.127233091383902	16.75001458246499
O	20.07919359310957	-1.3819232744223457	18.68164599816226
O	20.193727895441658	-0.2039284975446165	19.356448719848572
O	19.63581873313105	0.7261959974476282	18.34436394285009
O	19.172554866179173	1.6016431132101374	19.472187724359713
O	18.430085155394742	0.050680463674836584	17.89993562652293
O	20.508131876550255	1.3917695926612277	17.581463978409147
O	21.985298151475035	1.0484143235584673	19.476573670087856
O	23.85039204922074	1.7309764231412568	18.6354887662524
O	18.11928400446615	-4.207745964878544	15.493293678068111
O	17.995002545825486	-5.390233569313618	14.767168431584386
O	18.501199156890436	-6.530376632494595	15.251292813120532
O	18.565806470525292	-6.376130769012615	16.58272696800713
O	18.40139391617435	-5.229522414318238	17.355600562705522
O	22.33265901388367	-3.051477748308267	15.722100484090738
O	22.644995468565508	-2.121993830906191	16.6906629205179
O	22.933574376265245	-0.7889607915569337	16.779241097360476
O	23.0516077014245	-0.802378318232682	18.04624669223881
O	23.487138648293126	-1.7360384161145441	18.818827413798797
O	23.560011517344535	-2.8752748809146604	18.109646929142347
O	23.61226395757223	-2.8815081232471167	16.767110661364086
O	23.004850630560433	-1.8920684941674766	20.05728454895421
O	22.029696689911425	-2.782932515582427	20.314715757759327
O	21.48378932810995	-5.45956495003323	16.15091747617135
O	21.339580457921763	-6.889381506727626	13.658891825695054
O	22.081874433910897	-3.81912436465863	19.55452451282208
O	21.35516856388387	-4.316927343201652	18.580957352466864
O	18.49280705209267	-8.274637298498906	14.533033668016307
