41

O	21.380612642825785	-1.7420020382006762	17.904943854001154
O	20.32059250328753	-1.0675650894564235	17.557138841230163
O	19.369344742462097	-0.22884341369434846	17.79305805005433
O	18.92922101146077	0.039949869085324385	18.998644535676668
O	19.32261435460197	1.1606603704581222	19.646417884097808
O	20.188200294706014	2.0163252510523026	19.098612318476242
O	20.45486980041138	1.7408036655616186	17.810369661494935
O	20.062259802622613	0.7278767642488155	17.14170017528895
O	21.322528477800947	2.3221460050853704	19.720643997379394
O	22.491391860459665	1.725706323617788	19.374012592042646
O	22.598222081159516	1.3244101901267646	18.01431910208282
O	23.466397594031363	0.14744406541465382	17.879887108877554
O	23.193635530414888	-0.5849219406313194	19.054781096574324
O	24.123149603916264	-1.2850688468068976	19.44256067675322
O	22.031474552220658	-0.4606916446067807	19.70004730154362
O	21.451359592567435	-1.1844615981361715	20.770296083218014
O	20.68923764880435	-0.21599481861129965	21.53519507854423
O	21.548387434473916	0.6619206598942478	22.274813873417934
O	22.939745802456205	0.4336913195840595	22.285855238203048
O	21.113746249522567	1.7783447775745327	22.60377206252723
O	20.39228868724169	-1.8973099154494628	19.94787505494137
O	19.754026831610496	-2.4878473267238777	20.834236900346507
O	20.943845846912712	-2.5887823609262184	18.89453692237406
O	22.004042517274815	-2.6056487750637283	16.910570012270473
O	22.852613484525843	-3.332103345536848	17.55425301175362
O	20.846162675437053	-3.391774308170797	16.722994532653082
O	19.826753555099017	-2.4181635384685363	16.165047903050453
O	19.423189111684657	-3.7105369321035395	15.683583452324555
O	19.02676167425735	-4.428256889087792	16.941932477570962
O	18.176602307386176	-3.488140371288182	17.561439950657373
O	17.673334115454228	-2.9732688624827848	18.72092798495101
O	17.557241753806753	-2.645234638888711	16.511061660738257
O	20.911129545185563	-1.776068502407314	14.9528486272028
O	20.139320154472287	-0.6957335804284029	14.454181783594413
O	22.16483230406494	-1.1467105627163074	15.347886403043786
O	21.296096235961997	-3.2496921290066654	14.119732557147008
O	20.18011032205873	-3.6691260737914035	13.471905548055911
O	20.26604211744781	-4.885082994338215	12.781565480678648
O	20.38737483259504	-5.973917331952933	13.669056789229797
O	21.23188283796269	-5.617503929675725	14.658605502490218
O	21.664542300246836	-4.345036483739489	14.846047925854233
