90

O	1.342339659096078	4.961604258235294	0.3129855713333326
O	-4.434834060903922	-0.005828621764705888	-1.4662213366666674
O	3.361614599096078	4.329006328235294	-0.2607400574666674
O	2.681487069096078	4.9490803182352945	0.8392039733333327
O	-3.697350860903922	-1.9577961217647057	-2.1922259066666676
O	-4.696291310903923	-1.3847276517647058	-1.3589915466666673
O	0.7432038090960779	2.9023073282352945	2.3637040133333325
O	1.502888119096078	1.2225139452352942	0.7509372163333327
O	-0.7218718379039222	0.43382322823529407	-1.0983859456666674
O	1.819028509096078	-0.07136925176470577	0.3570019783333327
O	-0.5598743799039222	1.642662351805294	-1.9454042366666673
O	1.2668882390960778	2.3699861872352943	3.6607616033333326
O	1.008663169096078	1.0590108522352941	4.077622373333332
O	2.468288149096078	2.9626526182352944	3.9287080733333326
O	0.8981443190960777	3.7236653482352944	-0.051475995666667385
O	-3.2147782009039223	0.3723445782352941	-1.0254879266666674
O	3.038358109096078	3.0059109682352942	-0.24612403136666738
O	-2.439158230903922	-1.6967838817647058	-1.6608810466666672
O	0.3612884690960777	-0.702228031764706	1.8873590033333325
O	-0.3264305799039222	-1.169407811764706	0.6538078333333327
O	-0.20342644590392223	0.6151168282352941	2.0122180833333325
O	-1.3691083219039222	0.5723558482352942	1.1345209333333326
O	-1.6655168219039223	-0.8106974317647058	0.9810484533333326
O	1.7550701090960779	2.6202502882352943	-0.14104579726666738
O	-2.173763710903922	-0.46913360176470564	-1.2205225176666674
O	0.3154242890960778	1.768189596235294	1.7109699233333326
O	1.588151669096078	0.7316532622352941	5.303053063333333
O	3.027970429096078	2.574895499235294	5.155674413333332
O	2.8978034590960777	1.2023822732352942	5.382546313333332
O	-0.9536727709039222	1.4363504962352942	0.14078230633333264
O	-2.217176710903922	2.105691642235294	0.19374330633333262
O	-2.401674160903922	2.545562577235294	1.5755020633333328
O	-2.1859799009039222	3.8576107382352944	1.7388572533333326
O	-2.1279997309039222	4.396845698235294	2.9867776633333323
O	-1.829082630903922	3.554794138235294	4.007740163333333
O	-2.6907855709039223	1.7839097462352942	2.6538109333333324
O	-2.1363588709039223	2.237032800235294	3.8567908333333323
O	0.19721685909607778	-0.40953821176470595	-1.7561624366666673
O	2.5960531290960778	1.2173918952352942	1.8255526233333328
O	1.7991558490960777	-12.389459691764705	-3.1108498266666675
O	1.3040122490960777	-9.053797191764705	-4.834960836666667
O	4.082321429096078	-7.072280191764706	-6.533546426666668
O	3.5299737690960775	-3.629075721764706	-5.093269386666668
O	5.707454749096078	-0.7205502017647059	-6.2955219766666675
O	5.060310069096078	-0.614421511764706	-1.0088519726666674
O	8.231311029096076	-2.9017298017647057	2.6345195633333325
O	7.452289209096079	-6.524029271764706	2.1916024733333326
O	4.692046659096078	-7.726760001764705	4.549299383333333
O	4.770038229096078	0.5493238082352943	10.594146873333333
O	-1.0314983549039223	2.6922341482352943	8.105996133333333
O	-4.534932060903922	4.218841968235294	7.607241463333333
O	-5.450725870903922	6.268319838235294	10.405455073333334
O	0.31563276909607774	-0.8786868617647057	13.276498373333334
O	2.424233509096078	-3.532259541764706	15.067638873333333
O	-2.206126810903922	-7.786887751764707	9.625243553333334
O	-1.8837619209039222	-6.956671461764706	6.004462463333333
O	-4.843601070903922	-7.098589551764706	3.6420322533333325
O	-2.7540523009039224	-9.340970091764705	1.3380394933333326
O	0.7706775190960778	-10.638989391764705	1.0348079533333328
O	2.8316281190960777	-7.903182431764706	-0.5498340666666673
O	6.260064859096078	-7.729383741764706	-2.0286432266666674
O	7.544101899096078	-4.229185091764706	-1.6403971966666673
O	10.468928769096078	-2.289836851764706	-3.0118070766666674
O	13.040643969096077	-3.712672441764706	-0.6323657256666674
O	12.810825569096076	-7.041028031764706	-2.3942219566666676
O	11.591029069096077	-5.792975141764706	-5.789663236666668
O	2.1771424190960778	11.308837308235296	-7.9167621566666675
O	3.3750229890960783	7.722460458235294	-7.1529808966666675
O	3.1311307690960777	4.969683148235294	-9.704383336666666
O	1.665426259096078	2.170473855235294	-7.635277176666667
O	1.1579133490960776	-1.3479756217647056	-9.088150506666667
O	-2.895475370903922	0.43584091823529425	-5.945973916666667
O	-7.560677490903922	2.594171036235294	-7.921148016666668
O	-6.120900720903922	6.092982268235294	-8.219621306666667
O	-6.406492470903922	8.264835638235294	-5.145685466666667
O	-11.219987830903923	2.510327773235294	0.7268239883333326
O	-5.607723300903922	-1.0739035517647058	3.9393680333333325
O	-3.280132390903922	-1.8717777917647058	6.854275693333332
O	-4.738411370903922	0.15467797823529406	9.628109183333333
O	-8.209216870903923	0.5730229782352942	8.251900173333333
O	-10.264496770903923	2.7453979482352944	5.900690973333332
O	-10.822981130903923	6.305791838235294	4.7891117833333325
O	-13.740876130903922	8.030505678235293	3.1491886433333325
O	-4.431129170903922	10.919115108235294	1.5026960733333325
O	-0.8903163288039222	12.122424708235295	2.1829141033333324
O	0.1799550580960778	11.128546628235295	-1.3695913366666674
O	-1.1856471769039223	11.214480168235294	-4.869225886666667
O	-1.4013461099039222	7.555325198235294	-6.0149923166666674
O	-1.6539503669039222	6.373972708235294	-9.557025776666666
O	-3.238810740903922	2.9354858282352945	-9.537311566666666
