29

O	21.001344975015506	-1.2629402077882625	17.18997078110096
O	22.161903732999722	-0.713349666804344	16.785757290107284
O	23.112697406667245	-1.6464201745140554	17.200076849886337
O	22.86620012574832	-3.006795668271261	16.817373407521465
O	21.52698969026694	-3.352450008294743	16.314376156119724
O	21.418520988376	-3.6286797925334735	14.98674871974266
O	20.355857876898973	-4.31046567636349	14.568273188318802
O	20.537769710595395	-5.102405052759906	13.293755995893877
O	19.305897760268667	-4.329936628340775	15.429045805545515
O	19.53572452106985	-4.332703843854248	16.749043688938546
O	20.911350741544293	-4.405582245314468	17.048997145713717
O	23.313991219063674	-1.2457390791302432	18.60944788374408
O	24.38233513623393	-1.6299034385970208	19.032905075072378
O	22.059570094498103	-1.4475733024248254	19.350382431084945
O	22.17700677637856	-2.083906236745756	20.38415814356192
O	21.08592793175099	-1.939402416930737	18.343276517443364
O	19.754304089664018	-2.0070142835039593	18.866947022377012
O	19.698521414441196	-0.5825202011185637	19.321941197179214
O	20.11413861408766	0.34731974987729464	18.431677892405823
O	20.835835044628094	1.3881771913837868	18.780759812150855
O	20.70876187351797	2.6020688198813486	17.973825017774047
O	21.588625001928637	1.370845260196667	19.883242439910443
O	21.06298360948877	0.6731573241677831	20.917369812256418
O	20.274527636656277	-0.4192415676724641	20.551505473382313
O	22.022701106141646	-1.0354667570863652	15.35527333444236
O	20.729072354670794	-0.586011627338497	15.086929479646148
O	19.968388442644816	-1.1025873628704455	16.230541241649735
O	20.526572226795285	2.0203416252786477	16.699109518301082
O	21.766209738092225	-5.672461593370224	13.514154637995942
