49

O	22.183669941422743	-5.329071571608495	16.66335917089516
O	22.193713517165474	-2.972071625560499	19.626875323456606
O	23.342935422882398	-6.43297618145079	14.598687218675714
O	22.507457953600365	-5.0745365051647635	12.661547687245045
O	20.932928520494062	-3.214313031481609	18.927271638457384
O	20.88873152880206	-2.9497593639360207	14.989253587348294
O	21.57656989366513	-3.9777639855226905	11.917226227393074
O	19.955095933972196	-2.3385795709970862	19.56966818611042
O	23.580330124137735	-4.253249383844599	13.020656998870342
O	23.754130660658596	-1.4891438922403275	18.609009087364754
O	22.887184675671595	-6.1949735201234	11.577106222204577
O	23.209689981395385	-4.766873389940107	17.415187773316315
O	23.084141909765638	-0.9966608039658309	19.774826876607225
O	23.330454641324387	-2.8019258761222807	18.676566559584508
O	20.784910877512694	1.4316228550163776	19.357307616245755
O	21.49559806504887	-4.700328027453518	15.78482328262824
O	23.039816649822964	-3.4314382076429153	17.670072092650813
O	20.222242742782875	-4.672989242962876	16.40181217697475
O	24.26893446734929	-4.655855809079659	16.784679963298675
O	20.950884585407053	-4.4768822510354305	14.44082123291916
O	19.888435277566597	-5.403364239759879	17.329390218172634
O	20.125469416770954	-5.613061472966561	14.077805822721519
O	22.237967704861056	-1.7322511920998127	13.584647404622961
O	20.149960141964545	-6.519962136662098	15.078335866448858
O	23.663789823298618	-2.467379426876594	15.17214181634603
O	20.32288509655951	-6.4949810537969785	13.05602796517604
O	20.752976259028916	-1.435538825947018	20.23408750655706
O	21.215403384756456	-7.45811471219743	15.20977126806265
O	21.50354830009503	-7.305942276840025	13.12762278160595
O	22.21935237028667	-7.231927213581713	14.331429501558222
O	23.5504166985265	-5.23229022730235	13.918785454853923
O	22.233253233133226	-3.7468663339006705	10.783351137143036
O	21.5246493508532	-3.5682024715558294	9.516710041927503
O	22.621709118788974	-6.005164828422167	10.295377505512441
O	21.322390876192877	-6.595540501999713	9.908641261894306
O	20.61263144914639	-3.228228450608461	16.451598712727964
O	19.83593414920838	-2.0975098626843858	14.823759322756063
O	18.69358756581731	-2.734546087265436	15.428075137371385
O	21.89226968093266	-1.0093409661316846	16.20296886574836
O	22.666504882734884	-0.10358344449903578	16.707997078296778
O	22.192314584463876	0.8912063937842505	17.581493450191775
O	20.987130358442215	0.8002119344638539	18.183464862849082
O	20.21133488927375	0.02956884832963036	17.415834305427158
O	20.66313328579495	-0.8873708429140399	16.58275063026888
O	18.419410234804513	-2.697490867656213	16.84149590805227
O	18.00921824486935	-3.9686651764732197	15.098585269457809
O	21.56306932537345	1.6670268225526823	20.46432837845328
O	21.889648316244976	-1.534737227466437	19.565375155340675
O	22.31275785995076	-2.139012897089159	14.988516414053507
