85

O	-6.08126321068085	2.6593633893191484	-0.485085743438298
O	-4.838322160680851	3.153563189319149	-0.07482331943829801
O	-4.338621130680851	3.1749793093191485	1.227236287561702
O	-2.9321722806808506	3.1321121293191485	1.447750017561702
O	-2.1025399496808506	2.997910629319149	0.4229481175617019
O	-2.57440901068085	3.998457909319148	-0.3501802294382981
O	-3.9631710306808507	3.964777009319149	-0.789968108438298
O	-0.4840332146808505	2.9406409893191485	0.4581408675617019
O	-0.07334359068085039	3.576103739319149	1.621986747561702
O	0.18394500931914948	3.5718210993191484	-0.709058570438298
O	-0.025562780680850494	1.5564398663191485	-0.273218268438298
O	0.9660085493191495	1.3644312403191485	0.5892234375617019
O	0.2395992593191496	0.9936787440191486	1.761827837561702
O	-0.8380982286808505	1.5606985433191487	2.4675521175617017
O	-0.08400850068085042	-0.4070646206808515	1.9996682875617018
O	-0.41233279168085046	1.5163132543191487	-1.558794385438298
O	-1.8013819736808505	1.8803643883191485	-1.6280774954382982
O	-2.1786266596808503	2.2926163893191482	-2.783299092438298
O	-2.7310053906808505	0.8912382003191486	-1.298223841438298
O	-2.2298342826808506	-0.32469905068085136	-1.792815061438298
O	-1.2325720586808504	-0.42451087068085136	-2.666397642438298
O	-1.0349652116808505	0.37665540131914854	-3.558267192438298
O	-0.05576827068085044	-0.9548020806808515	-2.424757432438298
O	1.1759588593191495	-0.6006627706808514	-2.007345082438298
O	1.5831426093191496	-0.7380421406808515	-0.632530289438298
O	0.28390220931914945	-1.3703050306808515	-0.35048651043829804
O	0.8265725093191494	-2.4098052606808515	-0.879709895038298
O	-0.38250918968085046	-2.7279545306808517	-1.425927607438298
O	-0.2775391806808505	-3.0215885906808513	-2.711468502438298
O	1.0966545993191497	-2.7362326806808515	-3.116332342438298
O	1.6148056993191495	-2.0757918706808516	-2.078492722438298
O	-1.9073588886808506	0.7114622663191486	-0.0536876914382981
O	-3.9292206306808506	0.10197223231914854	0.8061698875617019
O	-5.0107404006808505	-0.7029695206808515	0.629730907561702
O	-4.76430077068085	-1.9048063006808513	0.03680924456170198
O	-3.5279385206808502	-2.452495710680852	0.20161153756170191
O	-2.5536091506808507	-1.5284795506808513	0.0941749775617019
O	-2.6957887106808505	-0.2743232306808514	0.48503615756170204
O	9.495937259319149	3.7592695193191483	-8.265586562438298
O	8.715097059319149	2.6415897993191484	-4.724283442438298
O	9.268734059319149	4.8153105593191485	-1.705801811438298
O	6.152691969319149	4.337201179319148	0.18161136756170204
O	5.597698019319149	5.943388859319149	3.6003691275617022
O	1.6134015893191493	5.761322079319148	0.04405721656170192
O	0.027976449319149443	10.429211529319149	-2.860469202438298
O	2.4193903193191497	9.82723287931915	-5.665479082438298
O	0.8935965493191496	7.613938589319149	-8.420060462438297
O	-8.91449108068085	7.778705529319149	-5.3729870224382985
O	-8.536982600680851	1.3021323133191487	-3.4061663624382983
O	-9.30584778068085	-2.318989870680851	-2.522722422438298
O	-3.7059217006808503	1.7160709903191487	-12.842506642438297
O	-1.2985737676808504	1.3847807563191485	-10.012525582438297
O	0.43046679931914955	-1.8850826006808516	-9.372066112438297
O	3.735582879319149	0.005706579319148641	-9.288911502438298
O	5.0734990693191495	3.480378619319149	-9.498681052438297
O	4.9278121193191495	4.9264844293191485	-6.032515642438298
O	6.3806517093191495	7.951363149319149	-4.412749262438298
O	4.071659889319149	8.856836719319148	-1.593013596438298
O	4.362205319319149	11.288379459319149	1.3111121375617016
O	-0.6131961626808504	0.8397086323191486	13.381095157561703
O	0.9825138393191495	2.5527842093191486	10.324725557561703
O	4.681398059319149	2.1494413693191485	9.565291557561702
O	4.591096209319149	1.3951804733191486	5.878906077561702
O	7.769183619319149	1.0565514923191486	3.7859538575617018
O	3.9867549793191497	-2.6388284806808517	2.489117257561702
O	3.934862559319149	-7.718985840680851	4.598040287561702
O	2.222071819319149	-6.799104360680851	7.828434027561701
O	-1.5510601596808504	-6.849040580680851	7.778011267561701
O	-5.069828810680851	-13.19973604068085	-1.0700019704382981
O	-3.44156145068085	-9.745972440680852	-0.948188423838298
O	-3.4589313306808505	-3.344223360680851	-4.720607132438298
O	-5.000045460680851	-0.6008988006808513	-6.750601272438298
O	-8.48320883068085	-1.8193298106808513	-6.942715172438298
O	-7.890073870680851	-5.4969306106808515	-6.502697832438298
O	-7.562065410680851	-8.12331622068085	-3.7638096524382982
O	-8.85382827068085	-9.204626040680852	-0.3583460444382981
O	-8.81919864068085	-12.516122140680851	1.467431857561702
O	-8.33673532068085	-4.127162030680851	6.490547907561702
O	-9.19887596068085	-0.6194842306808515	7.581614247561702
O	-5.732407170680851	-0.013985820680851413	9.007522837561703
O	-3.1623365806808508	-1.9884026206808516	10.891762957561703
O	-0.031361280680850534	-2.030658260680852	8.743051917561703
O	3.479601539319149	-2.705869860680852	9.735335957561702
O	5.24827029931915	-3.7714155006808516	6.540813257561702
O	8.904377659319149	-4.294804190680852	5.828687427561702
