104

O	-1.8632669546218183	-2.1101837133036367	-1.992980247545455
O	-0.9669368696218185	-2.505152943303637	-1.181828296845455
O	0.9918242553781818	0.12954637269636332	-0.6234916525454549
O	-1.3418001956218184	-2.1053394633036366	-3.219288172545455
O	-2.0162415596218186	-3.023023913303637	-3.782720712545455
O	-1.0597337326218184	-3.308888013303637	-0.20062508254545486
O	1.7732689253781817	-0.3830400803036367	0.4902297474545452
O	-2.3207600496218186	-3.4110864033036368	0.2255301574545452
O	1.6389894053781815	-1.8035414933036367	0.45320181745454513
O	-4.937792974621819	-1.3494333833036367	-1.516526399545455
O	1.1496780553781816	-2.801193383303637	1.151153457454545
O	2.6893434153781817	-2.210470213303637	-0.2976908615454549
O	-3.1377770646218184	-3.298340833303637	-0.7811007495454549
O	-2.2757538316218184	-3.1291958033036367	1.421467537454545
O	1.1647292653781813	-4.088515403303636	0.6451675674545452
O	2.7552336253781817	-3.4593032333036366	-0.8036859415454549
O	1.7438869253781817	-4.294917613303636	-0.5605964415454548
O	-0.3012222046218185	-0.6506506503036367	1.0120876974545452
O	0.11594969537818156	-1.6268232633036368	-1.110837925045455
O	-2.0376708966218184	-1.0411413333036368	-5.085122572545455
O	0.6022409053781816	-1.8977712133036366	-2.304564772545455
O	-1.2265844556218184	-0.9411222733036367	-4.052293382545455
O	0.0317845153781815	-0.3355438453036367	-1.415704911545455
O	0.10686166537818154	1.4173744266963633	1.0709647974545453
O	-1.0156128046218185	0.34169994469636333	-3.856612812545455
O	-2.8101869846218186	1.1633426286963633	-1.017671325145455
O	-3.8136628146218188	-0.8563377433036367	-1.036027267845455
O	-4.0805287546218185	-1.0183489433036368	1.051492337454545
O	-2.0712531706218185	1.1494874096963632	-3.9708512525454545
O	-3.2841687946218183	0.4257128836963633	-4.016307912545455
O	-4.5220887546218185	0.8596597766963634	-3.903033742545455
O	-5.639306904621818	0.5203225506963634	-4.4897146225454545
O	-5.493775624621819	-0.7166012323036367	-5.045219432545455
O	-2.9143962246218185	1.2109489326963634	0.39510390745454504
O	-4.270888864621819	-0.8706106833036366	-5.644940102545455
O	-3.176119334621818	-0.3680574033036367	-5.060537092545455
O	-0.09394913462181842	0.6311341146963633	0.17400334745454504
O	-6.333874784621818	-0.9675706833036367	-1.7918437625454549
O	-1.5398144559218185	-0.42841231530363666	1.2838815074545449
O	-2.0938011886218186	-0.2712250273036366	0.2130877074545452
O	-4.761743814621818	-2.2797797933036366	-2.631799462545455
O	-1.6767127196218186	0.6978407026963633	-0.8029822385454549
O	-6.333591834621818	-0.9687093833036365	-1.7917184615454549
O	-3.6653922846218183	1.4942200666963632	-2.024003544545455
O	-4.765909494621819	1.6634436866963633	-1.2089709235454549
O	-5.259708934621819	1.5152866166963632	0.003377617454545012
O	-4.062535594621819	1.7389587166963631	0.917706607454545
O	-2.0027896556218185	0.9036932356963634	1.5212897774545453
O	-3.3712059746218186	-0.6350356893036366	0.18827157745454515
O	10.96523550537818	6.2487941766963635	-3.270712742545455
O	9.243267805378181	4.9691131666963635	-0.14999204654545495
O	7.390236665378182	7.219159136696364	2.280656117454545
O	4.211528225378181	5.290187326696364	2.7916204274545455
O	1.6067690053781816	6.534817696696364	5.246128197454546
O	-0.5278757846218185	4.830388376696364	0.6741476574545451
O	-1.6708341054218185	7.762758466696364	-3.6996061925454553
O	1.5977552453781814	8.171408636696363	-5.000100892545455
O	2.5696143753781815	5.618367116696364	-7.583364592545455
O	-7.477917024621818	1.9032316866963632	-12.716628772545455
O	-6.063952134621818	1.5077538166963633	-9.130665652545456
O	-4.453713284621818	-3.9002060033036368	-5.756876082545455
O	-4.445892314621818	-7.143431573303636	-4.2656855125454545
O	-6.963143714621818	-9.380219773303637	-5.806523122545455
O	-7.577833234621818	-3.672395873303637	-10.238474662545455
O	-4.513926924621819	-2.520688573303637	-12.049888572545456
O	-4.082277344621819	-0.03420646930363666	-14.985309372545455
O	3.4146291953781818	-1.6067427033036368	-12.032079572545456
O	4.1357046653781815	-0.7869276333036367	-8.515704152545455
O	6.354517855378182	-2.979172333303637	-6.5017807525454545
O	8.352875095378181	0.16777810239636332	-5.559969122545454
O	8.06920589537818	3.913387956696363	-6.012032062545455
O	5.744177415378182	5.094099876696363	-3.280948742545455
O	4.995145905378182	8.519338636696363	-1.974611360545455
O	1.5288757553781813	8.327967446696363	-0.5449312505454549
O	-0.40875370462181837	10.805265236696362	1.5645966974545449
O	-1.3479520416218185	13.153938136696363	-1.2742909445454549
O	2.2145096453781816	14.405417836696364	-1.372311423545455
O	3.201487115378182	13.540817536696363	2.219484897454545
O	-5.672630974621819	7.471920776696364	6.781833457454545
O	-3.756466174621819	7.205810576696364	10.120162227454545
O	-5.767061134621819	-0.44050875130363665	12.685735527454545
O	-3.7849275246218186	1.6912972066963632	10.160108027454545
O	-0.30641657462181837	2.8666905866963632	10.996692727454544
O	1.4588186253781814	2.034271416696363	7.760574717454545
O	5.123374365378182	3.0250661266963634	7.253071717454545
O	3.7059120653781816	-1.899372593303637	5.2734462574545455
O	4.7847064153781815	-6.410308223303637	8.106465637454544
O	1.6953635353781815	-6.267464623303637	10.291795427454545
O	-1.3174817706218185	-7.873315953303636	8.698587777454545
O	2.3134475453781818	-11.433902863303636	0.8726263274545452
O	1.4991160153781815	-5.7459882333036365	-3.7268366525454546
O	0.29838172537818153	-3.9935586533036367	-6.708771392545454
O	-1.9604674706218184	-6.674289003303636	-8.174378112545455
O	-0.4513535846218184	-9.610948993303637	-6.646083812545455
O	-0.5280699746218185	-11.621892963303637	-3.495443662545455
O	-2.6792411846218185	-13.064453863303637	-0.8293657895454549
O	-2.1804343456218183	-16.131554263303638	1.3680381174545453
O	-7.072868794621818	-8.362930623303637	4.236011267454545
O	-9.659671714621819	-5.745663733303636	4.340720197454545
O	-7.769175424621818	-3.644839033303637	6.985849207454545
O	-5.774555944621818	-4.167922843303637	10.086691227454544
O	-2.298057709621818	-2.857409453303637	9.084346827454544
O	0.36825177537818155	-2.013472313303637	11.625161027454544
O	3.670044475378182	-2.2952591433036367	9.798815327454545
