38

O	20.98507627362882	-0.34746398537058343	22.14513550306956
O	21.212923422973027	0.36676656052079704	20.963574111310848
O	20.299722446055966	1.1761417216821033	20.288496998681204
O	20.397973617516474	1.339432154209772	18.87722341225586
O	21.30828971955339	0.6668729195357974	18.191989292245633
O	22.39220226597543	0.9896454889280801	18.9298451859461
O	22.4287531101201	0.6295401447689204	20.342277468708062
O	21.595884707857316	0.7050287859540831	16.599581634037122
O	21.131326015575322	1.9246166796473534	16.1273023561695
O	23.021760457940655	0.5213992011698174	16.221301285897272
O	21.451987525153005	-0.8074272395136335	16.01054786011076
O	20.873929207479218	-0.41233693084624923	14.893257354409569
O	19.58928041829446	-0.05028234221819039	15.39795011011506
O	19.134522839051456	0.7860274712021789	16.431169437237532
O	18.52802653665997	-1.0440307076754272	15.450114055460494
O	22.333196886928548	-1.6386070043979561	16.56946402400009
O	22.34775489435975	-1.4232655280732485	17.97754286546682
O	23.412417087028956	-1.7997280072719481	18.59670222830339
O	21.334016124726563	-2.071757258812837	18.704961042605003
O	21.14581449799478	-3.3207007834244724	18.093907999482855
O	21.99402195938557	-3.8874641980169082	17.238154391584104
O	23.199892336888205	-3.7250241965492417	17.27796683078599
O	21.7378605671551	-4.130284214988848	15.966316036047692
O	21.839759019979017	-3.5299726086333556	14.76452923684164
O	20.74743059615373	-2.820806507268334	14.154450411996963
O	19.89873130872989	-3.216712140275438	15.289750017463783
O	19.83963191692093	-4.34595016338754	14.680646964802468
O	19.865827666271066	-4.978901855989414	15.886422966102394
O	20.750665931788923	-5.962036358654217	15.89579453397786
O	21.45472245385017	-5.937480920510495	14.613949567858056
O	21.142888123675686	-4.738636389950054	14.112996586718477
O	20.407270253121514	-1.4470334836901078	17.705042615520316
O	18.967935725012957	-1.53111634512926	19.469036088882135
O	18.422854747774775	-2.3362387331017755	20.419669996290878
O	18.24911593121217	-3.6399502309933722	20.063103781481534
O	18.064482194668432	-3.919637530487516	18.742942080705635
O	18.8861655761571	-3.1936366786048187	17.96080553015159
O	19.25767675628898	-1.9576873646776882	18.243329104068017
