42

O	17.99260477135369	-4.365559223420645	19.959331980892472
O	19.067186064951287	-3.253676995513128	17.869253883514173
O	20.01061205360369	-3.4284172139062106	19.797803535987676
O	19.116251156004708	-3.9382147917751906	19.12652910156694
O	20.319882339808615	-4.908037002574483	13.867032576654637
O	18.44192496075927	-3.6876743614139156	15.561871770610539
O	19.923050921311585	-2.533944979674337	17.063046951146514
O	17.32639312638939	-8.417714099171532	13.79530691594071
O	21.958793610037066	-5.352990387433106	15.13165712302248
O	20.610180785621793	-1.2628413028650451	17.03646113119716
O	20.23717625660802	-6.919966015702041	15.329845893588413
O	16.405813031157187	-6.622913235920237	14.817563424040662
O	21.258609601027295	-0.5339316207842306	18.104568621354822
O	19.597157452471155	-9.982180156763432	15.263715237211896
O	21.167085323153074	-8.327474824147975	13.884586389871632
O	20.168583318180602	0.13222391327397576	18.876925721474606
O	17.459251203341992	-7.373681444558635	18.824343587333107
O	21.698807712280903	-9.704209788458238	15.994600922887582
O	20.00455120720722	-0.16919471997140612	20.31161680371496
O	18.659856047331278	-9.443892583271998	18.729694672773118
O	21.228161398299335	0.509909770928997	20.92993472018628
O	18.757206404767093	-7.923919144794134	20.599156975044004
O	22.28979742070034	-0.433933149884282	20.440870089182653
O	21.977636639028766	-1.1933764357944345	19.22525217338429
O	19.398275729627372	-2.7587607308676025	15.670729555511983
O	20.555982197944072	-2.5876270139481576	14.92305204759207
O	21.596642597621027	-3.3907305015165745	15.481257276513068
O	21.63556944176907	-3.6371676918177465	17.0227079151474
O	21.710236767486972	-4.985344094528458	17.29441840679734
O	23.11319655631433	-3.152085758122587	17.108845109233968
O	20.863570094501373	-4.711199244098343	15.120032464984261
O	20.548602133013475	-6.217020989007474	13.223153974883171
O	19.317457929935667	-7.021998612292462	12.911389840677787
O	18.278079760576706	-6.157363375969177	13.623632770581219
O	17.131260995657808	-7.012723205417505	13.89292354040025
O	21.09839850445412	-7.078725561442521	14.239654799653747
O	20.35660498880921	-7.864751218002809	16.380774216087403
O	20.619165771590907	-9.1683826013251	15.77715071756264
O	18.89035462819907	-7.721445199775932	16.5594014043821
O	18.67939738507001	-6.339860651283384	17.066899225348315
O	17.401400890874633	-6.494375963065217	17.79083040678295
O	18.10161480703943	-8.296009651047061	19.36932734534858
