109

O	1.504170579156863	0.7496667843137259	2.3083652265490198
O	4.485450319156862	2.953599711313726	-4.66349559345098
O	0.9707791191568628	1.8217967663137258	2.586832936549019
O	4.8626074391568626	3.129804141313726	-2.477094743450981
O	2.6589622891568627	0.9850846843137259	1.5904707465490195
O	3.6634837291568627	0.22793725131372589	1.0047625065490193
O	2.940662799156863	2.328190825313726	1.3163504265490193
O	4.0253228091568625	2.471500903313726	0.40128746754901934
O	5.178427339156863	1.745699187313726	0.29410731154901937
O	3.6508990291568626	4.046806991313726	-2.410623913450981
O	4.379394999156863	3.719736891313726	0.6906383765490194
O	6.464092409156862	2.212573050313726	0.3024888665490194
O	5.558837389156863	4.352736371313726	0.5908606665490193
O	3.036482499156863	4.611544931313726	-1.4167220414509807
O	6.595853969156862	3.563051551313726	0.19504839154901932
O	3.6738234791568627	4.831763381313726	-3.556698133450981
O	2.814117559156863	5.886043141313726	-3.551171293450981
O	3.159221889156863	5.966362261313726	-1.2388354444509806
O	2.5725805991568627	6.494455011313726	-2.3534390834509806
O	1.0545674191568628	-0.16779104868627415	3.228951386549019
O	-0.2506915693431373	-0.3102162086862741	3.6455058065490196
O	-0.9603107278431373	-0.390049298686274	2.4129271765490197
O	-2.0093306508431374	-0.9844149386862739	2.459388556549019
O	-1.1178160388431373	-0.814142158686274	4.611807526549019
O	-1.8579607908431373	-2.0835687286862745	4.389101316549019
O	-2.365272000843137	-0.004827348686273991	4.490760996549019
O	-0.4326763998431372	0.42314804131372585	1.4538901765490193
O	-1.1398673058431372	0.0569430313137258	0.28673512554901937
O	-2.458515690843137	0.058789071313725794	0.7427866865490194
O	-2.520730120843137	1.390176208313726	1.4721513565490194
O	-1.747774980843137	2.1052824493137257	2.2271365965490197
O	-1.7267729608431373	3.403644421313726	2.340753646549019
O	-2.412609460843137	4.124377571313726	1.4348501165490193
O	-3.271216040843137	3.481394251313726	0.6431746965490193
O	-3.202374840843137	2.152336306313726	0.5996544865490194
O	-0.4259608628431373	-1.128616858686274	-0.055880934450980635
O	-0.08416587334313727	-1.879283778686274	1.0087917065490193
O	1.790031239156863	-1.2218844486862739	-0.3648273214509806
O	0.7191130591568627	-0.5706077586862739	-0.7093230624509806
O	1.4066452791568629	1.506581278313726	-1.0821435554509806
O	0.5604420821568628	0.7313540303137259	-0.32343835145098065
O	-0.7596702818431373	1.1396183373137259	-1.0429205144509806
O	-0.5109164588431373	2.624574532313726	-0.8021759614509807
O	0.4318998351568627	3.206711321313726	-0.018759203450980644
O	0.5341538151568627	4.509215861313726	0.29588412854901935
O	-0.06061313584313727	5.249979821313726	-0.6794306554509806
O	-0.9647939588431373	4.728231231313726	-1.5089265294509806
O	-1.2183281308431373	3.4089272513137256	-1.5838751834509806
O	2.275787339156863	2.739885051313726	-2.9076538034509802
O	0.9920239991568628	2.743254041313726	-3.1143763334509806
O	0.7262725241568627	1.554737525613726	-2.3132981334509806
O	0.2915199861568627	0.508759881313726	-2.7130468034509807
O	0.6390835841568627	2.456475261313726	-4.419932463450981
O	1.6600875791568628	1.546361938113726	-4.87319103345098
O	-0.5574859088431373	1.5840350655137259	-4.29239451345098
O	3.1355928891568627	1.694661647513726	-3.0260629034509803
O	3.144945789156863	0.995495801313726	-2.0429484834509806
O	4.4220042491568625	2.147763690313726	-3.418237343450981
O	5.233953259156863	-10.748104838686276	5.233055286549019
O	2.1429500791568628	-9.543701138686275	3.360360176549019
O	1.2965292991568629	-10.392290238686275	-0.23083464945098064
O	0.3260144531568627	-7.142122638686273	-1.5858488034509806
O	-0.7530787718431373	-6.625800418686274	-5.20982311345098
O	2.631729279156863	-2.976521598686274	-3.751314853450981
O	7.930285449156862	-3.0037060986862736	-4.4187115034509805
O	8.944805819156862	-5.269899618686274	-1.7883983534509806
O	9.816336479156863	-3.460721468686274	1.4377254265490194
O	10.372661029156863	5.939101581313726	-2.1684587434509806
O	4.319431039156862	7.466560921313726	0.5046878065490195
O	1.3590232491568628	9.211895151313726	2.078222466549019
O	1.902681609156863	12.855947561313725	2.0205528365490197
O	10.386580529156863	8.525610601313726	2.3823405365490196
O	10.142957629156863	2.488962594313726	7.734838236549019
O	7.463628089156862	0.3410441513137259	6.48864227654902
O	4.455581599156862	-0.3058401786862741	8.525290076549018
O	4.894637279156862	-4.110672148686274	7.77159546654902
O	6.899237189156862	-6.4230611686862735	5.64480533654902
O	5.373299809156863	-6.449500198686274	2.2025013565490195
O	5.9164312491568625	-8.541386638686275	-0.8080058134509807
O	5.073351219156862	-6.429675068686273	-3.7772442934509805
O	4.683556379156863	-7.246436208686274	-7.4442733334509805
O	8.377611939156862	-7.407572138686274	-8.22833078345098
O	8.567284719156863	-10.659568538686274	-6.3824841734509805
O	4.908926729156862	-11.690111938686275	-6.71213904345098
O	-9.520750690843137	1.090804244313726	-9.893704633450982
O	-6.576259960843138	-1.0260991786862743	-8.504562513450981
O	-7.176304650843138	-4.499275078686274	-7.19555275345098
O	-5.103293270843138	-4.283511258686274	-4.03955262345098
O	-4.678635330843138	-7.391793288686274	-1.8371716034509806
O	-5.598590350843137	-2.966308968686274	0.8334472065490193
O	-10.483394170843138	-1.2701103286862743	2.8858219465490196
O	-11.650348070843137	0.2738607313137258	-0.36685846245098064
O	-10.747979270843137	3.925985281313726	-0.8521209994509806
O	-7.877870740843138	8.593826001313726	9.421298166549018
O	-6.108670290843138	5.9883590613137265	7.32157813654902
O	0.9372336391568626	4.054523851313726	5.437053816549019
O	4.544890919156862	4.636046961313726	4.865186936549019
O	4.7085644891568625	8.343243381313727	5.079915656549019
O	1.737922609156863	8.774023601313726	7.148801826549019
O	-1.9895751608431371	9.260515011313725	7.1620355965490194
O	-4.794659150843137	11.005459401313725	5.41378587654902
O	-8.267681340843138	12.095078861313725	6.48466088654902
O	-6.207031070843137	9.521591211313726	-2.7282212434509807
O	-4.487128300843137	9.491544171313725	-6.05567644345098
O	-5.963251370843138	6.092526401313726	-6.938114823450981
O	-9.210714410843138	4.258721341313726	-6.63080369345098
O	-8.377120500843137	1.1750372283137258	-4.556622293450981
O	-10.356926270843138	-1.968835218686274	-4.3055397234509805
O	-9.418833910843137	-3.5776436986862743	-1.0278340664509806
