92

O	-1.133004989737255	0.4989799627254904	-0.24699990378431433
O	-1.5718506097372549	-0.5124556172745096	0.5905756270156857
O	-0.8858554437372549	-1.5191285372745096	0.0838046820156857
O	0.39622744026274515	-1.0997747772745097	-0.5395253289843143
O	-1.007873610737255	1.5527700157254904	0.5025124020156857
O	-0.4520367278772549	1.0518199317254904	1.6977895890156858
O	0.7366659702627452	0.4173945607254904	1.1947618790156858
O	0.7545286302627452	-2.4451590172745097	-0.5495133049843144
O	0.7386764502627452	-2.7011879172745097	0.9470912190156857
O	-0.0953910117372549	-2.4208285072745097	1.9492155090156855
O	0.34458028726274514	-2.54997251727451	3.2200058190156855
O	1.664912270262745	-2.5209479972745097	3.4933013590156854
O	2.4718558302627454	-2.7635581172745094	2.4635033390156855
O	2.036813740262745	-2.4044051672745095	1.2343801590156858
O	-0.11281792373725491	-0.5734588572745096	-2.053088510984314
O	-1.0391291087372547	-1.9342979572745094	-2.5196120009843144
O	-2.148024159737255	-1.9694194272745098	-1.7439587009843143
O	-2.848500319737255	-3.0685552472745097	-1.3067427809843142
O	-2.1285581297372547	-4.139929827274509	-0.8806418819843143
O	-1.1243204187372549	-4.29860489727451	-1.8527832309843142
O	-0.4969869566372549	-3.1260293472745095	-2.3888336009843143
O	-2.9366183397372545	-5.339244697274509	-0.7466690359843143
O	-0.9820295587372548	0.4789149857254904	-2.5240652409843145
O	1.0947149802627452	-0.18760855727450954	-2.6400575609843147
O	1.6431946002627453	0.45701462972549045	2.2500781090156856
O	0.8597972102627451	0.5997055156254905	3.4738349990156854
O	-0.4900713613372549	0.4600191227254904	3.6382666290156855
O	-1.1259286287372547	1.2321700797254904	4.557928559015686
O	-0.2843611447372549	1.5707672047254904	5.601034109015686
O	1.0018729702627451	1.1328153787254904	5.747260919015686
O	1.5427208802627452	0.6092099490254904	4.605721319015686
O	1.4078690002627452	1.6045587437254905	0.1546430260156857
O	1.469344160262745	2.8217541727254902	1.3084754690156857
O	2.3517137302627455	2.7056309227254904	2.2641412890156856
O	2.363403020262745	3.5467033627254905	3.4279199290156854
O	1.173277150262745	3.9061338627254902	3.9724229990156856
O	0.0932315582627451	3.7934435427254902	3.1771934690156853
O	0.32859175726274514	3.1598806427254904	1.9433541290156857
O	0.961413180262745	4.38580340272549	5.307154049015686
O	2.5068056802627448	0.9008810927254904	-0.3315535046843143
O	0.6606559902627451	2.1739259127254904	-0.8952994529843143
O	-8.805194399737255	3.07517808272549	-9.197831690984314
O	-5.1031347297372545	2.2928652227254904	-8.879828360984314
O	-2.3377449897372546	4.856279462725491	-9.351235100984315
O	-0.20688121373725488	4.13112895272549	-6.344561150984314
O	3.052323690262745	6.0564351427254906	-5.8048071109843145
O	0.18000258526274515	5.455200132725491	-1.5075785809843143
O	-3.281498669737255	9.071460762725492	0.6281094790156856
O	-6.179363999737254	8.55852019272549	-1.6227372609843143
O	-8.556496309737256	5.94923111272549	-0.16018824898431433
O	-4.686575889737255	5.381988802725491	9.036271469015684
O	-2.273840499737255	-0.6539567272745095	8.190944889015684
O	-0.7130834497372549	-4.02966477727451	8.398600949015686
O	-0.5248821061372548	-5.01599912727451	11.885421669015685
O	-7.694349649737255	1.2382007887254904	10.688274269015684
O	-10.640841339737255	3.6682910527254906	10.965202269015686
O	-11.926268939737255	-0.7583308072745096	4.084548409015686
O	-9.329222839737255	-0.5095987372745097	1.4736507090156856
O	-8.580109679737255	-3.49555455727451	-0.5929061889843144
O	-8.905083969737255	-1.3346151972745095	-3.7391734909843146
O	-9.640347539737256	2.2146931927254903	-4.7220331609843145
O	-6.306871809737254	3.9633781427254906	-4.663040020984314
O	-5.125557649737255	7.29109385272549	-5.883527030984314
O	-2.232407809737255	8.290968932725491	-3.7306165609843145
O	0.35835926326274514	11.05858999272549	-3.9451435209843146
O	-3.7918484297372546	13.720636792725491	-5.777872100984314
O	-1.088052840737255	12.26612849272549	-8.071767880984314
O	13.756522260262745	1.7984502827254905	-0.7786102799843143
O	10.386122360262744	3.1920091727254905	-1.9939944709843143
O	9.460825960262744	3.0677501527254902	-5.647987410984314
O	5.895654370262745	1.8141393827254904	-5.398193630984314
O	3.653069710262745	1.4939449247254903	-8.497177040984315
O	3.329517060262745	-2.46012072727451	-4.9152302409843145
O	5.8568375102627455	-7.404767427274509	-5.634582540984314
O	9.018873930262744	-6.19035392727451	-3.9690001809843145
O	9.232002210262744	-6.58153375727451	-0.23221101878431433
O	1.279956690262745	-14.29051200727451	2.9967720890156855
O	0.906534710262745	-10.77473470727451	1.7059522390156858
O	-3.513122499737255	-4.766322867274509	2.9346210090156855
O	-5.5095023697372545	-2.3721239572745096	4.660710959015686
O	-5.291958639737254	-3.9123473472745096	8.088266639015686
O	-4.465426349737255	-7.402464407274509	7.137617809015686
O	-1.592499029737255	-9.718838207274509	6.1782705790156855
O	1.941672910262745	-10.661715907274509	7.1561013090156855
O	4.070790900262745	-13.72146720727451	6.605960219015686
O	8.107805520262744	-4.621132967274509	6.867018519015686
O	9.003957240262745	-1.1682065272745097	8.056548269015686
O	9.985614460262745	-0.05430872427450961	4.547407739015686
O	11.900218160262744	-1.5319461972745096	1.6533519490156858
O	9.396047550262745	-1.5436621472745098	-1.2674961979843142
O	10.272051760262745	-1.7939076972745096	-4.888414710984314
O	7.257406830262745	-3.1383763772745095	-6.7218782509843145
