89

O	-2.560254957897959	3.7284572536326532	-3.579469325510204
O	-2.1610594078979593	2.4081355136326534	-3.321050335510204
O	-2.333164767897959	2.2809253236326534	-1.973843962510204
O	-1.844596127897959	3.0766403636326536	-0.993456894510204
O	-0.9769795518979592	2.4632486536326534	-0.13798768551020402
O	-1.119963990897959	1.1510049826326534	0.08941859448979605
O	-2.3314902178979593	0.6545085406326534	-0.20661345551020394
O	-2.876030567897959	1.1569462676326534	-1.356945522610204
O	0.20543909510204095	0.4763594336326534	0.9412626544897962
O	0.8914003221020409	1.1329218476326535	1.994576644489796
O	-0.4381180828979591	-0.6315305793673466	1.574478764489796
O	1.4686909621020412	0.6547385006326534	-0.18445133551020398
O	1.126822732102041	1.9350906636326535	-0.8060671285102039
O	0.7864383221020409	1.7994392336326535	-2.3265779555102037
O	2.237112992102041	1.5111867436326534	-2.701808295510204
O	0.865822732102041	3.3086075436326534	-2.5750782955102043
O	1.0144848621020408	0.20203388843265338	-1.412815827510204
O	-0.29209172389795907	-0.1945227723673466	-1.686383669510204
O	0.571802812102041	3.7950546736326536	-3.880874765510204
O	-0.7535223987979591	-0.2426909643673466	-2.849685305510204
O	-0.6381737808979591	-1.3512502163673465	-0.992777316510204
O	-0.8910670098979591	-2.6177449063673466	-1.436960215510204
O	-0.8086129123979591	-3.6459673163673467	-0.42986181251020394
O	-1.760616165897959	-3.5960041763673467	0.3468905344897961
O	0.3941645921020408	-3.7229983263673465	0.2045835444897961
O	0.806865122102041	-3.7205207363673467	1.5168663144897958
O	1.847923302102041	-2.738583676367347	1.8626554444897958
O	2.774990522102041	-2.9878721263673467	0.914597394489796
O	2.666362122102041	-4.184644426367347	0.48193608448979597
O	2.4923731721020412	-4.514279996367346	-0.810273769510204
O	1.390337582102041	-5.254545536367347	-1.058581698510204
O	1.0800077521020408	-5.775761596367346	0.307689034489796
O	1.7438639021020412	-4.960251566367347	1.323546524489796
O	0.8060457921020409	-1.4792137163673467	-0.47772843151020394
O	2.922038112102041	-1.6013061963673467	-1.673652743510204
O	3.525022382102041	-1.4597002263673466	-2.853300385510204
O	2.779587632102041	-1.3697053163673467	-3.982965495510204
O	1.5943052821020411	-2.0253240663673466	-3.905669315510204
O	1.017222672102041	-2.3286391663673465	-2.676413855510204
O	1.5957084521020408	-1.7992307863673465	-1.601893653510204
O	-11.743551857897959	3.5906783636326534	4.804287824489796
O	-8.066996667897959	4.545529893632654	5.0727162044897955
O	-5.81903169789796	3.7727470436326533	8.039420714489795
O	-2.817327787897959	2.3604902936326533	6.562778264489795
O	0.24836507210204084	1.2821602566326535	8.529891174489796
O	-0.961979001897959	-2.2997678563673465	4.670176854489796
O	-4.0904359478979595	-6.656495796367347	5.450995504489796
O	-7.42106435789796	-5.044485916367346	5.444889994489795
O	-8.91043147789796	-4.920977916367347	1.950514244489796
O	-2.664820717897959	-11.136941656367346	-2.485983865510204
O	0.44375607210204093	-6.523846976367347	-5.795948315510204
O	2.286805622102041	-4.410205316367346	-8.401887925510204
O	3.673358722102041	-6.448022646367347	-11.017537925510204
O	-4.269768927897959	-10.505371656367346	-7.443973855510205
O	-9.96888714789796	-4.850516196367346	-6.500083605510204
O	-8.349596317897959	-2.4368802063673467	-4.183186665510204
O	-8.10276358789796	1.0607992766326535	-5.273461435510203
O	-9.75490546789796	2.1690892936326533	-1.897046319510204
O	-10.96220095789796	0.6387658326326534	1.3009769744897959
O	-7.96195890789796	0.11106581463265339	3.562151284489796
O	-7.60659884789796	-0.8549059263673466	7.1686782244897955
O	-4.285413067897959	-2.6157002463673464	7.494157824489795
O	-2.2384188378979593	-3.7639027063673463	10.480205324489795
O	-4.2593245178979595	-6.852541016367347	11.187550424489796
O	-5.026202857897959	-1.6009305563673466	13.392409224489796
O	12.37640834210204	1.9030275036326534	5.341275944489796
O	8.65309485210204	1.3953214536326535	6.166636154489796
O	6.71956446210204	4.179093623632653	7.865613184489796
O	3.552155832102041	4.120131603632654	5.756793174489797
O	0.5068901521020409	6.315839373632654	6.644316984489796
O	1.649352012102041	5.765091973632654	1.396185324489796
O	4.432315222102041	9.787663103632655	-1.413467940510204
O	7.897975702102041	8.427878073632654	-0.49177170651020397
O	9.31931714210204	5.769193803632653	-2.807135815510204
O	2.601388652102041	5.330922633632653	-9.767719095510204
O	-1.992341647897959	0.06683334763265339	-6.835008455510204
O	-3.550629887897959	-3.2360628163673466	-6.3200560655102045
O	-2.133953837897959	-4.9932770263673465	-9.365239885510205
O	-1.1915514068979591	-1.9881260563673466	-11.319113875510205
O	1.5400690621020412	0.6044641296326534	-11.928732675510204
O	5.301160572102041	1.0380506796326534	-12.104288575510205
O	7.533343742102041	3.6756106536326536	-13.631940675510204
O	10.22643754210204	-1.1410478163673465	-5.481066445510203
O	10.94667854210204	-4.045648986367347	-3.1205849055102037
O	10.73375174210204	-1.7978347363673466	-0.04841468551020389
O	11.746710042102041	1.7042427736326533	0.8654131744897962
O	8.527424882102041	3.5488496836326533	1.763673414489796
O	8.26309875210204	6.662798503632654	3.8146490644897963
O	4.97073300210204	8.297151043632654	2.9072942344897963
