94

O	0.3633527730612238	3.350951854081633	-0.10474531010204136
O	-2.101996438938776	3.949778184081633	-4.7333103131020415
O	-2.440095703938776	4.714630424081633	-1.7298460301020413
O	1.292039723061224	3.1746213440816327	-3.2544993031020413
O	-0.9525629229387761	6.112943544081633	-0.8031259001020413
O	-0.3579359069387762	5.296216924081633	-4.225132433102042
O	-1.532790296738776	2.9201961640816325	0.8401342968979586
O	-0.9888391989387761	3.6718224340816326	-0.13171840610204133
O	0.42644134306122394	1.8130042950816327	-4.740042453102041
O	0.2555154730612239	3.092453864081633	-4.191393813102041
O	-2.2901896269387763	0.38434049708163287	1.3471364868979585
O	-0.7538075469387762	4.088291584081633	-4.360286623102041
O	0.027708773061223768	-0.4404050359183671	1.4967969668979586
O	-1.5354637545387761	4.792398944081633	-0.8382371221020413
O	1.209518443061224	-0.3059098859183671	-1.6629898041020414
O	-0.2274146469387761	-0.6821145359183671	2.992182776897959
O	1.1792316430612237	-1.670924335918367	-1.8341867321020413
O	-3.644241736938776	0.21500121408163286	1.6100258668979588
O	-4.307047896938776	-0.5170900059183672	0.7154994168979587
O	-3.724547626938776	-0.1597662259183672	2.9119616268979582
O	0.8342435830612238	2.0563515690816327	0.34061577689795874
O	1.6048244930612239	1.9498867680816327	-2.5477820531020416
O	-0.9276712449387762	1.7414606340816328	1.3560766168979586
O	0.7399932430612239	0.6400702660816329	-3.898302353102041
O	-2.225789403938776	-1.341849985918367	-0.3766056231020414
O	-0.8665077249387761	-1.574442775918367	-0.6571362011020414
O	-1.935639883938776	-0.05678294591836708	0.2046991768979587
O	-1.163321165938776	0.3955390810816328	-0.7227712661020413
O	-1.2097067049387762	-0.6846155359183672	-1.8119872271020414
O	0.21778608306122393	1.1732926983816327	1.0283641668979586
O	1.719217943061224	0.7395415510816329	-2.989292003102041
O	-1.6053683570387762	-0.8576874959183673	1.3822910268979587
O	-5.2518214069387765	-1.3909874559183673	1.0951822568979586
O	-4.902055356938776	-0.7463739359183672	3.291038596897958
O	-5.111479966938776	-1.8252836559183672	2.4276220768979586
O	-0.1822755869387762	0.4129083430816328	-1.3637353361020415
O	-0.7212848419387762	1.3958633590816327	-2.329152723102041
O	-2.132288885938776	1.3721508290816329	-2.5732824831020413
O	-3.1168227869387763	1.5690259540816327	-1.6674428681020412
O	-4.329907516938776	1.0025415050816329	-1.9010120471020413
O	-4.352181226938776	-0.17218122591836726	-2.6463560831020416
O	-2.5285410169387763	0.8467997240816328	-3.7387157431020412
O	-3.6805943869387763	0.11419659408163274	-3.816622753102041
O	2.373142533061224	-0.2627477359183672	-0.8184588561020414
O	0.888656453061224	-1.5001264259183673	1.2075749568979586
O	5.020178873061224	2.261103044081633	11.83075430689796
O	4.511331193061223	-0.5435024359183671	9.31554850689796
O	7.350608853061223	-2.1236043159183673	7.308692316897958
O	5.892929243061223	-2.1875658459183676	3.8909867068979587
O	7.726850723061224	-3.699987185918367	0.9146573568979586
O	5.407626553061224	1.005958412081633	-0.4550875101020413
O	7.478239183061223	5.742755924081632	-0.22655656010204128
O	7.606880283061223	6.408396354081632	3.431195076897959
O	4.472971263061224	8.283372724081634	4.546602286897959
O	1.0594637530612239	10.689520004081633	-4.624310563102041
O	-3.8055934669387765	6.443666964081633	-4.392147973102041
O	-7.050690956938777	4.579193314081633	-4.823314933102042
O	-9.195654736938776	6.238873604081633	-7.272096103102042
O	-3.6265047569387763	12.660637504081633	-3.0435970131020413
O	-3.488167826938776	11.344300404081633	4.840534096897959
O	-2.231358497938776	7.881832294081633	5.184272556897959
O	-4.188861146938776	5.211846174081633	6.855349946897959
O	-1.0774549579387762	4.283177734081633	8.91034524689796
O	2.4991970330612236	5.241741134081633	9.31659660689796
O	4.497354953061223	3.334003854081633	6.759773706897959
O	8.119720883061223	2.728934954081633	6.102582636897958
O	8.538105863061224	2.164197600081633	2.410787686897959
O	11.355631463061224	0.9821598000816328	0.19888379689795865
O	14.127549763061223	3.7816170440816332	3.7008072468979583
O	13.880083463061224	-0.038104465918367136	3.891602076897958
O	2.9156684430612234	-9.922458595918366	-8.87297965310204
O	4.312677893061224	-7.698890675918368	-6.068627463102041
O	5.3972428930612235	-9.290145995918367	-2.778435753102041
O	3.8290570630612235	-6.848785035918367	-0.3231274911020413
O	4.416754043061224	-7.088154445918367	3.4548693468979588
O	-0.5316270499387761	-5.753956305918368	1.9940775568979585
O	-4.637709436938776	-9.587363195918366	1.8013978768979586
O	-3.8629751169387765	-10.682882395918366	-1.7427463341020415
O	-5.534214876938776	-8.758141995918367	-4.542557953102041
O	-11.187376036938776	-2.6648732559183674	0.21486401689795875
O	-6.338601816938777	3.1500983540816327	1.4945418168979587
O	-4.779590846938776	6.443943114081633	0.6809065368979588
O	-7.302685706938776	7.873924564081633	-1.6936186801020412
O	-10.183017496938776	5.690446384081633	-0.8104713991020414
O	-11.792404636938777	2.3042849640816327	-1.5446735351020413
O	-12.500537436938776	-0.10016410591836711	-4.3857192531020415
O	-14.999228436938777	-2.9022666759183675	-4.8288381431020415
O	-6.366566626938776	-3.2058572459183674	-9.42660642310204
O	-3.4304605269387762	-2.057305055918367	-11.52621779310204
O	-1.058956391938776	-4.568999045918368	-9.90450460310204
O	-1.2458336169387763	-8.175893065918366	-8.737242283102042
O	-0.46651342693877607	-7.9995968859183675	-4.962908553102041
O	0.6786876330612237	-10.840066895918367	-2.8236204931020414
O	-0.21222547693877614	-9.991421095918367	0.7593771468979587
