117

O	-1.9016169926379307	-2.971657160913794	0.9596416129827586
O	-1.430975598637931	-1.7646270009137939	1.2924699529827586
O	-2.9776948966379306	1.693972459086206	1.7305919529827585
O	-0.3296259266379308	3.300131439086206	0.17340281598275875
O	0.1983706633620692	1.2536365890862058	-0.7213881466242413
O	1.259889023362069	-1.5692755109137941	-1.8105997170172414
O	-2.074159716637931	-2.343234630913794	-2.150766347017241
O	0.32899384336206916	-0.6823260709137942	-4.368759097017241
O	-2.2717703866379306	-0.695839290913794	1.0335995329827585
O	-3.2155730866379306	-1.0224408109137941	0.42042635298275866
O	-0.0968792976379308	-1.6644753709137938	1.0663525229827586
O	-2.7794912566379306	2.615452869086206	2.843508012982759
O	-0.6655755876379308	4.6951353890862055	-0.01839602201724133
O	-0.013951016637930858	2.178748759086206	-1.5932690070172413
O	2.278526303362069	-1.9162021209137938	-2.7194894370172413
O	-3.254162336637931	-1.627978800913794	-2.049502417017241
O	0.7775473233620691	0.628148955486206	-3.9663442270172413
O	0.47295808336206924	-2.817244310913794	0.4237538529827588
O	-3.8152975266379308	3.548520929086206	3.1463713729827587
O	-1.5501543196379308	3.355477079086206	3.002466842982759
O	-2.047857816637931	5.018945549086206	0.13488696498275876
O	-1.443667454637931	1.999008359086206	-1.7481468570172414
O	3.217229333362069	-0.7907662409137941	-2.9176574670172415
O	-0.21625154463793084	1.6120810140862059	-3.9921659470172415
O	-0.2424068256379308	-4.034499070913794	0.3091642029827587
O	-3.166423406637931	5.263769629086205	0.9636089029827587
O	-2.424243976637931	1.170289435086206	-1.4796459120172414
O	-2.5422107066379307	5.901380689086206	-0.9726365770172413
O	-1.8914381696379308	3.054928659086206	-2.2778526970172415
O	3.639400313362069	-1.129911580913794	-4.286916597017242
O	-1.4318917266379307	0.813620149386206	-4.300428747017241
O	-2.7747431266379308	0.770397939786206	-4.272526797017242
O	-3.7048043266379307	1.503268206086206	-1.2928765810172411
O	-3.183769456637931	3.250260209086206	-2.266215697017241
O	-0.8991100676379308	-4.911783020913795	-0.4724176470172413
O	3.856287413362069	-2.242282750913794	-4.760108017017242
O	3.776434413362069	0.0399282590862059	-4.948008267017242
O	-1.7255034936379308	-5.394730660913794	-1.2581395550172414
O	-3.8407895166379307	2.830644419086206	-1.1604394670172413
O	-1.3421343026379309	-6.020456500913793	-2.454993857017241
O	-3.0957998766379307	-5.274627480913795	-1.0493542930172413
O	-1.6968849236379309	1.720891226086206	1.1864537329827587
O	-2.8102833666379308	0.43583938008620593	1.5478469229827585
O	-1.1393254986379309	0.784147093086206	1.7241652929827587
O	0.7465782533620693	2.6370661190862057	0.6490370829827586
O	-1.3524938996379308	2.8746438990862058	0.9136634029827587
O	-1.1817563176379309	0.060128967086205964	-1.2555529790172413
O	-0.1225703336379308	0.0219569070862059	-1.0647927460172413
O	0.4437352733620692	1.284927189086206	0.5758830129827587
O	0.4372793933620691	-3.397003270913794	-2.588647347017241
O	0.16396680336206915	-2.198260490913794	-2.2584119470172412
O	0.9572732733620692	-0.3227984009137941	-1.4760743120172413
O	-1.0822570019379307	-2.809746650913794	-4.045121457017241
O	-1.4841505926379308	-1.8387360709137939	-3.4414623870172414
O	-0.9986175055379308	-2.011700460913794	-1.5605402370172414
O	1.143105163362069	-0.6110191109137941	-6.314514867017241
O	0.5141667733620692	-1.3964683109137939	-5.512933627017241
O	-0.7025484366379309	-0.8318145209137942	-3.626726357017241
O	0.9704626833620693	-2.710724390913794	-5.523640787017241
O	3.4570618333620695	-1.9044292509137941	12.15094058298276
O	3.7633341533620692	1.0448441590862059	9.82742658298276
O	6.904573603362069	1.954209279086206	7.887655522982759
O	5.533145593362069	2.443521239086206	4.440132142982758
O	7.8372389433620695	3.531047199086206	1.6146524929827586
O	4.339242783362069	-0.16428646091379406	0.22484998398275868
O	5.724618583362069	-5.625712070913794	0.16657197098275867
O	5.369664383362069	-6.275984280913795	3.789105492982759
O	1.8820069833620692	-7.413658920913793	4.702170532982759
O	-0.4227698366379308	-15.037721430913793	-3.5985323870172414
O	-2.5635599266379305	-12.359303130913794	-5.1913048970172415
O	-1.536936457637931	-8.711510840913794	-4.458069847017241
O	-5.401930336637931	-3.497265240913794	-4.154353827017241
O	-7.898850486637931	-0.9778977709137942	-4.7622218370172416
O	-10.421818146637932	-2.087642510913794	-7.349937807017241
O	-8.715746606637932	-5.3945090309137935	-7.810787677017242
O	-6.45781249663793	-8.085323150913794	-6.513753117017242
O	-6.570304456637931	-9.616742630913794	-3.0646578870172414
O	-5.582799666637931	-13.129229330913793	-1.8333920070172414
O	-2.8857719966379305	-13.331888930913793	0.7762826629827587
O	-3.9265145166379307	-11.116284430913794	4.705281972982759
O	-6.710181986637931	-8.517400850913793	4.884477992982759
O	-4.6877963366379305	-5.444514390913794	5.2517404929827585
O	-6.067958726637931	-2.301536790913794	6.879267852982759
O	-2.897670076637931	-2.221907500913794	9.12501049298276
O	0.4078356433620691	-4.039593860913794	9.406215782982759
O	2.776866043362069	-2.534302150913794	6.844466952982758
O	6.503746583362069	-2.862985100913794	6.533045962982759
O	7.173782723362069	-2.309352590913794	2.8835424129827585
O	10.312005873362068	-1.787771010913794	0.8971288629827586
O	11.398583373362069	-5.404716190913794	0.8269825429827588
O	12.32006877336207	-5.223111830913794	4.511510742982758
O	12.88580987336207	-1.465532670913794	4.718738722982758
O	9.540134373362068	2.667872519086206	-5.684928167017241
O	10.634806973362068	6.132203199086206	-4.494463677017241
O	9.501954973362068	7.997095849086206	-7.585258777017241
O	10.580149873362068	11.635143469086206	-8.05224214701724
O	5.766373013362069	8.380026929086206	-5.174635907017241
O	7.064437863362069	9.624149919086207	-1.8322810870172415
O	4.849971863362069	7.554876809086206	0.42729808298275873
O	5.392290853362069	7.536038539086206	4.1932711129827585
O	0.22166064336206914	7.789416599086206	2.9944704329827587
O	-2.869359196637931	12.273431469086207	2.3960209229827587
O	-1.5743133106379308	13.311946769086207	-1.1028344920172413
O	-13.84734092663793	8.157440119086205	-0.13272512501724132
O	-10.395482716637932	6.783160299086205	0.4547718729827587
O	-6.943446556637931	0.26675701208620595	1.1919156229827585
O	-6.424761896637931	-3.3951813809137943	0.5828902629827587
O	-9.154416316637931	-4.134186590913794	-1.7200538730172412
O	-11.50235882663793	-1.3895033009137943	-0.9041158970172413
O	-12.22288052663793	2.255798899086206	-1.6067955400172411
O	-12.33340842663793	4.785645309086206	-4.375003917017241
O	-5.371931946637931	6.337485419086207	-8.93715439701724
O	-2.696599916637931	4.721444269086206	-10.995358517017241
O	0.03948081336206921	6.681269829086206	-9.19736512701724
O	1.252751773362069	9.796562589086207	-4.264337027017241
O	2.9366432433620693	12.364372969086206	-2.027441207017241
O	1.7144806133620691	11.735224969086206	1.5361691029827584
