102

O	-3.2482956164117645	3.214751409960785	-0.9922980222098021
O	-3.6995342164117644	1.9791743399607848	-1.5498718032098022
O	0.16795198858823546	3.4822212999607847	0.4414262807901981
O	4.808400283588235	-1.7087278900392153	-0.607248119209802
O	-5.431000806411764	1.9249908999607848	-0.10642132920980218
O	-0.6011752914117646	-3.246707640039215	-1.9955555072098021
O	1.2728752735882356	-4.0183589300392155	-2.9030093692098022
O	-0.3324779204117646	-3.110592860039215	-4.3226427792098026
O	-1.8806253364117644	-0.5837273400392151	-5.589461969209802
O	5.4652386235882355	-1.8728120900392153	-5.460491029209802
O	-0.6865355273117646	-0.04836241503921512	-5.214665759209803
O	-2.8711674564117646	-0.9885737900392151	-4.703743739209802
O	4.439878963588235	-1.2570461500392152	-6.169105099209802
O	6.300561143588236	-0.954889900039215	-4.822331409209802
O	-0.6768455324117646	0.11491732796078491	-3.894925669209802
O	-2.5382045564117646	-1.035884370039215	-3.4109883092098023
O	3.9627689335882357	-0.05817752703921519	-5.6473039292098015
O	1.5394084935882355	1.6719409789607849	-2.784638694209802
O	3.1291071135882356	1.1484950279607848	-1.256894817209802
O	2.2783609735882355	0.9441232489607849	-3.652798579209802
O	4.0542119535882355	1.123646523960785	-2.195934257209802
O	-2.4475206564117644	1.387901374960785	-2.053299682209802
O	-1.7150357994117646	2.297209649960785	-2.652903643209802
O	-2.5581232264117646	2.6388247599607846	0.7884072507901978
O	3.8421922535882356	-3.4594270100392155	-2.5521612422098023
O	1.8626099535882354	-2.6667563600392152	-1.224618361209802
O	-0.3429805454117646	0.7920746809607848	1.0315381807901978
O	-4.462995556411765	1.0303113309607848	-0.7891926992098022
O	-1.3701866314117646	-0.8078237500392151	-1.588462087209802
O	1.2232907335882355	1.041553818960785	-0.34167722920980204
O	0.24971789558823543	-1.156987040039215	0.17984129079019784
O	-2.002598516411765	3.047648879960785	-0.22390868920980211
O	3.591731673588235	-2.169017010039215	-2.451841056209802
O	1.2844533235882354	-1.7746941100392153	-1.8633951571098022
O	-1.5064777704117644	-0.3294058500392152	-2.973380579209802
O	1.8969366635882356	1.6205637339607848	-1.5201173872098022
O	3.624662213588236	0.9737498079607849	-3.4575001392098024
O	4.439026263588236	0.32082488596078484	-4.431540949209802
O	-0.5400486654117646	0.026803695960784912	0.02973475079019794
O	-0.4539189154117646	0.3333611139607849	-1.343350551209802
O	1.3563303135882356	-1.9710594900392153	-3.311241659209802
O	0.28020775358823535	-2.9212469600392152	-3.0778167092098023
O	5.671105303588235	-0.01476938003921513	-4.124495339209802
O	2.7261936435882355	-2.136477920039215	-3.562962449209802
O	-1.4313753914117646	1.2595105209607849	-1.107535571209802
O	1.8810592535882353	-0.6541386300392151	-1.3717511482098022
O	1.4567999735882355	-0.3565354100392151	-0.09350431920980218
O	-0.7797182436117646	3.563043189960785	-0.5070859792098021
O	4.8812141435882355	-1.8218840400392153	-2.003914687209802
O	-4.903354606411765	0.10182696296078486	-1.842792382309802
O	-3.6805206664117645	0.29941382296078484	0.15946388079019802
O	0.6646745335882355	6.742756409960785	11.066719610790198
O	-1.0373076364117646	3.652342029960785	9.643133110790197
O	-0.011404477411764535	0.09757483396078481	10.391019310790197
O	0.10149272958823541	-1.4751048200392152	7.065517250790197
O	0.9350124835882355	-5.170389540039215	6.625035530790198
O	3.5800172435882356	-2.233816050039215	3.1716629307901982
O	8.463903423588235	-0.08977461203921511	3.5492886607901983
O	7.823998793588236	2.651384319960785	5.9490304807901975
O	7.085165063588236	5.951199659960785	4.175962770790198
O	10.102165073588235	3.020660729960785	-5.069143559209802
O	3.7039942735882354	2.686857599960785	-7.333868709209802
O	0.4786014235882353	2.6424861199607848	-9.255152349209801
O	1.2546987135882355	3.018900179960785	-12.832241289209803
O	8.139316213588234	7.307709499960785	-7.641088969209802
O	11.106620473588235	9.225458249960784	-6.162111399209802
O	4.607866483588236	11.656792949960785	-1.770517495809802
O	2.7179659735882353	9.122620769960786	0.13652491079019802
O	-0.9626865974117647	9.611353709960785	0.584608430790198
O	-0.4315562284117646	9.102399259960784	4.463059500790198
O	2.2193693235882357	8.082057349960785	6.884434110790197
O	2.6169882935882356	4.340376469960785	6.817846260790198
O	4.466736823588236	1.915318089960785	8.968665510790197
O	5.341727083588236	-0.9984218200392152	6.750163460790198
O	6.7511852235882355	-4.457308930039215	7.4790838607901975
O	10.326324673588235	-3.369091880039215	7.888317450790199
O	9.392566973588234	-1.7716260000392152	11.180997810790197
O	6.301782113588236	-3.8525263900392153	11.974249910790197
O	-3.8901450364117647	-13.406248150039215	-1.613179056209802
O	-2.1106222464117645	-10.860029850039215	0.704984620790198
O	-3.5665407664117645	-9.957517450039216	4.038779210790198
O	-3.2931540564117645	-6.168981890039215	3.920053760790198
O	-4.240678586411764	-4.119060130039215	7.026441060790198
O	-5.894325156411765	-2.1895281000392153	2.583731060790198
O	-10.948060826411766	-2.6695006900392153	0.33891760079019795
O	-10.327545506411765	-6.045692380039215	-1.2540766682098021
O	-8.950901556411765	-5.966543990039215	-4.797911889209802
O	-8.915020386411765	3.504561669960785	-6.792836959209802
O	-1.8874402164117647	5.171509349960785	-4.194892089209802
O	1.6108663535882357	6.264917159960785	-4.284107239209803
O	1.8778865035882357	6.797699479960785	-7.9878047192098025
O	-1.6773761734117647	7.3217005199607845	-8.859001009209802
O	-4.957676486411764	5.532050289960785	-9.704747169209803
O	-6.387817026411764	2.632635209960785	-11.683345439209802
O	-9.845048366411765	1.7755990699607849	-12.937312589209801
O	-3.7290569764117643	-5.389478040039215	-10.085109089209801
O	-0.6284385944117645	-7.506613570039215	-9.897818469209803
O	-1.7501635064117647	-9.167327620039217	-6.569586009209802
O	-4.884765166411764	-10.341765250039217	-4.860838549209802
O	-5.379676926411764	-8.083459040039216	-1.7852571469098022
O	-7.5007346664117645	-8.874402060039216	1.160374010790198
O	-8.462783096411766	-5.6647127300392155	2.833345660790198
