89

O	5.583548156972601	-0.338086407424	-0.24949092302000037
O	4.033481056972601	-0.8637271074239998	1.4159375479799996
O	5.6970259269726	1.097132786576	-0.5012711382200004
O	2.5023551669726003	2.495716082576	-1.1795945830200005
O	-3.5793191430273996	3.142708372576	0.7860726579799997
O	5.1990110469726005	1.8722617105760002	0.6847965479799996
O	0.9450315669726002	-0.45018865742399994	-0.5564206709200004
O	3.8350570969726	-1.6795317074239997	0.2881308569799996
O	3.5252294469726	1.496264648576	-1.4040519810200003
O	3.6871304769726003	0.5568745965760001	-0.34561831402000043
O	4.1100121169726	-0.7010635474239999	-0.6999725910200004
O	3.0655142869726	1.004052963576	-2.4120674420200006
O	1.4458151469726002	2.395841112576	-0.3500575100200004
O	-0.6916498810273998	2.683603272576	-0.5651290433200004
O	0.13070640097260022	1.7412883995760002	-0.3903423130200004
O	-0.6651196980273998	-2.447330847424	0.1515431549799996
O	1.9278726069726004	1.1385719265760001	0.4231467379799996
O	-0.6925690500273998	-1.4433386874239997	-1.9701160620200004
O	1.4611091569726002	1.6632582485760001	1.6298855279799997
O	5.1082524269726	0.9318907715760001	1.6338949179799995
O	2.3792000669726003	1.5559276555760002	2.5393580279799997
O	0.30588120297260024	2.263249102576	1.8819824279799995
O	1.9302527869726003	1.492824988576	3.8011875379799998
O	-0.11405471702739978	2.435342632576	3.1555960879799994
O	0.7325872569726002	2.040858224576	4.1175314179799996
O	0.6312723669726001	0.7078526885760001	-1.2885434800200004
O	0.9658240969726002	-0.826288447424	0.6885842279799996
O	0.29396335197260026	-1.320234687424	1.7494117179799995
O	-1.5190115330273999	0.09076551257600007	-0.2170009230200004
O	-2.5542564430273997	0.36681282457600006	-1.0120312050200004
O	-3.4471174730274	1.2718981052760001	-0.6181830797200004
O	-3.3351028030273997	1.813313229576	0.6288050079799996
O	-2.5547865730273998	1.1203682065760001	1.4565997079799995
O	-1.8410066130273999	0.10529118257600012	1.0392445479799997
O	-0.3262877780273998	-0.720391897424	2.90971896798
O	1.5898414969726002	-1.5860720874239997	2.4348779579799995
O	-4.9073439030273995	3.3659562525760003	0.3094360909799996
O	5.2030644369726	-0.3513008674239999	1.1781152579799996
O	-0.5429674631273997	-1.250227047424	-0.6060194159200004
O	-6.2988923530274	-0.9648810174240001	-11.83750060202
O	-6.0507303230274	-2.7676644174239997	-8.505023002020001
O	-4.210781943027399	-6.061900467424	-7.95616521202
O	-2.1802402130273997	-5.473204677424	-4.98852615202
O	0.05121805897260023	-8.129529027423999	-3.3562800920200004
O	2.4927562869726003	-3.2997559374239995	-3.4713693020200003
O	5.6641923669726	-1.7036898274239998	-7.45205760202
O	3.2754507369726	-0.9517112174240001	-10.21604715202
O	2.2042096369726	2.702115172576	-10.13476066202
O	9.349759936972601	6.028566992576	-4.01000227202
O	5.396573636972601	6.599841952576	1.1622142879799997
O	3.5327688469726	7.599057322576	4.30291095798
O	5.4956751969726	10.050145842576	6.20566801798
O	7.529380466972601	10.929858612576	-3.17005099202
O	0.5584928769726003	10.679115942576	-7.4316929620200005
O	-0.8976345650273998	7.366995452576001	-6.45130909202
O	-4.2745661730274	7.303194872576	-4.98853763202
O	-5.3325790030274	4.615114902576	-7.58384890202
O	-3.7742693430273997	2.621662562576	-10.32940996202
O	-2.0428058030273997	-0.35697256742399985	-8.79528606202
O	-0.4936618946573998	-3.4804582574239995	-10.16207831202
O	2.2321646169726	-4.556998307423999	-7.77947158202
O	4.3384632669725995	-7.653800657424	-7.41212287202
O	6.7738164969726	-6.732256487423999	-10.11163099202
O	1.9396115269726004	-9.803956977423999	-10.64781520202
O	2.5721861069726004	-9.964419577424	8.873588527979999
O	2.0696334769726	-9.292515377424	5.11976410798
O	-0.9148332050273997	-10.692323277424	3.23710359798
O	-2.0187762530274	-7.573115957423999	1.3324507779799997
O	-4.8865452930274	-7.748986697424	-1.2477526350200003
O	-4.7545945930274005	-3.323988787424	1.8582668779799996
O	-8.1190947430274	-2.846300147424	6.31351190798
O	-5.673134833027399	-4.542610717423999	8.627674687979999
O	-3.0808430330273997	-2.338685367424	10.250596697979999
O	-5.6447404030274	6.231735892575999	7.20326381798
O	-1.6148809330273999	6.723220492576001	0.7497113579799997
O	1.0267480369726003	7.804490422576	-1.4989149280200005
O	2.6822792169726	10.357859892576	0.7201761479799995
O	-0.1774125820273998	10.986475352576	2.9965554879799994
O	-1.9320889230273999	9.810146622576001	6.15388679798
O	-1.2597186120273998	8.494203572576	9.622416897979999
O	-3.3398945230273998	8.409272622576	12.76588969798
O	2.9789428469726	3.652133772576	13.58978669798
O	3.3323147469726004	1.333505933776	10.804036997979999
O	6.597729406972601	-0.306366337424	9.81569119798
O	4.8570821369726005	-3.5605105474239997	8.85677975798
O	1.9833640069726002	-5.638797327423999	10.138296197979999
O	-0.6208317000273997	-5.763296697424	7.33573278798
O	-3.3891603830274	-8.239793537424	6.85490165798
O	-5.9521023130274	-6.530224007424	4.64677822798
