121

O	-2.3990257091454543	-0.1644087172872728	-2.005668747945455
O	-1.3443911821454544	-1.6533745572872727	2.555426168054545
O	-3.4691953291454545	0.4688912937127271	-1.493786549945455
O	0.6545534608545456	-3.4691473972872733	-2.916949021945455
O	-1.4799246881454544	-3.631575937287273	-3.0727928519454553
O	1.9227411008545459	4.944500752712727	-2.336249051945455
O	0.2027435408545457	5.4907012827127275	-3.294446341945455
O	0.7141725108545456	-0.6774694072872729	-0.6913557469454551
O	0.9575251708545456	-1.8609725972872728	-0.04792948194545521
O	2.2220320408545455	-0.10069320728727282	-2.065173239945455
O	0.8739387908545457	0.056933588712727135	-1.843954484945455
O	-1.8285324481454543	-3.0982355472872727	-0.6929857599454551
O	-0.32144687114545434	-2.8564161072872727	0.7838735080545449
O	1.3250087908545458	-1.5765989672872727	-1.6497659459454552
O	0.24763811085454557	-1.0834498372872727	-2.5059262319454554
O	-3.489545909145454	-2.071764747287273	0.46421321805454485
O	-2.1039265791454542	-4.145270067287273	1.5573438880545447
O	0.5448087608545458	-0.723597717287273	-3.7068602319454556
O	-0.2117024811454543	-0.18913089728727295	-4.622257541945455
O	-1.5095431321454544	-0.053496867287272876	-4.590154691945455
O	-1.8783621831454544	-0.9003836472872728	-3.688547191945455
O	-3.368755989145454	-2.371145087287273	-1.531699841945455
O	-0.9571226001454544	-0.7787116772872729	-2.7006684919454553
O	-2.2026180991454543	-0.619640377287273	-0.8788810479454552
O	-0.6190608141454543	-3.2875331272872725	-0.9450827529454551
O	-0.30672629514545435	-2.149651537287273	-0.3366594989454551
O	-0.4489581651454543	-3.5404192872872726	-2.150501627945455
O	-3.665562149145454	1.694263121712727	-1.578564021945455
O	-4.345475379145454	2.397919722712727	-0.6707774419454551
O	-4.779022269145454	1.6901576157127272	0.38842684805454497
O	-5.130190459145455	0.45131061471272715	0.09825409805454499
O	-4.347488349145454	-0.17574204728727283	-0.7369529579454551
O	-3.2588708291454545	-3.337637257287273	0.8529588880545449
O	-2.1182096361454543	-3.8204184672872725	0.43784688805454497
O	-4.087053809145454	-3.870492757287273	-0.19881841194545502
O	-2.7853733491454546	-1.711445007287273	-0.6678823899454551
O	-2.4740461791454544	-0.7533119272872728	2.5462134480545453
O	1.5986375008545455	1.4195900827127272	-0.5267277239454551
O	0.7794067308545456	2.293914272712727	-0.19783065194545513
O	1.6834940908545457	0.03749076071272717	0.15660340805454487
O	0.5827046408545458	0.40493042271272717	-0.6737124679454551
O	-1.4002237331454543	3.649154482712727	-0.9330717219454552
O	-0.9036883781454543	1.781609642712727	-1.2318598420454552
O	1.9556268908545458	1.9175978427127272	-1.775814367945455
O	0.7832226708545458	1.9808641237127271	-2.563179051945455
O	-2.1136075971454544	0.9262558737127271	0.9626005280545449
O	-2.3272753791454543	3.505461482712727	0.757651618054545
O	-0.5550636951454543	1.8967485637127273	-2.6451254619454554
O	-1.6044062331454543	2.3124027427127274	-3.485238001945455
O	-1.2337391874454544	3.180373892712727	-4.250312351945455
O	-0.007994839145454291	2.796503022712727	-4.509435071945455
O	-0.3157262611454543	0.37404628071272716	2.183232308054545
O	0.9281393208545459	2.236094262712727	-3.7241335919454555
O	-1.2325656820454542	-1.141233617287273	1.327217008054545
O	-0.33429114114545433	4.160197162712727	-1.342638674945455
O	-0.12868713914545427	2.726389452712727	-1.119188081245455
O	0.5703837108545458	4.785877822712727	-2.0948905329454552
O	-2.802454309145454	0.5070094207127271	2.3788138780545447
O	-3.5440102991454543	1.2260613137127272	3.130383088054545
O	-4.528794189145454	0.3298863907127271	3.2270600180545452
O	-4.748579119145454	-0.8091473972872729	2.5479947480545446
O	-3.5794566791454545	-1.327898617287273	2.219484578054545
O	-1.2741061765454544	1.7423546907127272	0.592934028054545
O	-1.6889325321454542	2.798914462712727	0.10991244805454481
O	-0.6705060921454543	2.3240599727127274	1.891894238054545
O	-1.0858066186454542	0.0915282067127271	1.300923218054545
O	5.205994510854546	8.708275512712728	8.010630198054544
O	6.338870720854546	6.813467792712727	4.921473968054545
O	8.516326510854547	3.731853742712727	4.904904998054545
O	6.662556480854546	1.3875514027127271	2.710969308054545
O	8.044863910854545	-1.9467743372872728	1.887478378054545
O	3.017872040854546	-1.9492385972872728	3.0118157880545455
O	0.6963894508545456	-3.005972927287273	7.6503153180545445
O	1.2318492808545458	0.16552339371272717	9.372254538054545
O	-1.6812554751454543	2.567859242712727	9.043629538054544
O	-11.256427919145455	-4.324057617287274	7.765080338054545
O	-8.176432339145453	-3.6706548772872725	5.539456808054545
O	-7.870533019145454	-1.2012704772872729	-0.5265343949454551
O	-8.312613509145454	-0.5339359672872728	-3.9377487419454553
O	-11.854216819145453	-1.6864703972872728	-5.120963751945455
O	-12.709599619145454	-3.0851822072872728	-1.8015559999454551
O	-12.227146819145453	-3.232227087287273	1.935385128054545
O	-12.045023419145455	-0.322260447287273	4.278030808054545
O	-12.868063819145455	-0.07671408728727291	8.063094208054544
O	-8.685385929145454	6.685682112712728	5.928117008054545
O	-5.307809439145454	6.195642262712727	4.724009068054545
O	-4.048253449145454	8.371235022712726	2.045967558054545
O	-0.9202192501454542	8.894942882712726	4.3664439380545454
O	0.7433422508545457	7.482043612712728	7.388581148054546
O	2.558755600854546	4.341274752712727	6.296338088054545
O	5.017648840854545	2.297625112712727	8.141658898054544
O	4.649283540854546	-1.106410637287273	6.748826358054545
O	6.607196600854546	-4.233735497287272	7.143315538054545
O	5.295953340854545	-5.1989046072872735	10.573729338054545
O	7.318496090854546	-2.424458987287273	12.136912238054544
O	9.998743380854545	-2.133456047287273	9.448687238054545
O	6.689426700854546	-9.038475177287273	0.934306248054545
O	9.893932380854547	-8.219101527287272	-1.0110336459454552
O	9.008185680854545	-10.241735477287273	-4.110037041945455
O	7.1145066908545465	-8.295152057287272	-8.749820031945456
O	7.220432890854545	-6.400289387287273	-5.4191060219454545
O	9.926958580854546	-3.9058687272872725	-4.628626921945455
O	7.721092500854545	-1.226659117287273	-3.150515781945455
O	9.346016880854545	1.841481646712727	-1.6083496109454551
O	4.913037180854546	2.8853512127127274	-4.617683251945455
O	4.805304350854546	4.372132512712727	-9.813495841945455
O	5.487666960854546	0.9950698785127271	-11.357413561945457
O	-6.320042489145455	6.785049072712727	-12.610730761945456
O	-4.307000989145454	5.399585002712728	-9.635653651945455
O	-5.068420809145454	3.895827942712727	-2.765597591945455
O	-6.803443469145455	3.1072254027127273	0.4699582080545448
O	-10.298629089145454	2.4907515727127274	-0.9732203809454552
O	-10.122100239145453	4.508199492712727	-4.0360355719454555
O	-8.783168099145454	4.299358572712727	-7.482795571945455
O	-8.450616439145454	2.1140722727127272	-10.443121531945456
O	-3.8179408191454542	-4.443051967287273	-10.198633081945456
O	-3.4329509891454544	-7.632879627287272	-8.381756121945456
O	0.3774907008545456	-7.179859777287273	-8.167931051945455
O	4.749477200854546	-3.365924727287273	-8.363941221945455
O	8.197967110854545	-1.928299727287273	-8.859713281945455
O	8.011655890854545	1.671940672712727	-7.669355771945455
