38

O	21.956165692612636	-8.348826324054329	15.425282325265899
O	21.719329046114012	-7.0529457784055	14.937739445948639
O	20.549367459218526	-6.269192784225024	14.86092174108671
O	20.65307352361089	-4.978154418661215	14.23853793735314
O	21.773975704615108	-4.440272416947797	13.787336632033737
O	22.434922466609063	-5.45705082260112	13.208013287389585
O	22.26462244043673	-6.803786184303555	13.653015613499809
O	22.46583550203131	-2.9553049592483664	13.542863489758126
O	23.977269637674603	-3.1469312854955245	13.432014438392226
O	22.16255079600448	-2.7675282837106883	12.193414785023315
O	22.499167791937722	-1.9631093486775115	14.816320972284583
O	21.901488554976762	-0.7920424937179562	14.709975221413178
O	20.478410154057958	-0.8346695258249104	14.59474582763153
O	19.474351564393867	-0.5434478134997973	15.57058562882316
O	20.21924067728613	-2.0465434476559814	13.847371446358919
O	23.323491258493107	-2.5698860458887807	15.738588206184538
O	22.967737410703908	-4.05960845762951	15.628650225571
O	23.622598559999062	-5.050908586437062	16.11671725299677
O	22.14089262477661	-4.095718170949536	16.742041953893807
O	22.753526735572233	-3.6886475327663906	17.919109825408626
O	23.434613348482205	-2.5124734346771858	18.075810316727456
O	24.589645157204167	-2.428771935397158	17.802795005504507
O	22.71653935245954	-1.3803829245458643	18.173594597653008
O	22.860643118927758	-0.09696683115584515	17.775110708612495
O	21.598983585144968	0.49275605651320675	17.437055270591824
O	20.80370979743111	-0.265213570695606	18.302703477653047
O	21.354169615408185	0.10084544355016756	19.382269413686075
O	21.37780294315048	-0.8667628764847406	20.318888884219422
O	22.5484799845653	-1.5172669059561235	20.377425046016825
O	23.61339719024308	-0.6751356090783596	19.754099216054154
O	22.79224270675852	0.4623037680999069	19.297812653502806
O	21.552907215233766	-2.7204374282664814	16.33086051810801
O	20.583397394510214	-3.2022968000947936	18.421243084499167
O	19.463464676438015	-2.960171400907631	19.14469965798566
O	18.382962769519967	-3.443917804887228	18.51672753047323
O	18.351094482674334	-3.6982241802611373	17.186783109361127
O	19.547997485340538	-3.695777551498255	16.601855675448927
O	20.509241633752044	-2.896778803974131	17.1144793372852
