49

O	21.95918709818586	-2.096629970873603	19.775225050018733
O	21.215432371325914	-2.4852389447337155	18.78436058679187
O	21.718732305666766	-1.3833163698537434	15.838211514396196
O	23.17794007120468	-2.5980388776863057	19.80050406962621
O	23.115278071517224	-3.6993076652755117	20.306338438330865
O	21.218208592449628	-3.66373418081658	18.339148463357382
O	20.592037678125777	-1.7046971899532983	15.04979721676444
O	22.10034016856532	-3.8100127827160306	17.28379317891564
O	19.573551128453715	-2.0468770714373554	16.049162200997742
O	19.41060716214783	-1.3895428227445024	20.917363219781592
O	18.695887515266296	-1.5838121395710525	16.872308120934296
O	19.444773020848583	-3.372200954159794	15.901950919407728
O	23.348380514833817	-3.3193565027447565	17.274759573594203
O	21.815142001365974	-4.19839238404635	16.175431434339142
O	18.04496504083975	-2.236959304129167	17.812726273350286
O	18.807828564519035	-4.149804183738171	16.794162895505355
O	18.241540732961226	-3.547105606456806	17.86072641573669
O	20.52817562173003	0.28302941460414155	16.2139105269271
O	22.07311289526388	-1.587014216399628	17.925565223745522
O	23.898256716718073	-1.7920996184321785	21.7228285134462
O	23.283973699040487	-1.522072047913193	17.970945905132336
O	24.13637713456221	-1.7455422076242495	20.45802433411115
O	21.218873305097215	-1.77455617136432	17.070857320691353
O	22.95705992342741	0.21406381598586888	16.660300946078415
O	24.47568203699186	-0.6239589780661737	19.900467003040486
O	21.925909798771936	1.3957784399582343	19.496574465401704
O	19.474072367625418	-0.9508189950689728	19.63101120600282
O	18.708133488265418	0.7051852101829802	19.096840297723286
O	24.456963534321666	0.5105837130915886	20.596721408798132
O	23.740004664808893	0.4518083152856961	21.73930504428543
O	23.37934934582412	1.472251466691477	22.494365822901344
O	22.54196520091677	1.3884674970602338	23.55688492843985
O	22.30173243722718	0.11466232296409762	23.962272349495592
O	20.725763967221734	1.93137077568074	18.773051010053575
O	23.382330882546764	-0.7175248867354197	23.6537406699958
O	23.772217667136932	-0.6903002564566031	22.396230003580598
O	21.81108395360932	-0.04216131286613001	16.344963665937048
O	20.685432659831772	-1.546844077881527	21.769113965839463
O	20.13148915420882	0.2745201185555065	17.37920460989028
O	20.894062790661863	0.374891947790002	18.362083710659547
O	19.176785080271884	-2.856393722938919	20.895494302965954
O	22.094233413617022	1.1237258648424389	18.316136070612167
O	18.895345897710616	-0.5666058948478369	22.050052445002237
O	21.553150119052162	0.7181494704506887	20.651770848980888
O	20.466861189814587	1.688434571684701	21.1385642531271
O	21.021892699964102	2.9232965658684393	20.856855338566877
O	20.704008373972307	3.105739588558144	19.365025063881212
O	20.061823736472068	1.758043232569272	17.51179104182717
O	19.831572136263446	0.2441477004106215	19.257128226502818
