59

O	17.133150544302442	-2.6739109128879663	19.243118498759404
O	18.22685334229472	-2.2026775157941754	19.950457621305258
O	19.61989336095387	0.12063485404443863	17.85728577288254
O	21.254732206725624	-1.5262180487074535	15.347478734640463
O	22.19894009328483	-1.8284797582902623	18.55836590276989
O	21.437717210879924	-4.507724517043589	16.40749109487299
O	17.95845860673704	-4.79310235412316	17.249997847705906
O	19.47330869587605	-7.193246055625166	14.994668234516675
O	18.6135697450656	-1.0530006526720157	19.268177401615002
O	18.360814722862617	-0.113916193076111	20.103507272754502
O	19.42955247507991	-2.8728134583659353	20.116307445426436
O	20.557970426404232	1.1289454405642205	17.737403481903947
O	21.86829915749462	-1.4624265369800558	14.03711470013758
O	22.672590095576012	-1.1925431190613844	19.628724804991062
O	20.855244491476462	-4.344923529601931	15.142661301837364
O	16.68159259620164	-4.473482804010374	17.04960120698592
O	20.383719652115524	-6.5379201481651235	13.929990044136376
O	19.074505680976984	-4.0713838263697495	19.814171272111658
O	20.490865920477066	2.233810585653809	18.57869976425381
O	20.58964296087041	1.1790471802854117	16.298832287613795
O	22.772455767527212	-2.627737734264732	14.105716368273248
O	21.68001807443815	-0.4080555872657994	20.30912662732659
O	19.798852668760375	-3.612605615985729	15.037198581075714
O	21.740482188571143	-6.788445616572534	14.365840663192056
O	17.760952300686128	-4.583957252612227	20.11426825499062
O	22.657992728681254	-3.861082119191723	13.328964478249258
O	21.682139942261195	0.8377512210789697	20.793000809185358
O	23.69311957934679	-2.630209911623326	15.229185633038067
O	21.18582875415711	-1.156631206678247	21.324723530340563
O	18.58259478103772	-3.423399708166855	14.587483293189226
O	21.83874498554651	-7.535530909067263	15.722273331820714
O	22.498884557903956	-8.841168586958135	15.866375392654266
O	20.706777219204138	1.3650268290786327	21.594487554833186
O	20.24250390565206	-0.7469339614291042	22.265768353465152
O	17.914860139248322	-5.8879061693483905	20.701870309550788
O	18.06964058357575	-4.450171057856127	14.13452545103845
O	17.726179091256096	-2.557713574765051	15.193761092600022
O	17.147713340716365	-6.889572703117302	20.515388603695385
O	20.20865029322795	0.5682384225837094	22.55391343756689
O	15.760185109007466	-6.661926965470576	20.40982178614039
O	17.779829966620987	-8.134740098800442	20.217806485799457
O	19.887519577676713	-1.0692313839806795	17.110676063574996
O	19.709415538860085	-0.4679084222775436	19.041801359187026
O	19.188820694971238	-1.9719119521951312	17.431662916744763
O	22.261020220683783	-1.727622802873356	16.33287820371346
O	20.19653736563007	-0.9206233680737048	15.823076859611588
O	22.076730779430438	-3.924787640483181	19.200965921964222
O	21.83915213593574	-3.1432481679959317	18.35693347669452
O	22.046295124551303	-1.0871115000891813	17.451750719973475
O	20.567193752701574	-5.63931033739269	17.996031467008553
O	20.279336047731015	-4.830017561480467	17.147846945992665
O	21.556806358308	-3.478627233598523	17.145604795429005
O	18.47850969715053	-6.576395348569356	17.588468543810148
O	18.322582583089357	-5.986298881367663	16.511936040230538
O	19.127048928844417	-4.098222794782909	17.167278311557506
O	19.919669882757166	-9.164475262028994	14.919389113144865
O	19.787383298557135	-8.306273390851079	15.859272695305302
O	19.479108565187857	-6.178254195196239	15.807735997369697
O	19.61864544022492	-8.772071671555334	17.136970851439926
