90

O	5.406244249653061	-0.45628263904081656	0.06790083606999997
O	5.348867669653061	-0.27780198804081657	1.38287593607
O	6.372834029653061	-1.1664501500408164	-0.5905362559299999
O	5.7451965996530605	-2.0512394800408167	-1.4619972669299999
O	4.718312439653061	-1.5270055700408167	-2.17975420393
O	4.045485699653061	-0.43639739404081657	-1.73688319093
O	4.645525379653061	0.3051142652591834	-0.76059184193
O	3.851708369653061	1.3792210599591832	-0.1894473699299999
O	2.7097049296530606	-0.22688603604081659	-2.21579401393
O	2.120123679653061	-1.1121927300408165	-2.81875933393
O	1.978993059653061	0.3214093473591834	-1.14543239093
O	0.7144444396530609	0.8478485789591834	-1.23220547193
O	0.5281599606530609	1.9723885199591833	-2.11734773393
O	1.476387369653061	1.5336573099591835	-3.24073999393
O	0.946061711653061	1.7055455699591833	-4.47302463393
O	1.4489550896530607	2.5966964699591837	-5.43614033393
O	2.792559379653061	2.7494080699591836	-5.42900593393
O	3.3426800096530607	2.5760890799591833	-4.1597188439299995
O	2.592963049653061	2.2705556499591832	-3.06934264393
O	0.28051705165306096	-0.2490833540408166	-2.13804415393
O	-0.701074942346939	0.3397954994591834	-2.7792960339299997
O	0.08116121585306094	-1.2141988900408167	-1.14898290193
O	-0.8830386403469391	-1.9028421200408165	-1.53887489293
O	-0.062168238346939075	-1.1193445600408167	0.2372382260700001
O	-0.03161452134693907	0.1881297609591834	0.6698777360700001
O	0.984173275653061	0.13512404895918342	2.02062720607
O	1.2468925296530609	-1.5990876400408167	2.0322970860700003
O	2.533701079653061	-1.1643784900408165	1.56789398607
O	1.3161157996530608	-2.3778750100408166	3.20100167607
O	0.408470403653061	-2.1867180400408164	1.00947409607
O	1.399524649653061	-2.8627099900408166	0.12423236606999999
O	0.9894985266530609	-3.2768339200408163	-0.97585951053
O	2.688033719653061	-2.5513803300408164	-0.04749442392999992
O	3.447746659653061	-3.784591640040816	-0.39036319392999996
O	3.968727209653061	-3.967800640040817	0.9607351560700002
O	3.350381529653061	-4.898060380040817	1.7341078160699999
O	3.758286679653061	-5.0632606300408165	3.02189194607
O	4.170911719653061	-3.863909330040816	3.5906024760700004
O	5.021130759653061	-3.1171746200408164	2.82252876607
O	5.065961599653061	-3.3913478800408163	1.50675985607
O	1.8874422096530608	-5.172218560040817	1.4740808160699999
O	-9.45742116034694	-2.1371480200408164	-8.40956931393
O	-8.34465963034694	-0.003119738040816611	-5.46909798393
O	-9.87048533034694	-0.18057659504081658	-2.02532659893
O	-6.824873320346939	-0.3095851090408166	0.11542916606999998
O	-7.104339600346939	-0.39934044504081656	3.89810282607
O	-3.830071210346939	-3.9950915600408163	2.49815005607
O	-4.614820180346939	-9.217335470040815	1.0630734260699999
O	-6.24541298034694	-8.799689970040816	-2.21490636393
O	-3.736686610346939	-8.894052140040817	-5.09625914393
O	4.530046229653061	-12.244521150040816	-0.5385989299299999
O	7.682444969653061	-6.112455400040817	-0.96886387133
O	9.914283759653062	-3.0299976800408164	-1.0314676192599999
O	3.272476499653061	-8.174514450040816	-10.03603617393
O	1.2281367196530608	-5.641484200040817	-8.23546179393
O	1.3296306896530607	-2.1647145300408166	-9.49676986393
O	-2.545859510346939	-2.1663153200408165	-9.59818407393
O	-5.3733066203469395	-4.328816880040817	-8.603795043929999
O	-6.044965970346939	-4.015214840040817	-4.93555637393
O	-8.783898270346938	-5.071715370040817	-2.6540940739299996
O	-7.244210220346939	-5.567132700040817	0.7438734660700002
O	-8.847624090346939	-6.129193610040817	4.19680166607
O	-12.24783933034694	-8.884664600040816	1.34688201607
O	-12.93743133034694	-5.321669760040817	2.57320736607
O	0.27338848165306096	4.893041439959183	12.425184436070001
O	-1.7694290803469392	2.9674042299591834	9.76435673607
O	-4.795583350346939	4.657053079959183	8.207038206070001
O	-4.206374640346939	3.7666018599591835	4.547167216069999
O	-6.742189770346939	4.528957019959183	1.81190778607
O	-1.8993677403469391	5.710191759959183	0.21547860607000002
O	0.7551462046530609	10.600186649959184	0.68577994607
O	1.793135229653061	10.115328349959183	4.25653100607
O	5.0830783796530605	8.355785279959184	4.91500452607
O	11.509410269653062	8.161149999959184	-4.5898771939300005
O	8.36665062965306	6.284620589959183	-3.70361600393
O	5.378703679653061	-0.5964498290408166	-5.26441757393
O	5.262613769653061	-4.298057950040817	-5.223992913929999
O	9.002597369653062	-4.8950196100408165	-5.174841703929999
O	10.30153056965306	-1.4991425400408165	-6.1599209539299995
O	11.08917636965306	1.8799298799591835	-4.5934997739300005
O	12.632556969653061	3.5687162699591837	-1.6166245199299998
O	14.26774636965306	6.928453599959183	-1.13793279163
O	9.58434254965306	2.5607079299591837	6.216005956070001
O	8.70211642965306	-0.007055522040816609	8.79342272607
O	5.291430059653061	1.5897276999591834	9.43084553607
O	3.9671633896530607	5.044827849959183	9.78821163607
O	1.3634694096530608	5.558362149959183	7.050422716070001
O	-1.3757140203469391	8.072159309959183	7.01328559607
O	-2.3717555603469394	8.582845249959185	3.38732016607
O	-5.366955470346939	10.258024789959183	1.8352278660699999
