40

O	19.62463054485073	0.28115576175380985	17.817963780213482
O	20.703290408624387	0.4435653670784627	18.684355683788098
O	20.334382194618613	1.3467810374846136	19.739106689687375
O	20.70038243582929	2.7082491156720288	19.45711557064722
O	20.500351108787214	2.741651751915076	18.046638696343216
O	19.850462068695332	1.716656903994629	17.202994883779567
O	20.783618138131565	-1.206232408101065	16.84898947684836
O	21.936376447730733	-0.5990169567222642	17.268674829080044
O	21.642162624312082	0.8275743848092323	17.509631717331846
O	19.58917073030627	-0.49576990497064344	16.58960904221867
O	22.625820621126753	-0.6374289496985102	18.4840795532448
O	22.326694275368553	-0.08589912276062317	19.768316952013866
O	22.7840866904391	0.40371819668790265	20.927812032330454
O	23.176904698382636	1.8359327263820617	21.3115164744424
O	21.99853304598951	0.4895130082614165	22.250273130280178
O	23.99903134190706	-0.3928073781740693	21.3391407856239
O	23.561925965184408	-1.3683927369769335	18.739983572557083
O	21.24533009877898	-1.1341900476411184	15.534548354189269
O	22.28470735961714	-2.0806386354396693	15.384497209900735
O	21.592076665192632	-3.2295042416315516	15.866425088707512
O	23.377654611033012	-1.8466909450597697	16.10421081727521
O	21.738300524574534	-3.2386498311939547	17.140604077996368
O	20.076860026704406	-2.9525053655152265	15.703703812300636
O	20.778185013458796	-3.7801367625885964	17.90855183279225
O	19.6193798193224	-3.9306100535610398	17.53126717290199
O	21.028455634891998	-3.2123099902515655	19.19447842001899
O	22.122783586252208	-3.634763062368454	19.8829566494531
O	22.37555617132984	-3.060972975813667	21.079687720615798
O	21.238759466854106	-2.6715397976891193	21.786024530760994
O	20.38995110005082	-1.9936395351929104	20.905337447621115
O	20.060002873521174	-2.4477229573536317	19.68184140423769
O	19.635293264196083	-1.003588282226457	21.377566776872378
O	18.722736766460297	-2.5022387735752094	19.099629008477606
O	20.674814381072416	-3.548040147876536	14.139218128523304
O	20.936408132927312	-5.229211552410838	14.579174226562596
O	19.819677284925298	-5.6824375307780866	15.210270375047378
O	19.888472700222874	-6.758965274888469	16.014090129252068
O	21.00410065064387	-7.508417430981286	15.744158051906439
O	22.12986868178803	-6.684836321393332	15.803504150337364
O	22.028240492174387	-5.394002215795824	15.394962357983736
