37

O	20.556092520959496	-6.543720594730715	14.784088276258386
O	20.220661923270942	-5.6665544776454	15.863832230081679
O	20.799375944155425	-4.4731529849640905	15.606458745726215
O	22.10250868443487	-4.1289364349993	15.685799655836204
O	22.420573171117237	-2.821485985821446	15.521569239584045
O	21.44128269415601	-1.9627796239181954	15.258624147257422
O	20.41241051511924	-2.4810759123645774	14.581777143299382
O	20.398973768869773	-3.8311304529392913	14.431013576724196
O	21.23071143816304	-0.33085658483513525	15.765797819641252
O	20.730364466726474	0.6502100225269198	14.885769979746456
O	22.527561323309868	-0.10026050376428786	16.342843275123336
O	19.752978207667645	-0.4835961837545816	16.676030145546342
O	18.981843229291293	-1.1122747285834362	15.702251152628214
O	18.099970409445618	-1.9204595306855166	16.4388817861813
O	18.319164179062412	-3.270246992755213	16.827831716265948
O	17.914176266744246	-1.2452382946990737	17.818642798871224
O	19.981767341865076	-1.7974373008782334	17.433451856378866
O	21.39609445568429	-1.5731834533822098	17.640608603294996
O	21.7385841161206	-2.6981075860856842	18.28589669863843
O	21.098776291564285	-0.34900040352533646	18.333501645250337
O	20.526590562969933	-0.6519875156434736	19.543901266492483
O	21.0064483004303	-1.7862017934181678	20.15347961418055
O	22.23367556044395	-1.4475449419769406	20.780338176992544
O	20.070400415505155	-2.5651467525721316	20.063376651788246
O	23.562604809353036	-1.6014242382952801	20.38824520848344
O	24.621467614670816	-1.1012410363092564	21.074602617272916
O	24.25871394455406	0.038851358626514454	21.788433553748717
O	23.178489412088148	-0.20197424735949143	22.64344464096971
O	22.132424745190082	-0.8331927766250855	22.027474447902197
O	22.905386693108966	0.5461397669486279	23.765461355798983
O	20.453443825762506	0.9218395084913107	18.075222868241212
O	22.06916567655398	1.630822811636223	19.66292670405155
O	22.313630910484754	2.468678979888273	20.74776656377875
O	21.372990930243738	2.4729594521464957	21.72464677141609
O	20.23534748657358	1.7455492541404802	21.544536457606405
O	19.976273920087472	1.2196174707727843	20.319462565506964
O	20.722474351136945	1.6810657060793468	19.29070895062387
