50

O	20.536802992037064	-8.970578818583622	15.523144385726642
O	21.134593719478573	-7.852007522984221	15.616195937127197
O	22.580852122204274	-8.687756814655346	15.351591899779143
O	22.126571669524978	-10.276505181965383	16.059038352477337
O	20.98203042105673	-9.791905468879687	16.635243475294487
O	20.59550058786933	-6.568971186086128	16.08441285104835
O	21.667400301978947	-5.862698708531975	16.36129924458585
O	22.36388403444713	-5.740058613904107	15.226883023007368
O	22.81836171919755	-5.47981565573798	13.998770484862694
O	22.317330335803355	-4.4642468148289876	13.292555252434594
O	21.880401856179326	-3.3195105833089844	14.047007625394672
O	20.74640666125281	-4.238162235275386	14.623212105775075
O	20.99181172088913	-3.3839476056390563	15.622676427742437
O	22.67027894740177	-2.941715109511674	17.28192473984229
O	22.708644392662315	-1.6349262730295817	17.951769444153133
O	21.938605247243178	-2.190219585260489	18.926807828874328
O	21.277035273328114	-1.5376988453033582	19.847109690171845
O	23.446946701529612	-6.019117718714794	15.67351726256477
O	21.212910536859926	-4.916295784808914	12.455751990732866
O	21.200051642645004	-6.343516979754762	12.78598179931176
O	22.34477558342323	-6.949896731315006	12.491303363639453
O	22.360443502370728	-8.218671294102888	12.094791723527822
O	21.296531317371013	-8.981206936448027	12.39766496796018
O	20.112255844569894	-8.32775533659581	12.530869183912463
O	20.0992264957776	-7.022533961204879	12.890577879068214
O	23.08246067605835	-3.417559045015032	14.84276308088628
O	19.918588083117108	-2.4496245524607727	15.254771121205914
O	19.659854252427902	-3.225231929939713	16.573043192318913
O	19.33153765981911	-2.2815991329498457	17.427136388066014
O	18.454755410746134	-2.4718170942849444	18.427966675042825
O	17.87877081050755	-3.7099606039437782	18.483525688243457
O	17.76215228793881	-4.394800759992377	17.300528196342917
O	18.767404268019394	-4.227163579519024	16.401509099888536
O	21.856233292359015	-2.7502630295264727	16.32406316835088
O	23.336652166660933	-3.8742362154703724	17.598498830027594
O	22.11322357252807	-0.42786796701757357	17.432763333697682
O	20.86652468852269	0.20077507802322492	17.729274167727134
O	22.232312182940333	-0.58586763094125	15.952545382702963
O	21.20030453482234	-2.320705040747151	21.001698743912694
O	20.42838881133542	-3.4551169163928703	20.888405516094593
O	21.437078384291983	-0.38371125588084953	20.187386493989443
O	20.992575199875557	-4.106250797322057	19.64586817412864
O	22.212774370606585	-4.690813733787662	19.833176499830316
O	21.83260786140898	-6.307783416474782	19.33831348418248
O	20.136264498260047	-6.14476482883218	19.092542723251363
O	20.38244857158033	-4.912250015593328	18.915707672326796
O	18.910634406551846	-6.882939158368536	18.838573822359642
O	18.9704859747982	-8.288788187532585	18.460582026776514
O	18.324711188004883	-6.834619070066436	20.21176877410806
O	22.44915414296398	-2.4062636815025704	21.683381651997752
