49

O	20.497641057706666	-2.018782394401077	21.055153242737333
O	21.6728609733169	-2.0041534486414156	20.427351424508842
O	20.451723100710755	-0.8706785778979924	17.687876663447884
O	19.419691661603167	-2.7865074081222145	20.62431046321544
O	19.12586777503806	-3.744944316198163	20.04415244920328
O	22.37973085697295	-0.927519515439978	21.011592710250493
O	19.93612719518473	-1.3277973058585673	16.459896798702026
O	21.97731475233141	-0.719977210604444	22.401971949725212
O	20.417186029455586	-2.7058277413583207	16.520777615341828
O	21.9552992993829	3.1766949912756894	22.627500362140452
O	21.629303478472316	-3.113016444663774	16.153346662814364
O	19.434095510350556	-3.6254373359880994	16.625159551247314
O	21.78177187417274	-1.9917815001410535	23.038942628889632
O	22.75436130788799	-0.08989771850627415	23.12040028404701
O	21.855562771669437	-4.334892415721972	15.635417836003047
O	19.650571481458442	-4.867499214387756	16.040619312628206
O	20.90525244865792	-5.295979410191428	15.706976430213759
O	22.552872399554218	0.12290476423221497	18.197425917491834
O	21.141669709005	-2.235230636304184	19.070321196558808
O	18.665106121498084	-2.2782932341020414	22.93652199066097
O	21.19602238303375	-3.4726818547064684	19.000754324208582
O	18.392817833814387	-2.3707385438969215	21.638055970494797
O	19.959438984703127	-1.664858490280156	18.668760094651077
O	22.670561723306875	-1.82227568511078	18.06183663288946
O	17.810245511659346	-1.2397921265627145	21.20283007441903
O	19.370801948715126	1.9044516059390117	19.233477263546654
O	21.65640462897467	2.289877689978587	21.67386457646076
O	22.91343357372792	1.899137882657393	20.168502675573166
O	17.942342006711826	0.02297195392907181	21.835340326656695
O	18.88014874512685	-0.0035874872189101126	22.828935382224223
O	19.316644336795132	1.1372031719936015	23.364716948750285
O	20.047716894872362	1.0762274887545233	24.48410211319758
O	20.228545776993897	-0.09838055448756755	25.116126291774258
O	20.210234122575187	2.197094717931961	18.130207452953236
O	19.380367426357694	-1.1232861954512758	24.79679037745267
O	18.71158531357529	-1.0980012624928919	23.636417095935858
O	21.912572972664346	-0.958690652546873	17.334792243265078
O	20.87956302292213	4.011238859684905	23.357517966789345
O	21.54059905494845	0.8510784976365464	18.395180271641333
O	21.066144560598204	0.8567543931651231	19.58311688951665
O	22.727850326533684	2.7954549119296512	23.922384434402638
O	19.729457438669424	0.6986483858101646	19.80757261091901
O	22.807186323442394	4.338843423211166	22.220436592264512
O	19.495175293565463	2.781785777916782	20.502882262750582
O	19.856395232852105	4.074641702944449	19.848519513050817
O	20.98524732141116	4.423884948927391	19.04810888187347
O	21.110676190727233	3.3526306830045645	17.962548004626427
O	20.797771224466103	1.1658340512037357	17.242956511676542
O	21.675939968663485	1.8870544793646573	20.332563178702035
