98

O	-2.6820230350784318	4.3452591220392165	4.376740815756863
O	-3.0315554180784314	3.3003924420392163	3.559869805756863
O	-2.477514012078432	3.3668504120392164	2.282444175756863
O	-2.686084625078432	2.370755862039216	1.3202478057568627
O	-1.8318576760784318	2.0242400420392164	0.27896073075686284
O	-2.2366962740784317	1.1855264500392162	-0.7780034282431372
O	-1.4493822650784316	0.06083074003921618	-0.2716895482431372
O	-0.9976486510784317	-1.1498510379607838	-0.7919754392431372
O	-0.4955092780784316	-0.5524892879607839	-2.110720694243137
O	-1.8895066200784316	-0.2745498979607839	-2.541878234243137
O	-2.1006292860784317	0.6996550270392162	-3.430681974243137
O	-2.981369788078432	0.3097070180392162	-4.435512844243137
O	-3.9694980980784313	-0.5101640279607838	-4.006803954243137
O	-4.0348043080784315	-1.1782162479607838	-2.811330834243137
O	-3.0244664980784317	-0.8667821379607838	-2.003883324243137
O	0.09717821192156828	-1.6500718079607837	-0.024255732243137165
O	0.8310519119215682	-0.4866166379607837	-0.08479266824313715
O	0.29033526192156844	-2.0261919779607838	1.3711471557568629
O	0.07480340192156842	-0.997556147960784	2.432291585756863
O	-1.0295937270784317	-0.18978050796078372	2.0385211557568628
O	-1.9291933430784316	0.3632032560392162	2.911959995756863
O	-1.1859703190784316	0.37294386503921617	4.060062865756863
O	-0.2862735580784317	1.388555485039216	3.715980835756863
O	0.2668926219215684	1.741903522039216	4.831575935756863
O	-0.5533828480784317	2.219721882039216	5.839287545756863
O	-0.23798325807843157	3.485633392039216	6.129310755756863
O	-1.7072141210784317	1.5415265260392164	6.028184905756863
O	-2.7421429380784317	2.1717388820392163	6.6718380257568635
O	-3.8517206980784318	1.2820776690392162	6.846067945756863
O	-2.064698708078432	0.6245103570392162	5.033664395756863
O	-0.8814411120784317	0.6038420300392162	0.9230774117568629
O	-0.1726519980784318	1.5571273440392162	1.071777968756863
O	-0.42802364807843163	-1.3949814779607839	3.739897395756863
O	0.2127777419215684	-1.4987335879607837	4.745219215756863
O	-1.4873042660784317	-2.301301387960784	3.421303605756863
O	-1.8720727310784318	-2.2870620879607837	1.9562480457568627
O	-3.1941134080784317	-1.8211063279607838	1.7980869757568627
O	-3.910045808078432	-1.244785727960784	0.8479156457568628
O	-4.645625508078432	-0.1314072179607837	1.0607804627568629
O	-5.029609698078431	0.2519722450392162	2.308909835756863
O	-5.286809568078431	1.563075181039216	2.721985995756863
O	-4.758127428078431	-0.6260756479607839	3.327830155756863
O	-3.774369488078432	-1.5282756979607837	3.050698155756863
O	-1.1780256310784316	3.171290692039216	0.03591170255686284
O	-0.4676690280784317	3.536723022039216	1.2139742257568629
O	-1.2798266870784316	4.075415472039216	2.181144885756863
O	-0.6045771080784317	4.468641952039216	3.304327095756863
O	8.312256791921568	7.309855422039217	-6.603162064243137
O	7.476736971921568	3.6558917520392162	-6.043907694243137
O	9.569960791921568	1.335869721039216	-3.876655114243137
O	7.008138441921568	-0.3495374779607838	-1.8316255942431372
O	7.939921431921569	-3.1158409279607837	0.6372253267568628
O	4.454728341921569	0.20883089203921623	2.972519015756863
O	5.470396101921568	4.6227488620392165	5.571539825756863
O	6.698972311921569	6.955376312039217	2.999557705756863
O	3.994357241921569	9.198090342039217	1.5363467357568628
O	-3.1700340280784314	6.745214542039216	8.487823015756863
O	-6.457535348078432	3.073021172039216	4.469643345756863
O	-9.403762978078431	1.4081997060392162	2.639561005756863
O	-12.44613990807843	1.6369790630392163	4.472178485756863
O	-7.051035278078431	9.355637752039216	6.134725575756863
O	-5.465718558078431	12.665789982039216	7.303687455756863
O	-3.8020155380784315	12.017577482039217	-0.8462005102431371
O	-1.8318923610784317	9.106381902039217	-2.0176434142431368
O	-2.4654851440784316	7.403951322039216	-5.257040094243137
O	1.2811912219215682	7.647409712039217	-6.073889854243137
O	4.486462701921568	8.664521312039216	-4.423302984243137
O	5.647960271921568	5.749985522039216	-2.298516944243137
O	8.852177891921569	4.994772912039217	-0.49772019524313715
O	8.005534221921568	2.7264127620392165	2.388731605756863
O	10.08302549192157	0.6431793760392162	4.774193775756863
O	11.041809791921569	3.5247420520392163	7.040178775756863
O	13.32173159192157	4.816115502039216	4.314932145756863
O	13.882154191921568	1.5337651070392162	2.433229445756863
O	1.324497651921568	-13.466441317960783	3.4401348457568632
O	3.2022693219215688	-10.146765917960783	2.872173235756863
O	5.662965641921568	-9.793857117960783	0.028897231156862838
O	4.584613901921569	-6.454309547960785	-1.4175058042431372
O	6.531223061921569	-4.796378107960784	-4.222007394243137
O	1.2399195519215682	-4.337725227960783	-4.885622704243137
O	-1.8373273020784318	-7.698499107960783	-7.854531554243137
O	-2.1519596830784318	-10.376833917960782	-5.209592154243137
O	-5.0144141780784315	-10.003920117960783	-2.809817334243137
O	-9.396326258078432	-2.3928023779607837	-6.249409844243137
O	-5.8235691080784315	3.058532212039216	-2.450809304243137
O	-5.524825408078431	5.652486392039217	-0.02127922024313715
O	-8.923457428078432	5.7516425620392155	1.4974875857568628
O	-10.630881058078431	4.208228242039216	-1.3696792942431373
O	-11.71374939807843	0.9203245750392162	-2.8788666842431367
O	-12.975931908078431	-2.525679517960784	-2.064114284243137
O	-14.796179108078432	-5.135188977960784	-4.068763554243137
O	-8.621810098078432	-7.676703047960784	3.155169925756863
O	-6.938271968078431	-7.724205977960784	6.591857685756863
O	-3.7370832480784317	-9.257030817960784	5.142723255756863
O	-2.7645853580784316	-11.765936417960784	2.461163735756863
O	-0.7267057880784318	-9.759368217960784	-0.10799214124313715
O	1.6368410819215684	-11.148454417960783	-2.592588484243137
O	1.9608504219215683	-8.666055907960784	-5.393436524243137
