46

O	20.788501301714287	-0.35227723266220634	22.57367643989372
O	21.640920589554135	0.4734723731737893	20.048744897527268
O	23.39087825615865	1.4708048216182057	21.083756801439286
O	20.37447676839507	-0.07967176554647848	20.207062108638265
O	21.91583003325012	0.5287109223106916	22.497569563236436
O	22.726651017469724	-0.1563823471881649	18.01860837803832
O	22.322052017078917	0.8778284260254234	21.206662330971202
O	20.57823366869726	-0.6123633720324191	17.95609860321338
O	22.406278905419114	-3.0278207587841424	18.40156617246527
O	21.005873625728725	-4.980423058996725	14.44005225118742
O	21.160344618752546	-3.5197994398139314	16.291176292850615
O	23.275294729487584	-2.784115625775158	15.47307185571428
O	19.852895376139543	-5.011005034364732	15.127006878490588
O	22.51363776113356	-4.817640496739106	16.72012366618629
O	18.84571791516742	-5.872496366474701	14.871557553533291
O	19.326226152647248	-6.998567385625474	14.202671404079005
O	20.173148168995436	-6.75407402307036	13.181918183333192
O	21.002267780468863	-5.705071823508462	13.316050357866805
O	21.629728875866473	1.4348279228704897	19.02967983891924
O	21.61754783308169	0.2593393087713576	18.09481647074407
O	20.720171668083875	-1.251215759028516	16.700685080216154
O	20.502865870690115	2.0586986726146863	18.312728173976865
O	20.309561548405696	1.5499022638149915	16.839341210665168
O	19.356415589445646	1.161980648170461	18.61906847654453
O	17.816023323636088	-4.075072730135769	17.61854537048693
O	17.909376195457156	-3.72283514520427	18.929921615579236
O	18.173488551017943	-2.4602037179498293	19.302040901120673
O	18.781023505839137	-1.7608382439595762	18.342488406607007
O	18.94680307061813	-2.135234683601405	17.096981333036894
O	18.17135212339975	-3.1471612031699943	16.73198402543923
O	19.54952947202731	-1.4252161947154838	15.926795380176065
O	22.054775523850502	-1.2861953514745268	16.388393232961487
O	22.203569424702692	-1.9255758262074723	15.14702013873744
O	21.082535327070378	-2.872086753859858	15.124659911152321
O	21.468344676792807	-4.354332559723035	17.219980743437763
O	21.280070247677113	-3.720591355366081	18.54222772020939
O	23.08342993259528	-2.247476651101521	19.194297838182667
O	21.531620800311423	-3.6694874892825458	14.023083536965132
O	24.488044296612944	-2.4434484929340528	19.150747669039145
O	25.17654794367252	-1.6866067641702895	20.113000703876807
O	24.329546175298645	-1.136366478512315	20.991572875072496
O	23.450130837987118	-2.0833764120582083	21.570849439220446
O	22.5985489513669	-2.435573240370638	20.520452518894515
O	21.156920801625187	-2.744300830985684	20.551706408400626
O	24.94982691087911	-2.2114808730662534	17.804765177535998
O	19.846763938553586	0.20642562568629108	21.46855723170882
