83

O	-2.8920638253333335	-5.5267967618444445	-1.7144200855577774
O	-2.0976186963333334	-4.377317661844445	-1.8591912455577777
O	-2.0049903723333333	-3.9056175418444448	-3.1950968355577776
O	-1.5496452783333334	-2.5752325318444447	-3.4473840655577774
O	-0.8562605253333334	-1.882493271844445	-2.5247909855577775
O	-0.23429975533333347	-2.8036765518444446	-1.8082976655577774
O	-0.7954569863333334	-4.066194141844444	-1.4093875225577777
O	-0.8988278843333334	-0.23925934684444466	-2.7304089955577773
O	-2.2240437833333333	0.12240348315555533	-3.3990106955577772
O	-0.05828803533333349	-0.12578635684444467	-3.835842755557777
O	-1.1150703263333335	0.6355697481555553	-1.3908574095577775
O	-0.20566436533333343	1.5310701681555552	-1.0653143725577774
O	1.0802738946666668	1.0327223041555553	-0.6986461845577775
O	1.6569271746666667	0.8910622291555553	0.6113450544422224
O	1.2115391046666668	-0.16913904584444467	-1.5076766085577775
O	-2.3912246553333336	0.34484055715555534	-0.9567183495577776
O	-2.4973238263333335	-1.1746313218444446	-1.1741990655577776
O	-3.5741782553333334	-1.8757335018444445	-1.1077692095577776
O	-2.1882510383333336	-1.5454385218444449	0.12606399644222244
O	-3.0517350053333336	-1.0135192318444448	1.0804857344422225
O	-3.3376995653333337	0.32273112215555533	1.1782389444422225
O	-4.230112125333333	0.8081646381555554	0.5612270244422225
O	-2.4014012533333333	1.1361034321555554	1.6959130144422225
O	-1.9893083203333335	2.4027708681555553	1.5165632044422228
O	-0.5826205553333335	2.5293510881555554	1.7766934244422226
O	-0.46193151533333343	1.5183617481555554	2.7107472144422227
O	-1.2702286683333335	1.9829645981555553	3.5662919544422227
O	-1.9563581663333334	1.0423343791555553	4.235098324442222
O	-3.1981355353333334	0.8529401971555552	3.7640809144422223
O	-3.620666095333333	2.0358698481555555	2.9540860644422224
O	-2.3733843483333334	2.828033398155555	3.0354402244422225
O	-1.0978092363333334	-0.4562369338444447	0.19349789044222243
O	-1.2027220713333335	-1.3074497118444448	2.3784836844422226
O	-0.43277621533333344	-1.5116349518444447	3.475723444442223
O	0.5448019746666668	-2.3823465318444446	3.1914817144422227
O	1.0481866046666666	-2.5210417218444445	1.9417452244422226
O	0.24849114466666666	-2.0678045418444446	0.9742537144422224
O	-0.5456977053333334	-1.0100385618444447	1.2501569344422223
O	-6.5691100953333335	2.7470577981555553	-10.730554645557778
O	-3.0345948453333333	2.5792677681555554	-9.420146945557777
O	-0.7362181363333334	5.604500888155556	-8.958607685557777
O	0.6121705846666667	5.1094638281555556	-5.595132135557777
O	3.1193357546666665	7.361920608155556	-3.8535452155577774
O	-0.7995412773333334	5.673005798155556	-0.47452481755777753
O	-5.229793705333333	8.797402188155555	0.4617153244422224
O	-7.184103305333333	7.938824488155555	-2.5882275055577773
O	-9.331632755333334	4.880992788155556	-1.9342813955577776
O	-8.586794385333334	4.204049958155555	7.938828664442223
O	-4.844964015333334	-1.2308965418444446	7.675261994442222
O	-3.0006467653333333	-4.4215573018444445	8.321031114442222
O	-12.758841015333333	-2.3914765718444446	0.9933815644422225
O	-9.575752435333333	-1.6471346918444447	-0.7783139415577776
O	-7.823295735333333	-4.3592943418444445	-2.5937090055577774
O	-7.726734925333333	-2.082824031844445	-5.756312375557777
O	-8.424112165333334	1.4132798551555554	-6.6903379355577774
O	-5.686289785333333	3.754862348155555	-5.741532845557777
O	-4.742752935333334	7.254451618155556	-6.354408585557778
O	-2.8147515653333333	8.406182578155555	-3.3488429255577774
O	-0.8574290403333333	11.551817458155554	-2.5868975855577774
O	12.275296584666666	4.4342427581555555	4.182707954442223
O	9.295458084666667	5.375354218155556	1.9639552244422225
O	9.607759484666667	5.340356328155556	-1.8198396655577773
O	6.398123134666667	3.528682738155555	-2.7563874255577776
O	5.290861354666667	3.122202298155555	-6.387473435557777
O	4.406666934666667	-1.3815062318444447	-3.1879197755577775
O	8.021038204666667	-5.586288081844445	-3.0979200155577775
O	10.382042384666667	-3.9812082918444447	-0.5470919224577775
O	2.408349644666667	-13.756421441844445	3.5191903444422223
O	1.6905295246666665	-10.348252641844445	2.1211486944422226
O	-3.7580071853333337	-5.315464281844444	1.9776130644422225
O	-6.694677535333333	-3.3079770918444447	3.3465951244422225
O	-7.194644335333333	-5.054122991844444	6.595618644442222
O	-5.496866085333333	-8.286958171844445	5.810679154442223
O	-2.1341175073333334	-10.096249841844445	5.806427324442223
O	1.1081211146666667	-10.375580441844445	7.752019934442222
O	3.8507208046666666	-12.940105341844445	7.839816504442222
O	5.817883054666667	-3.290979781844445	9.558044154442223
O	5.537198444666667	0.25752213415555536	10.924861954442223
O	7.375940104666666	1.7258395181555553	7.948045954442222
O	9.018143184666666	0.48735365115555535	2.243671624442223
O	10.995804684666666	0.6256836551555554	-0.9550683305577775
O	8.730409884666667	-1.0774703618444448	-3.5283436255577776
O	9.063818584666667	-1.2425487918444447	-7.295194575557778
