44

O	21.770936366691345	0.7870200892951691	20.101483021320256
O	20.45029259135321	0.48848169155964194	20.133805748686566
O	19.84312588955551	1.4657081923585253	20.527541429421113
O	19.733188653933418	-0.27177330358038554	18.170277481205666
O	20.921852410048732	-0.9840086065748632	17.72386486787429
O	21.75952543792415	-0.03769294848814786	17.651959039862795
O	20.756077347237824	-2.40852360271997	17.96482451970497
O	21.073034308547832	-2.9333737615655124	16.64328967375519
O	20.455802778973222	-2.805445337337824	15.352712986161851
O	20.31673495844432	-4.21699294684878	15.021655197906473
O	19.7781081062698	-4.9618511706778925	16.069358896779356
O	19.311241164679526	-6.133103704005407	15.545349966630313
O	20.415022611685295	-6.8717320254685745	15.121409166477994
O	21.337108429790533	-6.185981512277728	14.423404029554453
O	21.513696574577903	-4.8676877514719346	14.7462245924616
O	22.310022520347953	-2.112154610583551	16.53701087424274
O	22.194552899881888	-1.1199664026418994	15.886996173590383
O	21.777457909154514	-4.112822573629007	16.852423107369567
O	22.632922924241434	-3.655875880196672	17.925500911115815
O	22.774464207583364	-2.3170766171521033	17.94068849444755
O	19.2406599733698	-0.9216654506051537	17.036663556824436
O	18.673314759103476	-2.059934202373509	17.830126955337125
O	17.76812235026562	-2.6937760068241645	17.0768847366339
O	17.222266101281814	-3.830644527797765	17.558932406917176
O	17.968775454843527	-4.39924217769349	18.606140146769018
O	18.322995246363444	-3.520514143530605	19.58438722402656
O	18.55934302203184	-2.2560977224940686	19.1565223933418
O	22.079260452233683	1.8985634986135373	19.23972200222189
O	23.45428387187885	1.4983505743284011	19.310755953534333
O	23.61448116578317	1.8462504155134107	20.677031472377116
O	22.654381975855273	2.741755631770607	21.07120099623821
O	21.54772663328479	2.942970735377017	20.03104691455531
O	21.90056929769625	-2.743790716001927	20.354975896669853
O	22.630341647465542	-1.8343267997521544	19.29046130166402
O	23.76241401099451	-1.7554525963978747	20.18783453930845
O	23.74812844458653	-1.290223158665956	21.497350157490313
O	22.49816044465634	-1.2435602806006467	22.214517484047775
O	21.536462486049313	-2.077238870204029	21.525972112480673
O	24.80502232627034	-1.5323537764416266	19.420745218573686
O	25.935927536006897	-1.2637018337039545	20.137001223806056
O	25.832033347093727	-0.4064654231591891	21.18618758906618
O	24.838835339895077	-0.729703626626204	22.110527206484758
O	22.05400590648726	-0.0675305579082981	22.52658120827965
O	19.779434653669426	-0.5692616455640996	19.540128702785754
