39

O	18.07524212527325	-6.665562984089679	19.453695111487
O	18.934887968562716	-5.903184976247758	20.119388857769913
O	19.452544099210495	-5.106350139677426	19.195556709895982
O	18.664849284074883	-2.859645941555241	15.8336612032213
O	18.871133729811543	-4.2691011429928185	16.846737649730496
O	18.774014313241754	-4.930516482521307	18.107441052263933
O	17.726022970824584	-5.829499258543288	18.430478608425872
O	20.034425010772473	-2.8861866620508616	15.000522548497337
O	20.16724199493256	-4.222051969823873	14.890524060775483
O	19.45787611594755	-4.964369449235994	15.770611813174634
O	21.012602482678957	-1.8476111794676222	14.227072855710162
O	20.245989643823187	-0.8322219274106513	13.52376132090341
O	21.739924351019724	-2.5504495759970798	13.180378280308247
O	21.829265263129166	-1.0005839942633574	15.4162033567591
O	21.00568785411445	-0.06227550276545113	15.801472947322928
O	19.706398801471057	0.04274216370947426	15.483598941543141
O	19.421355063796085	1.237253403403951	16.330984836717946
O	18.465972048707282	-0.6116177816229464	15.511220468935617
O	22.19585956231355	-2.070962093840711	16.124410239092775
O	21.24233947064203	-2.6625861543160263	16.95156765927207
O	21.736245453132952	-3.722471754080397	17.450757545684187
O	20.707488276670535	-1.5163471908205086	17.407445470361534
O	19.585186592324103	-1.484626385236814	18.16036132369813
O	20.185785460394655	-2.0791026545393416	19.215053653265606
O	18.98358448864991	-2.088592707100873	19.923189030657653
O	21.228560370080782	-2.613245534316662	19.464657228624766
O	18.990260007350773	-1.3177449956214757	21.039411871339805
O	18.567003629096476	-1.8128814895003573	22.226877421147098
O	18.090623768597993	-3.0891616656028256	22.101008753553216
O	17.37039675729803	-3.405535037660687	20.985698616830593
O	17.851020827358095	-2.817657244704179	19.865690171458265
O	16.457157753407593	-4.423117212133148	21.067716239638173
O	21.740608555286983	-0.5997301701298372	17.889635621320775
O	19.873638038884213	0.8198223612912097	18.880105816056187
O	19.59827864852419	1.6996609511714529	19.855327941253023
O	20.228381702273897	1.6087418477400521	21.050401805876984
O	21.34258669799427	0.840493202894466	21.072012737669688
O	21.814720170364183	0.3506479688854407	19.89453533308967
O	20.986897924119532	0.11775230407520287	18.909196895990778
