102

O	-0.0890181501679998	-3.090820637566	0.024176798019999557
O	0.06612874833200019	-4.025819077566	1.0247843510199994
O	0.7197721783320001	-2.258764807566	-2.59500357898
O	2.347427178332	0.8216694734340002	-2.7944743189800003
O	0.6466015273320002	2.795834492434	-2.34697562898
O	2.980832348332	2.401509702434	-2.10355481898
O	3.9684944283320003	-2.829834107566	0.3659022500199996
O	4.483544178332001	-1.966448827566	-0.5674461129800005
O	2.385165238332	-1.2796789375659998	0.2816879200199996
O	3.024799218332	-1.621873707566	2.1188443310199996
O	1.2212620283320001	-1.309597997566	0.8193216110199995
O	1.7832297783320004	-1.643380657566	2.63308451102
O	2.778954988332	-3.4694660575659997	-0.018421466980000467
O	1.1270456683320003	-4.853005587565999	1.4629932810199995
O	1.3727405383320002	-5.002033047566	2.65211603102
O	0.23807755033200018	0.17490550043400016	-1.7679728689800005
O	0.1649224513320002	2.8439611424340003	-0.29275492188000046
O	-1.6230168216679997	-1.4033788975659998	-0.5676745849800005
O	-2.297970511668	-2.474691807566	1.4951356510199996
O	1.6742914583320003	5.147008942434001	0.9868555910199994
O	-1.2598474416679997	-4.580089777566	0.7537360310199994
O	-0.05234674164799981	-0.17726314656599984	1.1346110010199995
O	4.3101669083320004	-0.6823389275659999	-0.01698150398000048
O	-1.2701410416679997	0.5670431944340002	0.9182676910199994
O	-0.7675138426679998	-0.7206656675659999	2.28134671102
O	0.2603382713320002	0.9409656944340001	2.90350461102
O	-0.1655865906679998	-2.546672007566	2.4047934910199995
O	1.2176996783320002	-0.4618248915659998	-1.3959471089800004
O	0.3359084333320002	1.6168499424340002	-0.32088520592000047
O	-0.7705596196679999	-1.9537084975659997	0.2146881300199996
O	3.383443738332	-0.9421219475659999	1.0613704410199996
O	0.9569760083320001	-1.9242429675659998	1.8617156610199996
O	1.7261434183320004	1.6072785324340002	-0.7072566459800005
O	1.5456889383320003	1.8487486924340002	-2.07002001898
O	2.087105048332	-4.349995267565999	0.7086339310199994
O	2.239402608332	0.41361094443400015	-0.8420126409800004
O	0.5325716673320001	1.6968971624340001	1.0227423310199995
O	-0.5104020856679998	1.403990706434	1.8110913610199997
O	1.7732862683320003	-1.620443237566	-1.9867377289800006
O	-1.2361622016679998	-5.602997097566	1.7916337710199997
O	-0.6535105706679999	-5.481696467566	-0.27079033038000044
O	2.9264241683320003	2.961570802434	0.9853705210199994
O	2.855748998332	6.0667652124339995	0.06408073801999953
O	2.897416228332	1.1860160384340002	2.29516809102
O	1.7329453083320003	1.2273793274340001	2.7977428210199995
O	3.320165048332	1.788304972434	1.1583251810199995
O	3.207370388332	4.124774042434	0.45315194801999953
O	1.5459410983320003	2.5172074824340003	2.8259158210199997
O	2.122064218332	3.345174692434	1.9578681710199997
O	1.8209477783320003	5.364728282434001	-0.9334694139800004
O	2.889516028332	4.3805728824340004	-0.8584170779800004
O	-1.1624639316679997	-1.8544560775659997	1.6004187910199994
O	-9.707147821668	-2.403710747566	8.29901417102
O	-8.858456671668	-2.344288737566	4.58396480102
O	-10.162893231667999	0.014846035434000149	1.9797694710199993
O	-7.112476201668	1.0365586174340002	0.21819300001999958
O	-7.074016701668	3.507989732434	-2.60628183898
O	-3.376590241668	4.533265012434001	0.7821596410199996
O	-3.485065151668	7.924350222434001	5.0224657410199995
O	-5.310916071667999	5.9135191624339996	7.34510803102
O	-2.976792521668	3.9687124924340003	9.628267041019999
O	5.867007008332	8.101962912434	7.8106661510199995
O	7.870958728332001	2.815926482434	3.8762248010199993
O	9.674146538332	0.21692658943400012	1.8883973210199996
O	9.107451028332001	4.556853982433999	9.91252370102
O	3.695641568332	-0.6970546975659999	12.65257630102
O	1.4680684283320002	-0.9765516275659998	9.72015820102
O	1.0794578183320003	-4.2630791875659995	8.44246420102
O	-2.742634091668	-3.796064457566	8.90617067102
O	-5.327618561667999	-1.3662748575659998	9.55295366102
O	-5.909017301667999	0.6247581584340002	6.49011989102
O	-8.401568141668	3.1586838324340003	5.500069841019999
O	-6.580669391668	5.285657272433999	3.0511180310199997
O	-8.030728041668	8.200799822434	0.9105922210199995
O	-11.095310731667999	9.004392232434	4.97476412102
O	-12.231882831667999	7.180699052434001	1.8173767810199994
O	-0.030906988267999806	3.819900182434	-13.06793409898
O	-1.9958297716679998	3.920824292434	-9.721736528980001
O	-5.246251481668	2.150966872434	-9.24528082898
O	-4.592866551667999	0.5839537497340002	-5.85785502898
O	-7.389591461667999	-1.379824277566	-4.158427988980001
O	-2.676622141668	-3.223903697566	-4.047779068980001
O	-0.8119046686679998	-7.722534227565999	-7.41240856898
O	0.3900942723320002	-5.334289697566	-9.97683953898
O	3.9546055883320004	-4.150075297566	-9.66442493898
O	10.137920468332	-10.638624947565999	-2.3490030789800005
O	7.375425508332	-8.127249937565999	-1.7758113289800006
O	5.041511508332	-3.210463567566	3.7704166410199997
O	5.423926568332001	-0.7669817575659998	6.27040641102
O	9.189186088332	-0.6840174975659998	6.39943112102
O	9.988822168332	-4.037135117566001	5.00543906102
O	10.527769168332	-5.815427777566001	1.6981921410199996
O	11.919921568332	-5.4198602375660005	-1.7857256589800006
O	13.203070668332	-7.928014967566	-4.36291414898
O	9.297434118332001	0.31110036643400013	-7.10428859898
O	8.927779248332001	3.9865724524340003	-7.40879007898
O	5.358183648332001	3.565932082434	-8.77211202898
O	3.517136468332	1.558437132434	-11.267421498980001
O	0.7214224413320002	-0.1488427315659998	-9.38378555898
O	-2.371273821668	-1.6610776775659999	-10.67184739898
O	-3.481480271668	-4.011809277566	-8.036845968980002
O	-6.756429751668	-5.836431737566	-7.831489388980001
