35

O	21.5127790605835	2.064464491526819	18.01122229107176
O	20.000100680273658	-1.8382080423898504	19.44367923824336
O	20.411944876409954	0.7140265666250363	19.710361383196965
O	21.19917213524703	-1.599280308365293	15.0888262752072
O	19.84948884245383	2.6934576340038308	19.120666084212022
O	20.472286698576152	-1.1333917818760346	16.533250944152236
O	20.034671810386115	-0.4425643383376763	21.085461597391646
O	19.932053497044027	-0.5304598556283766	19.90388145167738
O	20.420450311195356	-7.248627051174557	15.76285898306665
O	22.059619346616596	-3.2847787903104972	17.052167896623494
O	20.297941405945004	1.4532135834339144	18.61403582556033
O	20.753211017868296	-0.6574894865296672	14.102292661337259
O	21.134753267788795	-2.304055420205989	18.850789694723847
O	22.602288848264415	-1.4582881741934464	15.265455199813523
O	20.927590888738617	-3.187942257979291	17.734937545301317
O	22.05013286675195	2.229249057361284	19.3493454025904
O	21.54035209506397	-1.101082854496533	17.92057987105369
O	22.62137105217301	-0.8222665994021878	18.741928657961125
O	22.74179104978352	-0.6132329263025286	20.049162880346064
O	23.67701505502568	-1.5205231700608521	18.26627611411103
O	23.869756042902683	-0.035263416067944586	20.533920163712768
O	24.877456260164127	-1.3042179561890512	18.872070981658332
O	24.93267452833393	-0.7810522933495745	20.11412367847319
O	19.937168988812637	-2.4000508399769074	17.038769250375065
O	19.465985205145273	-0.30557970568955195	16.164452008922023
O	18.284834084031473	-0.9746452600070366	16.545529004076023
O	20.686095247834466	-3.1509854015002285	14.759497268028365
O	19.55715710057477	-3.67797419344206	15.25552977376437
O	19.4049446965536	-4.988749967362761	15.75312606061252
O	20.53432424237569	-5.7969226866841	15.670387109459085
O	21.26961018937018	-5.417673941917501	14.564149409334027
O	21.317804409566705	-4.092715117095278	14.106022388550501
O	17.875598316231184	-2.263830649528356	17.013939737475198
O	17.990707471561652	-0.1893161369772809	17.773758443124013
O	21.08485427783465	2.834885828731356	20.070154992682376
