109

O	-3.407432347254902	1.4872439210196085	-3.4343553044705883
O	-3.766461757254902	1.3181228962196083	0.6998576855294117
O	-2.730955697254902	0.5817960930196084	-3.086944544470588
O	-3.914256487254902	-0.6759470019803917	-0.5488412817705882
O	-4.699403467254902	1.3912723118196084	-3.972779444470588
O	-4.714461207254902	2.2564953750196084	-5.176955884470589
O	-5.719948927254903	2.1525923720196083	-3.233645514470588
O	-4.879110997254902	3.2348418980196083	-2.585559844470588
O	-4.847648257254902	4.3406064180196084	-3.380653064470588
O	-5.007266307254902	-0.04953595198039151	-1.1285355774705883
O	-4.997095217254902	3.3705868980196083	-1.3008759644705883
O	-5.135334557254902	5.546229938019608	-2.7441758544705883
O	-4.867954587254902	4.512361208019609	-0.6659375682705883
O	-5.736415567254902	0.7155416840196084	-0.31742548347058824
O	-4.756081667254902	5.6230822580196085	-1.4343649694705882
O	-5.854739467254902	-0.7816545719803916	-1.9681730944705884
O	-7.208585397254902	-0.6096119519803915	-2.115170544470588
O	-7.038597087254903	0.9931619650196084	-0.38244029047058825
O	-7.770580087254903	0.34173688801960833	-1.3232981274705882
O	-3.0518969272549024	2.493292768019608	-2.4774741244705885
O	-1.7936075301549022	2.9272248080196084	-2.726848864470588
O	-1.0779085602549023	1.8509050500196085	-2.1687982644705883
O	-0.22105178725490227	1.3159688918196084	-2.817162574470588
O	-1.4063212642549021	3.1120636180196084	-4.0729741744705885
O	0.005029162745097793	2.8423149080196084	-4.199867134470589
O	-1.5682343832549022	4.517714038019609	-3.795116674470588
O	-1.4402425002549022	1.2180757460196083	-1.0255660074705881
O	-0.13439089725490216	0.7101610360196084	-0.7483379304705883
O	0.9090075927450978	1.7045371460196084	-1.2375639874705882
O	0.020436502745097895	2.8391371680196085	-0.6467164967405883
O	0.4320306327450978	3.9762403380196085	-1.1223948754705884
O	-0.3470724772549021	5.052964648019609	-0.8495560344705883
O	-1.6205568222549023	4.934239258019609	-0.39593421647058824
O	-1.751542161854902	3.9839603980196086	0.5751498055294119
O	-0.9749300542549022	2.952610438019608	0.30196029052941176
O	-0.006124107254902089	-0.4141572619803915	-1.5927402684705882
O	-1.1660900362549023	-0.9746849419803918	-1.9901303444705882
O	1.2547708827450976	-1.8070205619803916	-0.5787327507705883
O	0.052640542745097774	-1.3192919819803914	-0.36668850347058823
O	-0.6375737172549021	0.14751662801960852	1.0493400055294115
O	0.21088951274509782	0.07867349801960843	0.08686694552941177
O	1.5777076327450978	0.09069446801960845	0.5705172055294118
O	1.4410736727450977	1.1324478140196084	1.585627705529412
O	1.897661102745098	1.1440556480196085	2.8059809255294117
O	1.4850701427450979	2.1687934480196085	3.571087475529412
O	0.9373101027450979	3.2597767580196084	2.8545843555294117
O	1.8252060427450978	3.490927078019608	1.808922795529412
O	2.0381975327450976	2.3156938160196083	1.1770200855294117
O	-1.6772516882549022	-1.4356544719803916	2.391502005529412
O	-0.37033943725490226	-1.2882095419803914	2.8912710155294117
O	-0.32132304725490224	0.06824373801960837	2.3476245955294117
O	-1.2147308602549023	0.9579485590196084	2.555786245529412
O	0.9119080827450978	-1.8416815819803918	3.0194355855294117
O	1.9527742227450977	-1.1590843319803916	3.925763145529412
O	2.071792262745098	-2.2217443619803916	2.198459405529412
O	-2.388936768254902	-0.7082475119803915	1.3558676855294118
O	-2.178069530254902	-1.7148006219803915	0.6140203055294117
O	-3.4200806572549025	-0.07342808198039164	0.6997947155294119
O	-0.6865674272549023	-13.178040011980393	-0.28056392347058823
O	1.8540805927450976	-10.378993311980391	-0.5316573454705883
O	3.6759103427450976	-9.42700611198039	-3.7107615544705883
O	3.3700729827450977	-5.739730231980392	-3.678351064470588
O	5.019658342745098	-3.6427089319803914	-6.447186254470589
O	0.14641873274509787	-2.0282271419803917	-5.374790504470589
O	-4.452876827254903	-3.5707471519803917	-7.8469275644705885
O	-4.887604257254902	-6.900477721980391	-6.3937129744705885
O	-7.124085417254902	-6.969749441980391	-3.327515194470588
O	-10.847806927254902	2.4163032880196083	-4.3507000944705885
O	-6.978375997254902	4.589641438019608	0.7705407655294118
O	-5.454248847254902	6.5265479480196085	3.628375165529412
O	-7.477110857254901	9.484804338019607	4.287554565529412
O	-13.037404177254901	2.6947401780196083	0.47340073552941175
O	-15.747677777254902	0.3817229320196084	-0.9758162914705882
O	-11.238175567254903	-4.459304521980392	3.820596935529412
O	-7.671432367254901	-4.949257271980391	3.134836535529412
O	-5.091627997254902	-5.264430871980392	5.855953795529412
O	-3.6673890172549024	-8.36226698198039	3.981593505529412
O	-4.091044327254902	-10.201521611980393	0.7150052455294117
O	-2.1000053342549023	-8.380507201980393	-1.920586724470588
O	-1.0407727022549023	-9.15342701198039	-5.397566624470588
O	-0.5882321872549021	-5.864170071980392	-7.162898384470589
O	0.8999647827450978	-4.990562351980391	-10.550952364470588
O	-2.110387933254902	-6.019907441980392	-12.581159484470588
O	2.454889532745098	-9.180211711980391	-11.168712784470587
O	10.431544322745099	7.674024778019608	-5.314451904470588
O	8.481092222745099	4.374788568019609	-5.762737254470588
O	10.165860622745098	1.0527388600196084	-5.2601411244705885
O	7.592516792745098	-0.7183638119803915	-3.1110944544705883
O	7.968628592745098	-4.351141561980391	-2.096754514470588
O	6.087492632745098	-1.2935609419803917	1.823374785529412
O	9.116806022745099	0.9330904710196084	5.810603185529412
O	10.315645622745098	3.9214007580196086	3.7734394955294115
O	8.083536842745099	6.969728678019608	3.9472418255294115
O	1.321805422745098	6.109620688019608	13.245592215529411
O	1.337753822745098	4.103252688019609	9.992628415529412
O	-3.458332337254902	0.9646048400196083	5.273631945529411
O	-6.792153837254903	0.3342026880196085	3.8562091955294115
O	-8.578093327254901	3.4064364280196084	4.822060475529412
O	-6.658262037254902	4.012414598019609	7.855230445529412
O	-3.598156297254902	5.663657538019608	9.291752265529412
O	-1.530292209254902	8.782755468019609	9.214114025529412
O	0.7915364227450978	10.423137638019607	11.728955315529412
O	2.2255630627450977	11.112114588019608	2.134213145529412
O	1.5102909827450977	11.845624688019608	-1.4652651874705882
O	4.476315542745098	9.702994248019607	-2.649575114470588
O	7.9977255827450975	9.008750788019608	-1.6979002144705881
O	8.172323622745099	5.284313438019609	-0.9419756544705882
O	11.183850022745098	3.108576758019608	-0.7956374664705883
O	10.226832522745099	0.1423241080196085	1.3584880355294118
