40

O	21.739454380011118	-0.22997467377475211	20.75926776384049
O	21.26438795668051	-1.5158229417594615	20.45878276359281
O	21.894011429700214	-1.8545157852414555	19.23053494496713
O	21.697372840294253	-1.220739952039294	18.067249159658225
O	21.69721695330387	0.12005091734793272	18.315622895950966
O	21.887089699343814	0.5537405968511842	19.64657751173744
O	22.099974305621704	-2.226884508146609	16.781482630482156
O	23.324134409519544	-2.201921124968883	16.071264039136665
O	22.673302235872683	-3.4945862472295106	17.175801963193962
O	20.978992737167705	-2.1731212872679633	15.55021511764916
O	19.955185413574807	-1.367523658740434	16.023537589939245
O	18.900959581932245	-2.183453949160113	16.61220361211982
O	18.777140170450124	-1.541123986424652	17.90980685652104
O	18.184824464485338	-3.288051603555309	16.05192612459431
O	20.41404386928223	-3.3969048982210635	15.349437406257996
O	20.70423305560512	-4.165805832762368	16.561640497372448
O	20.42334232664774	-4.078917512271525	17.808169388499554
O	20.786440998529798	-5.507072328507465	16.07565633207125
O	21.994673613009283	-6.104166551244558	16.20399329673965
O	22.98666740672698	-5.9316564933372975	15.227372662770348
O	23.612448458434603	-6.919498531679654	15.588252348936335
O	23.999800358202833	-5.028676357199199	15.180525764966935
O	24.304010347783134	-4.593670142768495	13.925588591046683
O	23.135137245732285	-3.90021985312352	13.404478849889236
O	22.750155769020953	-4.797115964961361	12.525880882938857
O	23.70030252849127	-5.491341877727631	11.87898916523889
O	23.114359119994557	-6.660527583375037	11.651082775591467
O	23.675629067329503	-7.698660790789749	12.263238207793243
O	24.096292667545708	-7.108859364041724	13.518350270374057
O	24.542407920243114	-5.841082982318514	13.122090338698365
O	20.480151720133343	-5.372850226861928	14.587270171380966
O	20.922838229047347	-7.683141581763132	14.843794435001325
O	21.379261833090087	-8.87326776663249	14.367641139685961
O	20.908005091553928	-9.17554034848266	13.127476981850327
O	20.42614977616652	-8.177929829278677	12.344739165187544
O	20.45834582948124	-6.913386652024003	12.8361726844204
O	21.021040659753808	-6.6131639729942835	14.044888907982163
O	21.538198701360642	0.12540254223217162	22.07359663853078
O	21.0277573213869	-1.0366926693297258	22.638832917302
O	20.458475854568775	-1.6582704629709193	21.516416527652016
