39

O	22.711598528938627	-0.016835286616389	18.857708330626355
O	22.417859737186987	-0.47582639898967294	17.584611155859832
O	21.720869659327672	-2.6557858148364817	15.565672033988907
O	22.103820997501323	1.1074810624651112	19.352762624593655
O	24.49676003397698	-1.356828666685905	17.882075500833732
O	21.211673238485425	0.04569663660183254	17.096868423689493
O	21.489975071050633	-2.8281851789590484	14.16157758823656
O	20.500817442736803	-0.23733976896784137	18.39115562983204
O	20.73768385961423	-4.101390781091132	14.202880522800733
O	20.808611526194646	-1.1592940312149396	19.355457648972816
O	21.606274299097837	-5.1142911140364005	14.213645628259101
O	19.296900733918587	0.256512889622712	18.35973956940708
O	19.72298136144324	-4.349434097947402	15.027886178561534
O	20.031701988045008	-1.4875463623488354	20.396389804868356
O	21.16535409126944	-6.3787940163426535	14.305333466897986
O	18.420030653735054	-0.2974790945125758	19.2202993672721
O	19.10130128319214	-5.517996367736489	14.90167225880399
O	18.842049048424723	-0.8950735285187676	20.352532400783588
O	19.891050798416668	-6.58266304385679	14.630891059650084
O	22.167226843556556	0.07950004868051108	22.313804403369346
O	21.57957527452143	-2.750931125478271	17.87847043166845
O	21.761090841768485	2.120114381340307	18.78513525160407
O	20.071846101554275	1.1252983017807914	22.532269114184395
O	20.518629001605394	-2.446707265376003	16.000648629460308
O	21.29731705743957	1.417914077266436	20.41299607377167
O	21.987742839571627	2.398862346649098	22.296106854226135
O	23.491207795514654	-3.8644765739608244	16.415409278903173
O	23.247152118282756	-1.5675944379039768	17.44785365356258
O	22.215199720532663	-3.963361197005662	16.106489707799103
O	19.414453804360143	-2.656483042538964	16.667964651213225
O	17.64280742566587	-4.801572140051192	17.6295313727382
O	18.802431344240386	-1.7375183861875259	16.262357855113283
O	22.852823024739713	-2.6867848509790972	18.228603804579564
O	18.938317381184653	-2.9286778067005015	17.839462948342128
O	19.12512041656084	-4.387839338507572	19.632779641794894
O	21.373097702941006	-3.964314853513163	17.25925020679784
O	17.12815889055702	-3.414301376357569	19.426829606066246
O	21.320147383651037	1.1987743107146374	21.70407074825951
O	18.245311624828098	-3.7832899875407664	18.521926860262703
