40

O	19.567939633347088	-3.456281729766962	22.226890833428392
O	20.301309550744662	-3.685151487750426	21.160488081534535
O	18.373120412103756	-2.457258336786083	21.440367825198095
O	19.61507890910851	-3.7258788080823253	19.998799388695865
O	18.984252696115924	-2.45505547962277	19.82142150413286
O	18.923952252084792	-1.9275346251278849	18.56805453476004
O	19.2568557390618	-2.391406275628202	17.330833317647503
O	18.984506897466936	-3.724492210665206	17.62749734857976
O	19.29752772753184	-4.370003998695565	18.79966212296214
O	19.703184430212914	-1.7807277616700254	15.855743210898499
O	19.375174000618653	-0.48301098249037233	15.270896873110086
O	19.077804664789966	-2.5996573803698864	14.82453933484573
O	21.28214192714521	-2.0573782349898	15.45232612216373
O	21.276237753720576	-3.414662386292544	15.141784075900812
O	20.682575409718414	-4.601163187198374	15.542801952739877
O	19.389927253419103	-5.220048577615394	15.534982424564795
O	20.72485769115519	-5.0724344381732545	14.00756206342906
O	22.320485674880047	-2.102143533148619	16.39186235344068
O	21.50864168794164	-2.939287040042705	17.32342019978352
O	20.464022549826645	-6.500538804155627	13.729806824329268
O	22.14159071554155	-3.983232404207425	17.646350810942423
O	21.29551024935436	-1.7004373784900497	17.914435823246738
O	22.085841223479154	-2.1282508460522545	19.006743291866513
O	22.76189404376526	-0.9689765795830451	19.24917828068142
O	22.68877953627976	1.183665225075267	19.970838888894118
O	23.94437677979527	-1.144831343590285	19.031379288301626
O	22.58527745212681	0.32982851478036124	18.906070264167557
O	21.33507345758476	0.8043522897436677	20.188148997607566
O	21.282862752647677	1.4652241290678256	21.55843809753638
O	22.187359748733314	0.3283881161207165	22.121495704292197
O	20.980526837223533	-0.5596898357227416	21.90441595048796
O	20.084304896910965	-0.3446488891668025	22.823282071267208
O	20.909727480802264	-0.4531994560825927	20.505963018452512
O	21.29773517201513	-0.345564241383052	17.30778082492572
O	20.55290223584357	2.0133212645876197	17.53917169117872
O	20.294622044563713	2.9418305512272562	18.547252497983305
O	19.26505682328284	2.6116018710013247	19.36169533364837
O	18.670530270667	1.358940642717492	19.213551289603767
O	19.069798869877104	0.6657932670263518	18.12697697799381
O	20.357486713006534	0.6880445770949553	17.729739756333323
