84

O	1.2257926547346938	0.23253357655102064	-1.2249803899893876
O	-1.8066143482653063	0.33732762955102064	-3.1904602999893874
O	0.10503483473469377	1.6156069585510207	-2.2200195899893878
O	0.5683837547346938	-0.9398887414489794	1.3033711600106126
O	1.9206527847346937	1.8097587085510207	-0.30293792798938757
O	-0.7628275392653063	-0.4193988504489794	0.49256145001061236
O	0.14255828473469367	-0.3951504634489794	-2.7991721199893878
O	-0.42211247126530627	0.6815803455510206	-3.0608885399893877
O	3.318930824734694	-3.4315789314489793	-3.376768439989388
O	-1.4781590402653064	-2.279562051448979	-2.214954419989388
O	0.9025520847346936	1.5977938285510207	-1.2089568607893877
O	1.5395494247346937	-0.2368416164489794	2.016709340010612
O	-2.4201276652653063	-0.3861941664489794	-2.1452600199893874
O	-0.20732136126530631	-1.6953090514489793	2.2275368600106122
O	-1.3946385052653063	-1.1978678314489795	-1.5747321839893877
O	2.376109694734694	0.04003182955102064	-1.8379052689893878
O	-3.1175328652653063	0.36846353355102063	-1.1702787592893875
O	-3.3485582952653066	1.6304988185510205	-1.8593188329893877
O	-2.7769207552653064	2.1758880885510203	-2.9231556299893877
O	-4.286134605265306	2.3799944785510205	-1.2573754759893876
O	-3.6109840952653065	2.7839184685510205	-3.8075474699893874
O	-4.649613265265306	3.5563653885510207	-1.8268414969893876
O	-4.6430671752653065	3.5026517285510206	-3.2159623199893876
O	-1.1685513282653064	-1.4728958014489795	-0.24116855198938758
O	-1.6721749642653063	0.48997651855102065	0.5081821200106125
O	-1.2629868612653063	1.8217692885510206	0.6156673800106123
O	1.4606246847346935	-2.075330091448979	0.3728807500106124
O	0.8116444747346937	-2.6786658214489796	-0.6098758979893876
O	1.3899623847346936	-3.0298203214489794	-1.8521654189893875
O	2.6867543147346935	-3.1082214014489793	-2.129715791989388
O	3.3190039347346936	-2.986493921448979	-0.9316449719893876
O	2.7235395347346936	-2.4120319314489795	0.24191581001061246
O	-0.1857464832653063	1.6185100085510207	1.5382006000106125
O	-1.5295515212653061	3.049927488551021	0.02582251001061242
O	2.851450584734694	0.6732970925510207	-0.7139657449893877
O	-1.3182793812653062	-9.013588501448979	9.565381810010614
O	0.5568901647346937	-5.85695251144898	8.644030900010613
O	-0.005536086265306328	-2.4952559514489794	10.28427051001061
O	-0.2812873092653063	-0.19249022144897943	7.477237340010613
O	-0.7504298642653062	3.5617658685510207	7.846998310010613
O	-3.7736872452653065	1.4813066025510206	3.972065060010612
O	-8.959778425265306	-0.0487127694489794	4.638158380010612
O	-8.409566525265307	-3.3145390314489793	6.316916880010613
O	-8.206054355265305	-6.184717691448979	3.8170544300106126
O	-11.580073415265307	-1.2890407414489793	-4.275811469989387
O	-5.6170049552653065	-1.1318840214489794	-7.183983849989388
O	-2.5196247952653064	-0.9653969614489795	-9.368272309989386
O	-10.498852495265306	-5.2065554214489795	-7.858993019989388
O	-6.871357255265306	-10.93808409144898	-3.2539891599893878
O	-4.5819631452653065	-8.88475558144898	-1.1486391957093876
O	-0.9289068784653063	-9.597514091448978	-1.2249141237893877
O	-0.9341450770653063	-9.80264369144898	2.5996958000106125
O	-3.3409757152653063	-9.27320864144898	5.434800270010612
O	-3.3844389752653066	-5.584425391448979	6.169799120010612
O	-4.750374575265306	-3.5137976214489797	8.95646531001061
O	-5.504601765265306	-0.10773835044897939	7.490257310010612
O	-6.5400062852653065	3.1352555585510204	9.211679410010614
O	-5.748612095265306	1.5158442385510207	13.35004501001061
O	3.7760439747346934	12.748095208551021	0.5867519200106124
O	2.1379149047346937	9.93155246855102	2.6238129500106124
O	3.9275043847346938	8.39161255855102	5.596059620010612
O	3.3159750247346933	4.703027198551021	4.877617410010612
O	4.342410974734694	2.0083121185510207	7.402532580010612
O	5.4544266947346935	0.6841877615510206	2.3675690100106124
O	10.321673084734694	1.3722230915510205	-0.1561551739893876
O	9.719241184734694	5.02570039855102	-1.0319107709893875
O	7.9706628547346945	5.706213388551021	-4.326803349989388
O	6.802943354734694	-3.1412142014489794	-7.762275449989388
O	-0.09806121526530631	-4.706845001448979	-5.0895093199893875
O	-3.5860731452653063	-5.54954311144898	-5.164394009989388
O	-4.2093704052653065	-5.296600741448979	-8.885015669989388
O	-0.7179668522653062	-5.884705121448979	-10.084673629989389
O	2.5909168947346934	-4.1384309714489795	-10.717482259989389
O	4.140634264734693	-1.0173843914489793	-12.116965889989388
O	7.534928494734693	-0.28678548344897936	-13.588840189989387
O	3.5316390047346937	6.492527328551021	-12.259483789989389
O	2.147790994734694	6.573260738551021	-8.845455859989388
O	-0.7470302852653062	8.822531228551021	-7.906152149989388
O	0.7150376547346938	9.472707158551021	-4.465017629989388
O	4.163339484734694	10.211345438551021	-3.1543913099893874
O	5.004327124734694	7.557623018551021	-0.6006907459893877
O	7.467150684734694	7.6004637885510204	2.1817992100106123
O	8.234694334734694	4.003541438551021	3.0823575300106123
O	10.007912984734693	2.4237137085510208	5.976464250010612
