38

O	19.276161726121128	-0.9329130733281141	22.39021909777758
O	19.715596072859626	0.1627687584326054	21.540004511477026
O	19.221916023181887	1.4730891631663419	21.26140911083565
O	19.210457387408546	1.9786163415022335	19.87891169739359
O	19.8487747665757	1.3781273029185075	18.8928234638045
O	20.971440563468242	0.8487575893029986	19.46489548887227
O	20.907110080213688	0.25144780777519715	20.785388287370402
O	19.653516240683363	1.2277181076075714	17.218334089979855
O	19.8685697508555	2.6277239608244214	17.155528203183064
O	18.348834517467598	1.200861432366542	16.610291454387305
O	20.45284341272369	-0.10549283612550608	16.82069560720176
O	20.678545154183915	-0.6221362908421482	15.608242889276756
O	21.46043997834018	-1.8245713806955817	15.725756346794094
O	21.312774267411072	-2.8500990424029116	14.740932416912324
O	22.693946880724475	-1.4607022401922731	16.380358717714177
O	21.15849268750762	-0.7524897315059759	17.813314866891222
O	20.811560405927143	-2.0406051402369747	18.13872504275073
O	20.92731569678804	-3.2766153461390597	17.672053037214077
O	19.825342735432407	-2.0889906714401016	19.095820507015166
O	18.906639160845153	-3.0316178505933165	18.757629248176016
O	18.8241160713456	-3.4674378358921363	17.47047028533094
O	18.72387084940406	-4.640718467504551	17.634098103426123
O	18.8857054644187	-3.6975590434920145	16.139609394602726
O	18.102655668383935	-3.0501404592921064	15.27621412956066
O	18.24256163598626	-1.619227399089345	15.258017113612343
O	17.983660356673916	-1.6662445409378337	16.654842287748988
O	16.733749118758332	-1.5771352180598996	16.369122151647137
O	16.056863964825713	-1.4088836869242238	17.47802962233171
O	15.644934949270388	-2.6030012951603907	17.964190273528764
O	16.732759937330325	-3.3991525120700894	17.454426757605113
O	16.778268209507534	-3.142935166872792	16.075063764699635
O	19.014694992909845	-0.9559476805332429	18.464833304629316
O	17.720913051744542	-2.124175630850164	20.148670229388955
O	16.71788858677408	-2.277328644777225	21.015833088517894
O	16.43236091474023	-1.0889291646622445	21.626025893246922
O	16.5770299802283	0.03058823818423928	20.875672380818237
O	17.070745169301777	-0.06419241642215012	19.605212118593425
O	18.018105269149423	-0.9738835423061067	19.452416059280285
