46

O	21.475024350845516	1.4939951743632627	23.141451052322754
O	21.29050656991208	1.3720694145504344	20.378479483314628
O	23.119127457294844	2.723358713842714	20.287630722370857
O	20.226373945064253	0.8657452121952194	21.152194062946513
O	22.32273067569146	2.4590658992201693	22.432559618398905
O	22.06483962167629	0.8306790135887081	18.028709434069093
O	22.273654758873448	2.1953765040203477	21.033595295576596
O	20.173479861223893	-0.15041328883499516	18.478199673702917
O	22.731703019423655	-1.491246236112075	19.401473892264665
O	20.32360072164578	-4.084763470391197	16.01020673836644
O	22.23184988951689	-3.07638079244614	17.525218538521848
O	23.398631232227075	-1.2835055288554722	16.54971928960876
O	20.968752376961273	-4.978611298193494	15.157590466318966
O	20.63328694243132	-3.890667780346882	18.6914264216964
O	20.4125517593127	-6.204316497663152	14.946573306332569
O	19.462940765349273	-6.516300654327321	15.855511331368204
O	18.671725657152148	-5.5256198698745855	16.438063084136818
O	19.006332281163395	-4.294822291289103	16.03740437398653
O	20.79071185720636	2.106378561622895	19.27056908289596
O	21.006871338347615	0.8542655678409805	18.56208996412805
O	20.313928180873376	-1.0827027233650117	17.345985272182816
O	19.43712194835333	2.3422710040181096	18.74651164035776
O	19.244349241382825	1.8040711974510064	17.308879818711976
O	18.694786130012712	1.28288015559982	19.41281035268734
O	17.53049229290005	-3.6627889769003907	19.022404606539467
O	17.912170379108954	-3.2758662850292515	20.290639318244224
O	18.278737774661444	-1.9710920252509914	20.5991273859591
O	18.749274243845086	-1.4234047356238928	19.47045958029305
O	18.58306419710984	-1.7965607282302163	18.20142111836849
O	17.696091306207215	-2.741859078225512	18.048153223135607
O	18.94815815593234	-1.1841470925663633	16.917238785255723
O	21.339275539173574	-0.6177708099249866	16.648025185989273
O	22.153472282980864	-1.4794101657711312	15.914594278551766
O	21.77017722779839	-2.812884535467864	16.312585286905126
O	21.56078803284296	-3.119122864906093	18.692420321039243
O	21.71819759345182	-2.2465392874678294	19.828159728072865
O	23.54326454747143	-0.7579250068279533	20.117952710160175
O	20.589306512077464	-2.708342622418222	15.597874242722359
O	23.327370530811066	-0.9332473658575458	21.53925535337595
O	24.190589402708525	-0.2022439963939604	22.364211169910504
O	24.871622450370893	0.6627876325697157	21.45738358521433
O	25.71967726682744	-0.17951959131879658	20.70452510632669
O	24.873088949901355	-0.6450126852513463	19.67776078373412
O	25.35882347712331	-1.7457636920451445	18.867207075727027
O	22.00836894571608	-1.4193643977388934	21.89678943656797
O	20.136180104099793	1.6042777944881268	22.403707557530605
