56

O	19.925588756808814	0.48099069466424926	17.77366283714381
O	22.300464355035672	-1.8294544489672284	18.41698009221858
O	20.093125476213125	-2.8038860445404166	16.27461812369111
O	22.086808127535708	-4.627551392800959	13.17006511819973
O	20.27351198659265	-6.113355516731224	15.58959964178111
O	20.037751330526213	-0.22435479127849978	20.07751571427338
O	20.554324280089226	0.8910123669947116	20.32936975756507
O	19.35311361225938	-2.4775025868714806	14.833079378293291
O	20.675988195248273	1.65159091572416	18.14661038518019
O	23.331815222286583	-1.138164390790696	18.075440972082916
O	18.853576493844525	-2.2279783377208284	16.764381472867374
O	21.011540728807365	-5.199353432676462	12.42446767258822
O	21.274514547805847	-5.64277325356418	16.579946803228726
O	20.005371469496485	-0.8697304082177248	15.290849219502768
O	18.916143033264408	-2.4853091663872973	18.07695007384406
O	23.634526092021797	-0.4783627185257531	19.30589591779702
O	21.986668308928706	1.6324223129173363	18.730406019279812
O	24.381531596189923	-1.3736884105576932	17.333160559505068
O	19.840075555365548	-4.479449257329414	12.85826727842432
O	20.329154917284356	-5.111592505371863	17.350199272755948
O	20.82231521406838	1.6860984236542536	16.71685690236001
O	22.933699125855416	-1.0425935804626825	20.36661120764588
O	18.520382146469846	-3.0462513988045705	19.30040214704725
O	18.640219038473404	-5.058767873362485	13.382909473992916
O	19.125341621564658	-5.053771783426129	16.636224722113035
O	18.9335830500861	-3.2440010222589515	20.605038034229175
O	17.680361552799077	-4.629159406762367	14.27620700756313
O	17.968702688515872	-5.321083742904901	17.26651266095522
O	18.516532852511542	-6.237031794310255	13.095357496634293
O	21.623636888093653	-1.307818936463553	15.245338017766793
O	18.156005267228423	-6.199705462670847	18.141894362563967
O	19.96229696084064	-0.8233813581296674	21.375886897401113
O	18.38150523650268	-6.079745761946715	19.505461884073135
O	18.689313219361257	-7.4581069109963565	17.658310404020952
O	22.44452862609898	-2.3677755804674514	15.368143963376834
O	22.901306175942313	-3.426264672113237	16.08873720275237
O	23.56140523337735	-4.182962733627839	16.98090011073731
O	21.169278203902223	-0.19622814024524904	17.651916671194087
O	19.543625557897087	-0.3034212746789293	18.76891963626577
O	22.14878428639135	0.13537425078229082	17.0999640372749
O	21.12868863031891	-2.5543276387286005	18.11307200810598
O	21.488318725200834	-0.8090017778792051	18.802732491838462
O	21.261266602154933	-3.378374833838347	18.910341802908043
O	22.16662828845363	-2.715884164632665	14.05871966000461
O	21.02216372709272	-2.244181033133452	16.972571662815387
O	21.286158442839895	-2.212926075970842	13.379667966532397
O	21.874462300302383	-5.307770687743422	14.351075155424516
O	21.45241444660556	-3.729787666587028	14.160405766693172
O	22.620702573552496	-6.136586213636807	14.800350792692472
O	20.603216024090546	-7.323180581987619	14.889782314917515
O	20.644177258608295	-5.091157225478677	14.903041692995307
O	20.894631689025005	-7.584270490091275	13.71819456465766
O	21.249600558899658	-8.039235414913112	15.832354485985313
O	23.815420824562725	-4.415593077759935	18.315839248149587
O	20.453201314855335	-2.1555451020742296	15.322425438082911
O	24.359960600922342	-3.7471783265594594	19.486640132464856
