52

O	20.335607897670638	-4.0705790663188335	14.192298333229655
O	20.79111189878475	-5.3342008162291705	14.219840109409107
O	17.82529416998789	-3.0176759450548802	14.466531058543827
O	18.31084903495203	-0.6721076351283328	18.927555629595368
O	18.871221130687577	1.087545693314448	17.214764531121208
O	17.62292459845765	-1.1899971386219477	17.43261008258358
O	18.997621529999073	-5.143768442985962	18.17806164979301
O	18.513525385689576	-4.102111355205075	18.895643302558174
O	20.511693836588986	-3.6782339470973167	17.66522563943216
O	22.12973290614645	-4.109854528993856	18.493307283420325
O	21.12103854829085	-3.6904346088987436	16.556860471159407
O	22.797601255920306	-3.9006622367086172	17.298001003259575
O	19.14122302481566	-5.232436448671219	16.854216391931274
O	20.397089973891084	-6.492543304443756	14.91855814509034
O	21.274550409819504	-7.296035335139625	15.175251279475978
O	19.142862304938106	-0.9831236258988856	15.48084350604338
O	20.92308976182367	0.8119469029634749	16.817381122324605
O	20.809172810018175	-1.986658042549207	13.52631441429306
O	22.647121332206662	-3.4628978662195093	13.113614263498029
O	21.57566682252705	1.457496322221779	21.7665718622411
O	21.053617006718138	-5.2897947271193075	12.780016288759422
O	21.87884614578178	-2.1853760227983736	15.817501798886232
O	19.705041751726387	-3.6017210676666886	19.544505178864327
O	22.27068551172835	-1.0097773268789085	15.109079442698413
O	23.126227293212594	-2.733102008841265	15.403334516703303
O	23.650421443079615	-1.613639647423752	17.17499086290623
O	22.5498526333079	-4.693283828249875	15.09604740666923
O	19.02834523844714	-2.0707840924383785	16.01162056608949
O	20.70962620018815	-0.35266153268435163	16.579645936236695
O	21.053481827448433	-2.979095051688698	14.3439006098302
O	20.895094645431485	-3.9322194930360532	18.83243287559924
O	22.10797844172428	-4.47183094150027	16.39447076281701
O	19.938625951576608	-0.8785094498812984	17.70736573948949
O	18.745002799738472	-0.21218405547672226	17.52762128477869
O	19.578753360338972	-5.933178273246407	15.828237202182573
O	19.531565046336056	-2.0568623571533906	17.303637430448006
O	21.896937674840153	-0.7439001228938924	17.119662537776712
O	22.981848641579735	-0.7341399557068713	16.31187766126361
O	18.1723033859316	-3.161764641153226	15.80380450560957
O	19.66501258812703	-5.639062337522242	12.411037902850008
O	21.53502912613027	-6.665023211001722	12.688766044080506
O	21.391546186433423	0.12612924163074268	19.774935238212937
O	20.130918939915055	0.5101254412735261	21.177816627708076
O	22.461657864281094	-1.7880572067879448	19.62273719369602
O	23.21288735304946	-1.5486761821421215	18.639534419382453
O	21.257505223544438	-1.1701205987148928	19.680440226122997
O	21.746873907810063	2.592016910059459	20.282300224722253
O	23.29740292114005	-0.22862590716620712	18.818845809665387
O	22.370763082296946	0.6795842741782314	19.147990683878895
O	20.295002470364455	0.9933853348830972	19.694899667589482
O	20.438065111847294	2.2987632858931604	19.781632565047826
O	22.428557852456123	-3.417039929793446	14.392965193499201
