82

O	1.6568642845454546	0.7736045115681821	5.261018768113637
O	0.6077291345454545	0.2594208405681821	4.394222338113637
O	0.01828435554545449	-0.9666533414318178	4.405668888113637
O	-0.47927960645454554	-1.5271411214318178	3.1864291481136364
O	-0.6061345967545455	-1.0210772914318178	1.9704679781136365
O	-0.6917369804545456	0.29178741056818214	2.2340508581136365
O	-0.04332786645454556	0.9313626545681821	3.347787098113636
O	-0.5913385406345455	-1.821034491431818	0.39688770911363647
O	-0.16520663245454553	-3.1967541514318176	0.32701030711363643
O	-1.9219850254545454	-2.080813491431818	-0.21154630988636353
O	-0.23653543545454553	-0.736117301431818	-0.8206093188863635
O	-0.9556387734545455	0.3015538501681821	-0.10424456788636355
O	-0.45716269645454555	1.4986880185681821	-0.5740780510863636
O	-0.26710897345454554	1.405210608568182	-2.0877350418863636
O	0.8364908445454544	1.937173258568182	-0.23931862588636355
O	0.8533627145454545	-0.1450750224318179	-1.2977513858863636
O	1.8601319545454544	-0.3822417284318179	-2.1834619218863636
O	2.931296504545455	0.30597993666818213	-2.3082995118863634
O	1.7723253045454543	-1.8507143114318176	-2.4804075618863637
O	3.0097132845454544	-2.079316721431818	-2.1908798218863637
O	3.1951758945454545	-2.004540701431818	-0.7354864548863635
O	2.5433400045454544	-2.941501241431818	-0.25442266788636353
O	2.9969970945454545	-0.815765511431818	-0.019273533886363547
O	2.2488550045454545	-0.7883220314318179	1.0754098281136364
O	2.183314594545455	0.5762089685681822	1.4680026181136365
O	3.1182889845454547	0.563854977568182	2.4726284981136364
O	2.6888982845454548	-0.7104901494318179	2.6941967081136364
O	3.0882138345454546	-1.3941669314318177	3.7613744381136365
O	2.5812624245454545	-2.6411381814318178	3.5993230481136362
O	2.1219907745454547	-2.819837441431818	2.218683048113636
O	3.1251979045454545	-1.7325196714318176	1.7504549581136364
O	0.3322339055454545	-1.997001921431818	-2.5164003918863638
O	0.4030892035454545	-2.4968293914318176	-4.6676815018863635
O	0.6456712145454544	-2.313999901431818	-5.991705071886363
O	1.8845695345454543	-1.6803196314318178	-6.121409531886363
O	1.8492264145454544	-0.45416471843181794	-5.514652291886363
O	1.2574785545454545	-0.43289213443181784	-4.315352661886363
O	0.38756323554545447	-1.386499511431818	-3.9024162218863636
O	-3.2975020354545457	-11.931491171431817	-4.1338848318863635
O	-4.529772265454546	-8.362722401431817	-4.165142921886363
O	-7.627514715454546	-7.110183301431817	-2.4500503718863635
O	-6.4034465154545455	-4.108341291431818	-0.7610035428863635
O	-8.746791685454546	-1.9570450814318177	1.3967354881136367
O	-3.9468567254545457	-2.863923611431818	3.3913368681136364
O	-3.213895785454546	-6.772300061431817	7.564741208113636
O	-2.8212179654545455	-9.649077711431818	5.213977888113637
O	0.8246329545454545	-10.113898071431818	4.126693838113637
O	5.252934364545454	-3.899071941431818	10.723102388113636
O	6.848593044545455	0.43852221256818213	5.935717608113637
O	8.167176004545455	3.1807681985681824	3.7314502481136365
O	9.166983754545454	-9.048261991431819	2.1364330281136366
O	6.056836364545454	-7.729570951431818	0.6300854581136365
O	6.138082044545454	-6.528701761431818	-2.8909515518863635
O	2.9902831045454548	-8.765650061431817	-3.5352100418863635
O	0.5304170045454544	-10.894103371431818	-1.7729908118863635
O	-2.1051064954545455	-8.754137311431817	-0.18243564288636355
O	-5.323025105454546	-9.387957991431819	1.4497816781136366
O	-6.013395835454546	-6.757068071431818	3.9457702181136365
O	-8.375434605454545	10.453412828568183	3.3167339681136365
O	-8.308005805454545	6.630000698568182	2.9887618581136364
O	-10.083181255454546	4.829504488568182	0.1859384471136365
O	-7.465943065454546	2.414399578568182	-1.0463929068863635
O	-8.109740755454546	-0.26864823143181793	-3.6327314718863635
O	-3.295980785454545	2.109855818568182	-4.100205611886364
O	-2.3753211554545457	6.590482028568182	-7.485577581886363
O	-3.603148205454546	9.136714968568182	-5.084328931886363
O	9.574007524545454	7.983730068568182	-6.851148671886363
O	6.952370634545455	5.760728088568182	-5.388597091886363
O	6.600617794545454	-0.44802295043181795	-1.2879283938863635
O	7.588183564545455	-2.7366320414318177	1.6616128381136361
O	10.321271224545454	-0.8110170614318178	3.0902950481136364
O	11.297552124545454	1.1081405665681823	0.04173593011363641
O	10.574548824545454	4.346674378568182	-1.8369150118863637
O	9.828758524545455	8.012629728568182	-1.2737041828863636
O	10.136290824545455	11.065094828568181	-3.4658993518863634
O	3.143127094545455	10.429536628568183	3.3862817281136364
O	1.5232945445454547	9.917934548568182	6.733395788113636
O	-1.9434854454545456	9.504357698568182	5.265901758113637
O	-4.617272565454546	8.076797598568183	0.04400064011363647
O	-7.3240149854545455	7.908572758568182	-2.5639889818863635
O	-6.082758505454546	5.344393128568182	-5.110487731886363
O	-7.903149055454546	3.6555755985681824	-7.940908281886363
