59

O	22.460152181102448	-0.13161348539740647	19.945685494797708
O	21.076595315404518	1.8046057857360978	18.55559688878434
O	22.00585941158298	-4.328895037826997	15.193087275981448
O	23.180668017360553	-0.9846561047124411	19.059806185378044
O	21.36806242098867	-1.5120727422983191	16.168600491324284
O	19.45188456452116	-3.677650009436598	17.159470512031884
O	22.140148269164293	0.9915445907739036	19.2435896185406
O	23.230348721436464	1.4197161926297703	19.01698370845959
O	24.399445484881728	-0.36456262236278636	19.23659258330032
O	21.343650884983926	-5.132247576400715	14.075901621778783
O	20.454453339445735	-1.117208232729521	15.297096652439658
O	22.0418820952264	-2.938723627507491	14.689606547082105
O	18.46055162637898	-4.542838016722426	16.997211326312726
O	21.110298839221525	-2.5371507486599407	13.822815739890691
O	24.836908990602748	-0.13457637976403625	20.624287083649968
O	19.61712316451344	-0.911193333022853	16.482490231473374
O	20.78089409536394	-6.3343520210794075	14.841392352053088
O	18.01346998710493	-4.936197020840076	15.681318190972053
O	20.07325417078586	-4.446390116630867	13.930953262502072
O	17.36920452545604	-3.7907601434466507	17.593217997685986
O	19.744311510902158	-3.2839787879162543	18.414323652891838
O	19.104569235871203	0.40548561585863996	16.627428560416156
O	16.90747299901498	-4.31142877064705	14.966402790187988
O	25.37072460979511	0.9010168638695297	21.326037316198715
O	18.618720968172724	-1.608046053478958	15.652170079951553
O	25.883215008438597	-0.9499598790316375	20.878106223983078
O	26.46795467699858	-0.6635284323487323	22.074930736462377
O	18.235378544250974	0.38589202352185303	17.81161693492327
O	17.46448294423685	-1.4223051809353047	16.49547137581744
O	25.73208164009801	0.3474076812744642	22.525525906567662
O	17.669659432868357	-0.8974700908991382	17.87114243943728
O	22.491294000562185	-2.2209742452522905	15.822886556236622
O	23.522047615043682	-1.9085102381001204	16.532279999387317
O	21.28810463429653	-3.233445210968574	20.286995855184898
O	20.202631887642074	0.7083161219886784	20.464419347291432
O	21.161922618859517	0.9022514927951641	21.357570939836922
O	21.824712739928174	-0.32640687771331667	16.93783859239778
O	20.114490955270156	1.5726521094937798	19.434398773924094
O	19.599337809345407	-0.4757982727331638	20.515397298658943
O	20.180254519228477	-4.0229873858531855	16.1234861472128
O	20.997204908209525	-0.8629539748918349	18.37207487132343
O	19.331541335236	-1.105605678266356	21.664072663733418
O	20.958192677445847	-3.1831802182264672	18.979876897211597
O	22.172691974406508	-3.860528747675713	17.26045158783766
O	19.870408690806148	-0.5483515634256395	22.78672084256042
O	20.86986842535569	0.35729189756590074	22.595328106501654
O	18.80573738832357	-2.748342674537327	18.949141742774092
O	21.741265600981023	0.6174226471260928	23.591159199076763
O	22.837829829559006	1.3437979575562509	23.321239093647407
O	22.783338877125814	2.2327488293551294	22.321051100871216
O	21.66064634399016	2.190521855297926	21.54219120265912
O	22.140629164963062	-1.0206953285640084	18.02824978706184
O	23.77431544768396	-3.2038701674328562	20.61508060353549
O	22.516793105638406	-2.8835524282788203	20.923529011122042
O	22.51076000954773	-2.1272435441124564	22.035808036227525
O	23.477314606227523	-1.9609528741743687	22.98170303592449
O	24.43209607663642	-2.9142241713062456	22.918116957248742
O	24.687358335587582	-3.3056407377073143	21.62958649593626
O	21.3392215084757	-3.8252218068478117	16.374444218824806
