45

O	22.00078388197964	-0.23725332301591306	18.219612842360142
O	24.199840280783437	-0.9705286801329802	18.74304094391826
O	22.728742183434967	0.3461244115102624	19.30902434110038
O	21.642569021096534	0.6089907513970356	20.202739950873504
O	21.17367610048712	1.651111876200543	20.922456637159595
O	20.560773861621655	1.3618458432778096	22.122235809431675
O	23.35658331865034	-0.8929495125346105	19.78020522727377
O	21.14398826758298	-0.6334500638661187	20.34190168976576
O	19.99676979119435	-0.6744577208873408	21.131644877137504
O	19.753171631471286	0.2638297928672384	22.053124107529356
O	22.350699435921957	-1.566035825875121	20.4534928763197
O	22.93130862980206	-3.502147968596904	17.78133581843922
O	23.731439626626717	-3.072342043972623	16.949432005057265
O	22.56232841643759	-4.889637891742149	17.348632508693406
O	21.388328731107254	-4.509634715596732	16.73157200184639
O	21.00727365453031	-5.1323483247383415	15.584282739997676
O	19.89851607199594	-5.817735387520505	16.086891900777783
O	18.809377518318072	-5.192497001499708	16.793879742896507
O	19.63134113002846	-7.1371341389361245	15.638631476464607
O	20.270937161083697	-7.28443867466264	14.359059293595587
O	21.607572733123156	-7.400917172876092	14.775631655705638
O	21.93470721437187	-6.058196914459886	15.10362239653403
O	23.264368060107753	-5.551814425375822	15.177718189260615
O	19.767024443175757	-1.4305355683687844	15.224417892879082
O	20.78756330038237	-0.5158591550203262	15.63526807373029
O	20.820358975699435	1.534921493830062	18.54841715891385
O	18.416716020638994	-0.686776909360159	16.143691870830256
O	19.192007044767813	0.44009583093222937	17.117192340472606
O	18.904760734023334	0.44200125858883643	18.504082211658517
O	19.23304484523848	1.9062056853694291	17.160016748894165
O	20.495408648187038	0.46819266495551215	16.500627524166756
O	21.215656223209088	0.6940855855982515	17.72851702414409
O	21.074753583574477	-2.723087211704284	16.649894114780697
O	21.8360579358767	-2.770219370599239	17.923977106766532
O	21.45292971331925	-2.666156645243845	14.410638269790997
O	19.977682084403487	-2.2891943306615268	17.11940151139622
O	22.997759449335376	-0.5696760505354009	15.983957443311533
O	19.58515898186812	-2.6015288643583796	18.467515500350896
O	20.243398747400114	-3.4608321968245406	19.211718923773308
O	19.787976231667955	-3.762841318051756	20.42856648245325
O	18.45671779109586	-3.575332076418037	20.678241335103273
O	17.701145316193948	-3.5690313056643723	19.50996712637836
O	18.2552205852138	-2.6821257435362016	18.640549192073955
O	22.04974413567723	-2.4534771973974037	15.582646198551357
O	21.958037041570318	-1.191327007155722	16.143987015036934
