54

O	20.318084965621516	-4.450435790487316	14.685538609779108
O	19.12074980481161	-4.390645753446245	14.589706483841075
O	21.047418758734214	-4.434621820690122	15.879610618287483
O	21.998768724369768	-3.8020607804274933	14.981454057587936
O	22.522404177892447	-4.974790036454637	14.425564624786562
O	21.222312466225677	-4.757680519760009	13.721816600866976
O	20.776132899772048	-5.623658775093096	12.631867453064494
O	20.819087811697763	-6.7011024490045585	13.612335548259974
O	22.121970767469875	-6.888386759148816	13.783750335282143
O	22.71218818757504	-6.853208221061127	12.35867099514057
O	22.111548551988815	-5.679817991022672	12.06209017452932
O	22.241357226367676	-4.416474055232634	11.543370727744621
O	22.596911691629284	-7.88405755252197	14.545271829593144
O	21.77676376842084	-8.41589587006866	15.456407843010961
O	20.47598484152903	-8.553480736130854	15.163791096718146
O	20.0475836423456	-7.6368054396145935	14.263543784038923
O	21.84020843560175	-2.8201311790203576	14.079666130291844
O	23.037992058536126	-4.697901265306638	16.859236285234203
O	23.564575075541573	-3.5513627810038972	16.13851346347083
O	21.96725713079922	-5.370702838710653	16.679977364645797
O	20.42676899446375	-5.585040817979609	16.386884198781324
O	19.694248281952728	-4.786596871307567	17.319737228810432
O	18.51762269527409	-4.292246831152253	17.203326141637106
O	17.778332355284373	-4.197235993715938	18.38044804204088
O	18.46826805444657	-3.662872443371972	19.456609356291143
O	19.643625712310897	-4.226129520649696	19.600250937840407
O	20.223699335043907	-4.832017379998624	18.531861259535845
O	21.72126717012472	-1.0592195097273769	20.866916710196385
O	22.4752118395514	-1.9385922575814736	20.126152466080228
O	22.199898774344287	-3.1187287206796093	19.723006562350957
O	23.187541777189463	-3.8065976898484957	19.135666503058335
O	23.882639644765504	-3.1500584686053275	18.309354239927412
O	24.247279383899233	-1.9236772000339832	18.74757061907892
O	23.533043185456492	-1.3380901681041562	19.65946094587739
O	24.51424485243674	-2.9070392505878453	17.001829797996912
O	23.696806456589226	-2.209910947055345	16.184937278931994
O	22.959712613822216	-1.4152546965074575	16.968829601564007
O	21.61158999330754	-1.4206951467244	16.800016353534943
O	20.402945075495015	-1.6911420272737219	17.519655653132485
O	20.304383329460403	-0.8079886093685666	18.571869546969054
O	20.961661678727737	0.4034624539860143	18.34871042381404
O	20.543562845448605	1.4258984906674061	19.211182591482736
O	21.296776333943114	2.5822338489537238	19.204843999994562
O	22.107449202362247	0.4493191614323473	18.102703606318777
O	19.429975240117894	-1.1456503795332684	16.559413250342804
O	19.924172682462004	0.25578995593748544	16.476181823700244
O	19.62118603256316	-1.7276151552291017	15.400286277356576
O	18.307671267870116	-1.1025234218999427	17.46692079837991
O	21.42879236313195	-2.5154545908712445	17.24908193657523
O	20.449018160309034	-1.4062880359418501	21.031772059745037
O	19.689355913222023	-0.4372304657073398	21.594747824301955
O	20.364464221828253	0.37578943988459623	22.502390866320184
O	21.490004226140844	0.9562350020153054	22.046907758141106
O	22.235269170330238	0.11234032283270956	21.29919575455193
