80

O	5.820808849453191	-2.988259677134043	1.8368364743446803
O	4.718212489453191	-3.900114317134043	2.0764667343446805
O	-0.3244216235468091	0.11273771286595718	2.5709687643446806
O	0.19235826345319096	-1.2272855881340428	4.31971229434468
O	-1.1308978205468092	-2.151883677134043	-0.23191171165531957
O	-0.14547352854680912	-1.4790630071340427	0.5716835943446804
O	0.1751364354531909	-3.478743257134043	-1.6398401056553196
O	-0.6559994184468091	-3.562999377134043	-0.5693151996553196
O	2.443460029453191	-1.3433287791340427	1.5132225743446803
O	1.0008809494531907	-3.355258837134043	0.7713527723446804
O	-2.119624930546809	-2.3683289471340427	0.8335179803446804
O	-1.760308750546809	-2.645657317134043	2.2054344043446807
O	4.217419069453191	-0.7820581091340428	-0.2647038476553196
O	1.7613580794531911	0.2908837758659572	0.4628223943446804
O	-2.642550640546809	-1.8749235671340427	2.9719472043446804
O	-2.964443370546809	-2.140602267134043	4.252015394344681
O	-2.4978745705468093	-3.289275337134043	4.79470416434468
O	-1.478211464546809	-3.9256456971340428	4.15131738434468
O	5.430168819453191	-2.5940688771340428	-0.7618298496553196
O	-1.323679294546809	-3.742382547134043	2.8385435443446805
O	5.024018369453191	-1.8965753671340426	1.4673000143446804
O	1.4069784994531909	-1.7760050871340427	2.3627679843446807
O	0.459653939453191	-2.4559226771340428	1.4908913843446805
O	0.7390291694531909	-0.7219271961340428	3.0506250643446804
O	3.9393238294531914	-4.119986857134043	0.9453853893446804
O	3.358799059453191	-5.369904277134043	1.1182308763446804
O	2.777848899453191	-5.555078827134042	2.3638666643446804
O	2.772943209453191	-4.532346017134042	3.2154546343446806
O	3.879033309453191	-3.694591917134043	3.1163741243446808
O	2.932080739453191	-1.1468134601340427	-0.8879533056553197
O	1.977961469453191	-0.9321180831340428	0.17355886494468042
O	2.973727079453191	-2.3047186371340427	-1.7755881856553195
O	4.686747779453191	-2.0995740271340426	0.10717399984468041
O	-5.018702320546809	2.5225673728659572	-5.15199250565532
O	-4.089178650546809	-0.35747642383404277	-7.40954487565532
O	-0.3554980325468091	0.36247290886595723	-3.7094281556553192
O	3.922568309453191	3.6822604228659572	-4.32010139565532
O	2.314397149453191	7.051403292865958	-3.9745643856553197
O	2.195885389453191	8.199386322865957	-0.31284641265531954
O	12.81065043945319	5.3608910528659575	3.224708654344681
O	11.26939693945319	2.517725232865957	5.16422886434468
O	8.129371609453191	1.2463371928659572	3.715326064344681
O	3.404707469453191	-1.7167614671340428	6.88193214434468
O	1.095499709453191	-3.740101467134043	8.981755164344682
O	3.0462290394531912	-5.370594837134043	11.603921994344681
O	6.304025219453191	-3.811405517134043	10.553563694344682
O	8.11310747945319	-1.0701747251340428	8.66279009434468
O	7.379209339453191	2.640450882865957	8.73451053434468
O	9.57901773945319	5.669357872865958	8.02423081434468
O	8.59222144945319	7.933246372865957	5.20456628434468
O	4.509920759453191	10.033888752865957	5.84846774434468
O	1.8490784994531908	8.703717712865958	8.256261654344682
O	-0.5943748095468091	7.289532482865957	5.8175873243446805
O	-4.25351884054681	6.659652272865958	6.67263896434468
O	-5.153585220546809	8.439172042865957	3.4848337243446807
O	-3.396451610546809	10.077331652865958	0.5403704893446805
O	-2.793396960546809	7.2476641528659576	-1.9209191856553198
O	-1.890021540546809	7.348815742865957	-5.6042156256553195
O	-0.12170650754680912	4.058989482865957	-6.2754277156553195
O	0.8929351194531908	2.231165162865957	-9.44139611565532
O	4.048587149453191	4.235378902865958	-10.00301700565532
O	1.883573709453191	7.206408372865957	-11.00412210565532
O	-0.5351803968468091	-1.8939148971340427	-13.499144905655319
O	0.7191690294531908	-5.899820857134043	-9.12836173565532
O	-2.780314490546809	-6.7107368771340425	-10.642722905655319
O	-2.743173920546809	-10.371843327134043	-9.601016065655319
O	-5.425797040546809	-12.682868147134043	-10.96835630565532
O	-4.832356630546809	-8.763822757134042	-5.98653903565532
O	-7.513550010546809	-6.516233617134042	-7.44695747565532
O	-7.202928420546809	-3.598168687134043	-4.96902562565532
O	-9.32936785054681	-1.6814854671340427	-0.2753464736553196
O	-11.67222046054681	-8.189893117134043	0.8354755713446804
O	-3.331180450546809	0.8274053528659573	7.61230894434468
O	0.1156646254531909	2.2940247028659573	7.51726703434468
O	1.7268891394531911	0.5360226568659572	10.335537094344682
O	-2.448078510546809	-11.250703347134042	5.63425674434468
O	0.27071409345319086	-12.196647947134043	3.2716441943446806
O	-1.7702228705468093	-11.421009947134042	0.12146218314468041
O	-6.888172170546809	-8.825251727134042	-1.5213760156553195
O	-10.03384169054681	-8.306353217134044	-3.5332239456553194
