45

O	24.84995831276782	-2.334763709015819	23.271779388443687
O	25.934737396242692	-0.42458253272769797	20.047910946066686
O	18.22857974841223	-4.136544520651441	15.6155339840697
O	20.12953632430697	-4.43207816792242	14.1855472085621
O	18.150265901029307	1.7002003923440545	18.46269466128462
O	19.37054649407441	1.8534810518255476	17.869959549860777
O	17.620184921084093	0.4550730777488676	18.706271228048315
O	19.92125605803271	0.6716281063571563	17.751568341838496
O	18.10206745302105	-0.5181284110914612	17.830754056647617
O	23.49898077030024	-0.04194195839607495	17.90415193142121
O	23.28078392098671	-2.1900233087490917	18.14221010791699
O	22.326944591358178	-0.05116705259175669	17.2583009578885
O	22.721843177697448	-2.2164549806216236	16.86420101810793
O	23.41487142851633	0.3481201862646095	21.32558750674859
O	22.577978284099608	2.017740130492765	20.049767717987677
O	19.735640955748025	1.4925863659509921	21.02608130586516
O	19.582555187615096	-1.9001461954218688	17.551571317041333
O	18.937290023240713	-2.2186102896953908	15.038969436265607
O	20.795815751361474	-3.4056890055512783	16.07418901443575
O	22.79455350409165	-0.3451967720536271	23.376404255626696
O	18.88557144943399	-1.9072572124262577	20.427284275268732
O	21.479146336553566	-2.0325600844891802	14.142221126244689
O	20.346070142314996	0.005568564096424478	15.081274998353736
O	20.713352580621393	-5.1327416415944125	17.06471190301702
O	23.6605830745849	-0.4743090129477989	22.508909569860897
O	20.103813665170723	-1.7465449571456038	20.31998537120239
O	19.466606872758625	-0.5998957142851548	18.103987818308724
O	23.983283660873564	-1.1360900247579293	18.562553661642177
O	22.219866770432684	-1.0924072713105042	16.440648675267944
O	19.017399741643107	-3.577793388571081	14.488720733444714
O	20.807468730670312	-3.8780470398789655	17.44023107376663
O	19.999992905275377	-3.0532454011805648	18.260513273326694
O	21.78640427127977	0.7860663852878413	20.184747824798865
O	20.300517795740078	0.2902185902029697	21.559315009837885
O	21.387696855775026	2.558229448516566	21.6342323615184
O	21.65233393730775	1.0473628507388109	21.846360622127083
O	23.91192479350326	-1.8656037106179182	22.187643073710912
O	20.707095326450563	-2.48957423922295	19.328336911711144
O	19.935168446788467	-2.334280989690458	15.905521000600414
O	25.00294772273326	-1.2509456336304263	19.450431090376792
O	22.409557367984355	-0.3671655649120902	20.654949033460408
O	21.348693072959314	2.6187206371859073	20.226898697995498
O	20.079995561348586	2.3546936865272183	22.021535587874304
O	20.323693990086802	-0.41786107552169516	20.394535810354245
O	21.048883056875567	-1.2157022932601027	15.243274070344327
