38

O	20.505846894913148	-7.212082562071211	16.43133399662729
O	20.36550813515789	-5.879214169238906	15.96349730657503
O	19.33630616722308	-5.006478638278757	16.18912540780785
O	19.450205518478977	-3.7519322882156176	15.665161416516048
O	20.586105110504555	-3.335194025672748	15.126107780097104
O	21.078954335204468	-4.2670275690123765	14.297215391244789
O	21.03299954767419	-5.590265810144297	14.775565558716368
O	20.703436219199936	-1.7173060998408625	14.70322090020103
O	21.878545139687184	-1.5061025185349697	13.969689599844248
O	19.52981418844081	-1.2578803638816776	14.124247513649063
O	20.966790114166116	-0.9286912225399702	16.178558907867714
O	20.063371673009645	0.03174435209524007	16.16469117627245
O	18.745393455442763	-0.5232898225683356	16.091884455547564
O	17.900543467622686	-1.633814676354391	16.144193953946953
O	18.24846655611316	0.3085986815597421	17.289232238072117
O	21.990980063398897	-1.68622664063398	16.57202129318618
O	21.437834637971346	-2.800750962480471	17.462603942474303
O	22.120517959648698	-3.8712994386266137	17.272566932247404
O	21.978311248347296	-2.1020043097580907	18.564396446525485
O	22.254225939746824	-1.6643501851689577	19.775131195579608
O	22.78344663344457	-0.3596484453147022	20.058551616469927
O	23.823211081964267	-0.11414448002050492	19.46037085776728
O	21.859704928712702	0.649724440097603	19.95386212352292
O	21.876202722520645	1.9346417492989987	19.496082362917996
O	20.60410529726697	2.1165649525686145	18.77341162766582
O	19.764512179882587	1.577094729251584	19.72576943137422
O	20.137918270102794	2.1144473202313794	20.871457944512713
O	20.004522420316373	1.1580163234863667	21.847533421056056
O	21.197825463473357	0.5711301879188013	22.12135255789919
O	22.15723176214006	1.668988249927801	21.83248027753279
O	21.527973487835936	2.5716802959134357	20.879175041909512
O	21.064621124086543	-0.8727317118186089	18.218189956909306
O	19.496569100633714	-2.7903186434090004	18.551451549829736
O	18.22816306720954	-3.2016415349550833	18.840971020505286
O	17.494269830163162	-2.2137928406384484	19.431653155233594
O	18.176838648250413	-1.2759097224985796	20.215903068111004
O	19.51713199660887	-1.245264687409291	20.014918576888423
O	19.95708511388502	-1.53753853290479	18.827480879038887
