45

O	17.653866981373167	-1.134551374149433	15.875963154041889
O	21.9573821978555	-3.0099531670024997	18.60814648544892
O	21.542471619398825	-3.8333433532836247	15.24000595467887
O	20.05635222684868	-1.0283968257528455	15.974729162020338
O	21.952476595340322	-1.0315560830609147	15.085690568534918
O	21.703467087933102	0.8466426576637869	18.517402787804
O	19.837234119297356	1.4758405217687873	18.49574122878105
O	23.021088268653617	-1.8034898030744264	17.18337306452235
O	23.633182855303268	-0.6434830128349442	19.771831926935356
O	21.021227444965668	-4.558659342951861	17.60532014833359
O	22.045529961784194	-3.8268821888648503	17.434880473966345
O	20.97472960889161	-1.9472509935127078	18.24375500759387
O	21.856462481608737	-1.2286772719609507	17.3535236835012
O	19.972859588736775	-2.6469619529330664	17.522734749700646
O	21.330438439639945	-1.4877097134877781	16.034510175670952
O	19.829416387315092	0.0703090528266912	16.732602600992184
O	18.428595221685995	-0.15525249791701246	17.122660748694965
O	19.228272535114662	-1.8368011525160193	15.281714392674187
O	20.521692660834674	0.6185219670750781	17.847454743586287
O	22.575287378937485	-4.028508131301006	16.100550610383145
O	18.993414134237625	-3.125964239461533	18.428456386745392
O	19.196359918862964	-3.1118168667359916	19.76182603631285
O	18.117707651519858	-3.3079847672879055	20.588330146528214
O	16.89643288298824	-2.9850032041155847	20.07865362422585
O	16.673099128719876	-3.3479066259088013	18.754582431321527
O	17.787991100782275	-3.5292141701231454	17.999107067918498
O	18.033864677587847	-0.21543492198442427	18.50001565171452
O	18.315445451472492	1.2859864284454214	16.92114813371801
O	21.907153643835407	0.8374400852167678	19.89945800765744
O	20.54239731818246	0.9122581675014192	20.39014809816863
O	20.073971147915287	2.0237206740020985	21.010308015937383
O	19.454087849115684	1.8903661479686649	22.234468592811506
O	22.562818111732224	-0.28477739477422115	20.507632249803365
O	20.308102252312004	-0.3090690688007667	20.87667600703466
O	19.177934268288674	-0.3910279719711227	21.667258312799753
O	18.893681420577927	0.6655772322821691	22.470008228223378
O	21.577617582726845	-1.1257425284617735	21.11101189793395
O	20.39738937924341	-7.6022932925022	14.383968077457373
O	21.421565372374744	-6.986665724350322	13.63031276957948
O	21.942523149846906	-5.868970704075666	14.32146974771167
O	21.033091782790954	-4.82222900781544	14.546636587298817
O	20.02776165043593	-5.413957290098546	15.31153138650123
O	19.467471362151155	-6.541874106005602	14.598713987347365
O	23.189565112200235	-5.6208656561542485	14.636509384226319
O	19.0172736828805	-4.637524158752126	15.648274134725375
