35

O	20.381087300036192	2.1825900738091146	18.832175195832953
O	20.923764663709147	-2.217980828140679	19.64525277145888
O	21.06543816760109	0.13699347091681102	19.92553768095472
O	21.406296404643154	-1.998943625791354	14.849756605030011
O	22.460047175717307	1.2622112667150744	18.659026369579962
O	21.567648323303683	-1.327649486085316	16.39199567186477
O	22.905800159686866	-1.0036953790665635	19.613496048908555
O	21.69328612775277	-1.0698341834794018	19.79898109281821
O	19.73967525050305	-7.493058617202067	15.623634523831274
O	22.06757878350249	-3.9413601668372316	16.935315319866383
O	21.070378218592946	0.9073555697737128	18.703172229250995
O	22.81698910361613	-2.3060628567560513	14.771858586842168
O	21.032355365411508	-3.0044111027245304	18.48217521536798
O	21.376451905823735	-1.0280915972355116	13.782614388251172
O	22.359467016699103	-3.0185818285614583	17.962371458166153
O	20.870171028097918	2.138153571502893	20.202245020180165
O	20.46805079229933	-2.2208497963930833	17.39047746760556
O	19.271113669760172	-1.8574669759905584	17.892252196194182
O	18.190082308850094	-2.369590563781474	17.28886510819694
O	18.96093790244264	-1.2609672723523042	19.0143929540254
O	17.27756134538736	-3.0852415421734616	17.96463336473677
O	18.002807367975407	-1.7093575752119852	19.832589641982064
O	17.39615403592554	-2.8726586434156802	19.338335124038572
O	22.56875736641909	-1.720412417343872	17.256400111160268
O	21.353232522243466	-0.01319738077512489	16.117135475216134
O	20.073711070239053	0.13828517756393932	15.553952088905975
O	20.586970272532497	-3.393608132421676	14.546859270051327
O	21.126871775363174	-4.4716903717197605	13.970820004759563
O	20.74307194910484	-5.821370277570058	14.257178982036782
O	20.14573784318718	-6.0991771117135	15.494916724190187
O	19.302348742256125	-5.047350988306742	15.844186567397038
O	19.506460543565296	-3.8420384006836477	15.177576303766488
O	19.1534282113404	0.7297202265255474	16.519139229620308
O	19.309178833105403	-0.8991845254552611	14.952696493362986
O	22.25419692909188	2.064456731810333	19.966964504168452
