39

O	21.05545479518529	1.0504057406422873	19.67144469962208
O	20.737979843285327	0.0725483355257619	20.206721355869867
O	20.605936599709672	1.985520508775568	20.494740744203277
O	21.471540452989178	2.048424345535643	18.619115776701225
O	21.265555200212763	-0.9047025749646519	18.42029053418757
O	22.71567706240039	1.754738875765848	19.038723958952534
O	22.898011730574076	0.8265682831751302	19.996343246557405
O	21.470574348567006	-1.274015430833361	15.234880819032309
O	21.348960763927366	-2.194179717982962	20.17748633690603
O	22.772781208480552	1.2461341150582377	21.29893382306159
O	23.537095762252772	-0.8286486522169739	17.648887568329187
O	22.69736415526932	0.28796102074183416	22.298795370853718
O	23.259828488540332	-2.6545590590608557	18.15413913975788
O	23.319964009212292	-0.8922669798568537	22.012119585185523
O	24.10055427730672	-1.1009669837185783	20.87464608817426
O	23.89200875537045	-0.10824974480518379	19.988960626679454
O	19.72476325379927	-0.7504554360982558	19.97777583729901
O	18.842956878192226	-0.19652194756146213	18.971313637942835
O	17.639869033638803	-0.8290049764331586	19.158805561535736
O	19.006330524791274	1.0982768192725576	18.693804092447067
O	20.690733330675084	-1.5581424072688468	19.365525011047975
O	21.236597135770026	-0.32288949235969255	17.378523499152283
O	20.091943666508392	-0.3678411424638969	16.49379738380874
O	19.56073443226249	-1.632589054633871	17.0281488895798
O	19.765473227873304	-2.6961792707208803	17.78521616802508
O	19.238741309648933	-3.69563636752341	18.430756795159496
O	18.003075567919826	-3.785394075377996	17.985141802651867
O	17.792427095611234	-3.0518335778758683	16.894521282295354
O	18.48418680914925	-1.9890158713274215	16.418235233946334
O	22.48330071736756	-0.40496576273010687	16.882476806748688
O	21.838174613278543	-1.6366204994127833	16.476489776011174
O	22.150101602216747	-2.5003900577158773	17.473429661352196
O	22.45237242272467	-2.7398072580937822	16.134014726635478
O	21.326127963877777	-3.4999984040211363	15.661313667272772
O	20.40743950131534	-3.7787435811595667	14.835680016981808
O	19.57907887234416	-4.823199674223639	15.273987793579263
O	19.923022338297965	-5.783082142135234	16.118639983740813
O	21.271619529990154	-5.806752500015374	16.084171186211783
O	21.731970207213607	-4.541622057266948	16.29912332937561
