66

O	23.588672962051966	0.6530716649555646	17.667891177143705
O	21.736977382622925	-1.9573713866368494	19.282324431287826
O	24.367667385601173	0.3432464425019517	18.83682339301413
O	17.993958308492573	1.3273894930969017	18.91439346236354
O	18.479481839081505	1.374564288278838	16.61353201481455
O	20.510490341106987	-5.365182496651586	12.540788256197516
O	18.82503360464924	-6.000330453082542	13.55999518739161
O	20.954731062410488	-0.7243835668058372	16.51099910719258
O	20.294389007793082	0.14783153374311664	17.017707080876217
O	19.93940774360182	-0.5093665117933894	14.653897608965567
O	20.627643487850293	-1.110646761734921	15.369994875833768
O	20.592981736993995	1.2970621203573791	19.29452127842593
O	19.583330690450445	-0.11072507290276268	19.35314752631673
O	20.817246928713907	-1.9451789882282104	16.834341928288207
O	19.57246539564107	-1.8065970748445663	17.399524113526162
O	22.526252237578355	1.4084765490750688	20.7177045630687
O	19.632850639910853	1.2301502841177223	21.109183806779754
O	19.56470941411451	-2.559986011146687	18.402152744360315
O	18.476470216089282	-2.7484592061529813	18.972037787485235
O	17.459830397930816	-2.0190122219738864	18.54117600381921
O	17.38656551868298	-1.4163550206114417	17.39387487125633
O	22.578367565247248	2.8362022444069312	19.1987750371595
O	18.567263888536424	-1.1953858010805187	16.847895508865786
O	22.57064620789026	0.9117292762853659	18.211763236253173
O	20.05448334301919	1.5590756050540908	18.181003504591352
O	19.946615643433987	0.11413907001398504	18.27199773471295
O	18.796081604019932	1.9504847156875984	17.92750503001076
O	24.342988080873827	1.0012092892134103	19.95998720733162
O	25.190386081490278	0.7759136682042203	20.91656125103677
O	25.698873627619648	-0.45548710003975046	20.85470522160209
O	25.359629096765214	-1.3999844715400025	19.97865298568468
O	24.894081759719832	-0.7963797817576304	18.927778924401377
O	21.455117760835364	1.9263611519751729	21.21449402176699
O	20.390041112686745	1.8243953662562933	20.431050758643394
O	22.179071398798737	3.1612981393003436	21.294644940383186
O	22.50581741105223	1.6152323955301502	19.33501745273409
O	21.84967514707468	-1.2321342110076074	20.402704011781093
O	22.29559327988222	-2.59377844516042	15.10105444187896
O	22.378109752838103	-3.7061052436345383	15.352949067533002
O	22.89083607040139	-0.6600986108360201	15.265299118057523
O	21.930538611304627	-1.4743567105428654	15.62434703842949
O	20.686854588373432	-4.791996174612426	16.359938974091246
O	22.77173254562048	-5.52072493876905	15.667592181523963
O	21.38162751149542	-2.6167458658989666	13.887491372567727
O	20.209142861914856	-3.074986022847064	14.534832885480451
O	22.747657172714792	-3.186131362400672	18.945317495184117
O	21.047424007218805	-4.743012149369134	18.118238802517535
O	19.762711014008413	-3.70524183918693	15.577815160083272
O	18.66393787646738	-4.305452733551224	16.17857244363044
O	17.655227160548822	-3.7891767085258183	15.715680794843903
O	17.922318102083473	-2.8297495832346256	14.898499107675946
O	23.912398623104377	-2.107501754908113	17.43549868542095
O	19.05039631604978	-2.8533548676424747	14.209419026686362
O	22.392939349710854	-1.0825315261180977	18.716027280073217
O	20.75120819269548	-5.5033343869611695	15.146637502436068
O	21.969917947483697	-4.86325999556148	14.848628289647655
O	20.24003614068212	-5.767794053992985	13.858342110336304
O	20.73956520609756	-1.3683886771711624	21.048938930253595
O	20.75297447494271	-0.7973271718298134	22.257277839601382
O	21.915414292406716	-0.19264139928675528	22.668468753900243
O	22.976763864465813	-0.9189887102046783	22.28288149621055
O	22.844597359190328	-1.6056348896158936	21.11921253271759
O	22.78588815781106	-4.055104171164555	17.875893696423617
O	21.76513444261478	-4.396815637305655	17.19682054911621
O	24.235796080657074	-4.059243775715352	17.653688005494644
O	22.911007982605252	-2.1152143145924063	18.126226594049864
