38

O	22.5381741614147	-5.456600484834464	17.46731692672065
O	21.50286691645256	-5.337698758153189	16.476705284360524
O	21.790307805059967	-5.262559808587388	15.103727551893641
O	21.35211624268903	-4.136300815888302	14.336234483974522
O	20.61440093536277	-3.1495148242132958	14.92883660687288
O	19.795001867413326	-3.871335367399899	15.72971643802604
O	20.2013138158107	-4.935693717222731	16.559339423288222
O	20.848225353928868	-1.493328588169199	15.16061593626974
O	20.086798664144556	-0.4868206316580832	14.448806327383732
O	22.192675824500874	-1.1921451254150455	14.665641484757085
O	20.989999748079093	-0.8355079134993896	16.688825290571977
O	20.111935607424545	0.15734501406597956	16.855087387435276
O	18.838793020144887	-0.2409709693919787	16.37010271337866
O	18.343336458872844	0.2719812218910993	17.68914574795628
O	18.244319660030236	-1.4707948867873528	16.026729860147665
O	22.14833738832283	-0.7167012269047612	17.326275753821776
O	22.742102810980327	-2.0316954817801873	17.694154107511196
O	22.628522949408595	-2.6396906834054796	16.572265718920086
O	21.79958008478569	-2.5490180031438694	18.693524470643233
O	21.771829417377926	-1.5804387066664565	19.741894259576682
O	22.390175182580933	-0.33513543989006456	19.64166502133307
O	23.61269086569537	-0.41788527208584547	19.616409186670708
O	21.577741251695986	0.7454115264138166	19.47749544881141
O	22.19784548742096	1.9516666883252898	19.03750105010973
O	21.04735358400972	2.654804809361039	18.431877493772877
O	20.0648431988689	2.300251640166305	19.31150879434225
O	20.652034327340036	2.567721851470602	20.506142554924367
O	20.315742847470286	1.332994805600847	21.112881877333812
O	21.311994440553704	0.866619600156733	21.882300559068547
O	22.54498438111573	1.4603563632260037	21.31517902271925
O	22.131866272263103	2.6015170155366665	20.45999216231269
O	20.57499046313909	-2.3550708216446985	17.940066548087263
O	19.60173864863026	-1.5910884983011284	20.047766313823637
O	18.4711333443792	-1.2667079265213756	20.717376677051163
O	17.310964380691704	-1.7536008846026492	20.19475161037785
O	17.23809077030696	-2.536023208204802	19.0654225219385
O	18.446777791657002	-3.0142665014954337	18.64518946054212
O	19.553138273383468	-2.3100822008773885	18.911418300882218
