40

O	22.001487349131764	-7.069394813161613	16.00175019182617
O	21.55173162697119	-5.706595364540129	15.86471899624531
O	21.38563172779581	-5.4452529838783725	14.513059474902821
O	21.290743828922118	-4.106976207785211	14.070798218447493
O	21.225863371254896	-3.178387065616496	15.112810514678205
O	22.319914842103795	-3.5035753044255067	15.819576721189774
O	22.19988082587872	-4.691222488697432	16.501594436851992
O	20.82205857997291	-1.535827478066784	14.94375993435575
O	21.989976946001207	-0.6834164831301158	15.046124172759809
O	20.265465898717824	-1.4376970740944652	13.669591235170014
O	19.665544825954957	-0.875574929923402	16.020957278750384
O	18.69736451730407	-1.881481754549335	16.07285618034012
O	19.200871516258747	-3.211760377099405	15.783729585285789
O	18.510028141179525	-4.227346547978187	15.04578906133267
O	19.043461176915677	-3.8810234007403377	17.1457623399284
O	20.521729322717366	-0.5836620907673877	17.071309515563286
O	21.708511349925026	-1.467970528305758	17.155439593346816
O	17.57338320405769	-3.7561814351412597	17.3132185172347
O	22.8271579733266	-0.8264903387107461	17.350543645823088
O	21.79789554702077	-2.2946119704568693	18.467456504252876
O	18.297281377011178	-5.577743359526657	15.515887310553072
O	22.18772013946385	-1.5672600745217768	19.570398706990364
O	22.465570135131408	-0.21083914452368213	19.480029282275098
O	23.675280719301142	-0.08573995886302366	19.548807870338397
O	21.677341544131682	0.8677199847486945	19.34408493579871
O	21.966759267059707	1.984171071261296	18.58430349852701
O	20.782145128189352	2.2281395949039595	17.714908252453984
O	19.787772271896362	1.9099767263429352	18.59593440475804
O	20.18825686485541	2.6082505606393704	19.696718992231002
O	20.137516765462085	1.5867188811317086	20.616285013284678
O	21.22163725951954	1.4626179068681073	21.404019308232446
O	22.170049738684504	2.462648605532869	20.895376776759285
O	21.579230907419802	3.020527402231963	19.693857264661908
O	20.39028510184045	-2.313736828228846	18.25674588649602
O	20.150030366582083	-1.577986961828808	20.44124897382553
O	19.286915620182445	-1.2859992079172369	21.474609769142333
O	17.987615254004922	-1.5800535625520482	21.184920728542675
O	17.584746619455085	-1.5869207369017928	19.85367558843778
O	18.496134866892298	-0.9822330769435066	19.00739705250071
O	19.804485299073352	-1.261594203946148	19.156787037719354
