92

O	0.8678999886200001	2.08402967422	-0.008878327700000188
O	1.0322139486200002	3.31432430422	0.0644332952999998
O	-0.3454808363799998	1.3941821812199997	0.3466630612999998
O	-0.7060996883799998	0.4379955802199998	-0.5562080297000003
O	0.26962778962000017	-0.20489183578000025	-1.4500690067000002
O	-0.4426154673799998	-1.3010255757800002	-1.9908868967000002
O	1.2288936486200002	-0.7935104857800002	-0.5482794437000003
O	0.7218979786200002	-1.98258132578	-0.06432506370000018
O	2.0001135186200005	0.03792891621999972	0.4091998742999998
O	2.0225708086200003	1.3301243802199998	-0.1525143257000002
O	-1.1521406633799998	2.57468700422	0.8217392332999999
O	-1.4299099033799998	2.78997086422	-0.5548671747000002
O	-2.6443655813799998	3.1886404742199996	-0.8268054927000001
O	-3.3225931613799995	2.6459837942199997	-1.8334757467
O	-2.7923841313799995	1.6056565552199997	-2.4346956967000004
O	-1.4937167813799999	2.0604534142199995	-2.7182767767000002
O	-0.7453149903799998	2.4361799342199997	-1.6406596167000003
O	-3.5863476513799997	0.7840636812199998	-3.3274004867
O	-2.53151099138	-0.07895235578000026	-3.5584957167000004
O	-1.1462673763799998	-0.7214046057800003	0.2061418492999998
O	-2.01428959138	0.18969458321999977	0.9565414632999999
O	-2.04622902138	0.07256176421999982	2.2579027433
O	-2.7073479713799995	0.9219815769199998	3.0473453832999997
O	-3.6433203713799998	1.6093851262199999	2.3546089233
O	-4.07952247138	1.1989956212199997	1.1297151732999997
O	-3.1817092013799995	0.45844429421999977	0.43886685029999983
O	1.13653216862	-0.29398264578000033	1.4380788932999997
O	0.7337326986200001	0.5507380992199997	2.4627484532999997
O	0.5067576226200001	-0.24604782578000028	3.4946893432999997
O	0.68087674862	0.29385142421999977	4.7152532133000005
O	0.6340827286200001	1.6311877462199997	4.8894771133
O	0.08744739862000023	2.37431928422	3.8924765032999997
O	0.4692198906200002	1.8621940752199997	2.7623751533
O	3.02295831862	2.3882284042199995	0.47797216129999975
O	3.0750721886200005	1.71036894522	1.7771761532999997
O	3.33035807862	1.7775599822199997	3.0853084832999995
O	3.6178127186200006	0.6556832092199998	3.8034759333
O	3.5657238186200004	-0.5365507157800002	3.1584487833
O	4.31504249862	-0.2533310957800001	2.0629214133
O	3.92245707862	0.8285757502199997	1.3473270533
O	3.3753415486200002	-1.9379941457800003	3.3884894032999995
O	2.8447389486200003	-2.48830733578	2.2532949932999995
O	2.4587138786200002	0.23758654121999978	-12.842096556700001
O	0.6827254586200002	-1.85324291578	-10.2280149767
O	1.7598908386200003	-5.2928885357799995	-9.0876873367
O	1.5283251386200003	-4.9388509557799996	-5.4095092867
O	2.3519418986200002	-7.8289236457800016	-3.0446359567
O	4.42862908862	-3.32873621578	-1.3294464667000003
O	9.35201183862	-1.51990544578	-2.3851865467000004
O	9.03494972862	-0.3894470657800002	-5.8972446367
O	8.09676023862	3.3162751942199997	-6.0707406167
O	9.88770554862	5.73118534422	3.4965981533
O	3.45186951862	6.244621134219999	4.9554498133000005
O	0.026137672620000163	6.99175790422	6.2926672433
O	0.4329913896200002	9.138494614219999	9.2916085333
O	7.76165284862	10.66284273422	3.3533027432999996
O	4.9860517386200005	11.16491645422	-4.2442331767
O	3.3450755186200003	7.85450425422	-4.6471927267
O	-0.2547256083799998	7.770598704219999	-5.5369415867
O	0.62245094862	5.29401882422	-8.3181882267
O	3.5022354486200005	3.51048480422	-9.767311816700001
O	3.9586303486200007	0.3466694592199998	-7.8265790967
O	6.04439304862	-2.72927716578	-8.3839285967
O	6.72606368862	-4.12120622578	-4.9504020567
O	8.26512543862	-7.405703085780001	-3.7529272567000005
O	11.21405134862	-6.71907461578	-8.0345973567
O	8.22240752862	-9.09967984578	-7.9488786067
O	-2.9889616813799997	-10.80314624578	7.8579503733000005
O	-1.13801681838	-9.662862245780001	4.6791457533
O	-2.30235087138	-10.869471345780001	1.2925019032999998
O	-2.15011482138	-7.611918015780001	-0.6352121677000002
O	-2.8156274013799996	-7.4183159657800015	-4.3931858567
O	-4.905308101379999	-3.34932681578	-1.6388308867
O	-10.25468068138	-3.2102657757800004	-0.020417285700000204
O	-9.66088962138	-5.258913525780001	3.1568791632999997
O	-8.69279304138	-3.3500092157800005	6.2897794633
O	-11.47454995138	7.76806156422	4.6476439133000005
O	-8.789341721380001	5.7047214542199995	2.9993625132999995
O	-1.8713860913799998	6.60654600422	0.37484678429999985
O	1.6762636586200002	7.80192245422	0.40564525529999984
O	1.5092599886200002	10.15393741422	3.3185119132999996
O	-2.1439092113799996	10.672755944219999	3.4578014832999995
O	-5.34873882138	9.17679404422	4.825905193300001
O	-6.8772892913799994	7.522118474219999	7.8276041533
O	-10.43515260138	7.334972094219999	9.107931923299999
O	-3.9816888413799996	0.23667228121999973	10.8017031433
O	-0.7479493023799998	-1.4205816157800002	11.8535249433
O	-1.4392517223799999	-4.46049349578	9.699604513299999
O	-4.39494660138	-6.632931125780001	8.879669203299999
O	-4.74646643138	-6.413004555780001	5.0796208433
O	-6.557805741379999	-8.75433883578	2.8087634133
O	-7.35436881138	-6.799943195780001	-0.3606332547000002
