40

O	20.126861903460593	1.800669001235539	18.887244610742183
O	21.41896799475135	1.7697470280372898	19.70761393293788
O	22.22317213990957	2.7618368024863775	20.297943084008175
O	21.334032766926033	3.899491620358262	20.651037857556886
O	20.054852640895184	3.832074314021253	20.033322491656392
O	20.273900751597925	3.2564370336833166	18.662723133791687
O	20.31851893740823	-0.1077539261526208	17.763181248207918
O	20.784278398408187	-0.21154307243235493	19.005346860022
O	21.973234563135193	0.7681380866064484	18.878400529829598
O	20.070454211892297	1.2606413863060044	17.505316968446152
O	20.195842149738226	0.06389326854814326	20.255455309974074
O	19.945481810450833	1.047207797305351	21.253674567942628
O	20.367238458438987	1.3757805717858196	22.528030241208633
O	21.7945417797642	1.0463550173794076	22.950193862134093
O	20.32756867967072	2.7522992909980113	23.183580602118862
O	19.69359236874289	0.6781955516473501	23.72251917698687
O	20.073621194833674	-0.9652568021038994	20.85041792965703
O	21.303980513217972	-0.3683623602150887	16.847772143214655
O	20.91486175778349	-1.6582592153630928	16.30798597323277
O	21.382579404560975	-2.331767071818856	17.50260782625641
O	21.811592749602223	-2.003222491205312	15.352077158139263
O	22.589465776146948	-1.9561800152413364	18.104060610515667
O	21.66268398588737	-3.6982113609265763	16.879397258830753
O	22.591300664044603	-2.4245851771984706	19.416594653788948
O	21.672540675773984	-3.1348114600895016	19.770019648645533
O	23.153219258447844	-1.6820311853503813	20.55578436008722
O	22.88781273636803	-1.9587329353085907	21.865675471255447
O	23.79262791247865	-1.5313503206520704	22.783583769821973
O	24.727552828293103	-0.5622667980291116	22.538984114513543
O	24.741181068063902	-0.1179298497099146	21.21579402508255
O	24.150390570739514	-0.842588288110276	20.222721756418473
O	24.88548874283048	1.2103942148206064	20.939317530894776
O	24.829706998491346	-1.0008595056273033	18.95362254153521
O	20.037466543125817	-4.09109185577115	16.208860516121597
O	18.975851877319435	-3.229424809010295	17.374717157676947
O	18.31027795360281	-2.0932342202241516	17.481672289602916
O	17.77561538060884	-1.6244081502192018	18.681522162556067
O	17.61327916851505	-2.483671202642946	19.732732208449285
O	18.51188610901306	-3.4936394748516504	19.765272963846037
O	19.152353949651392	-3.787060729608436	18.606175750221617
