100

O	3.0013679517285716	-0.48901119136734694	-0.5798121333265304
O	3.8921912617285717	-1.4285177413673469	-1.0336675073265305
O	-0.17256404027142846	0.6527060016326531	-0.4071019710265304
O	0.28899896652857154	3.492211288632653	-1.9241892343265303
O	2.6768500117285714	-3.1908884713673467	-1.1588051343265304
O	-2.5952784682714283	2.563634838632653	-0.06591728032653038
O	-4.328430688271428	3.743760608632653	1.5783398656734697
O	-3.2807573682714284	1.6880777476326532	2.0077057556734696
O	5.586997431728571	3.367865648632653	-0.7785327443265304
O	7.464997591728572	-0.6682332413673469	1.2648076356734697
O	5.508541741728571	2.3068108186326532	-1.5724213443265302
O	4.507026471728572	3.6687574186326533	-0.026293487326530363
O	6.920559471728572	0.47938038563265317	0.7760954356734697
O	6.624675071728571	-1.4125384413673467	2.0156546256734695
O	4.328637281728572	1.6740805896326532	-1.5996953643265304
O	3.3006228217285716	3.176523988632653	-0.35861664732653037
O	5.722576471728571	0.8896451886326531	1.1915920556734696
O	1.7750132917285715	0.08240366863265325	3.4163238456734693
O	2.0826387617285715	2.148575374632653	2.6073214656734693
O	2.9631061917285715	-0.21969784136734694	2.9487872656734693
O	3.3541726817285715	1.830287169632653	2.3691674856734695
O	5.300246691728571	-1.4247930913673468	-1.1875512953265304
O	6.0273910317285715	-2.320079531367347	-0.8051120163265304
O	0.9491860727285716	-1.5013975613673467	-0.7283737573265303
O	0.4226094077285716	3.692821378632653	1.0010785656734698
O	-0.6960645682714284	3.013312418632653	3.0323804956734697
O	1.1236329227285715	0.4808555446326531	-2.3152467743265306
O	3.3244232617285716	-2.396674551367347	-0.15545024632653037
O	1.9573826317285716	1.700326075632653	-0.6691751463265303
O	-0.1943921782714284	0.9732025476326531	3.1424607356734695
O	0.4397241447285716	-0.34457422136734683	1.5879781256734697
O	1.7043358017285715	-0.5825547613673467	-0.37282309212653036
O	-0.5830306142714284	3.740002758632653	0.21590557567346963
O	-1.2428511682714285	2.596076468632653	2.0146027156734694
O	3.3142280217285713	1.849895424632653	-0.7871035263265304
O	1.2646065957285715	1.3192205362326532	3.2092117956734696
O	3.6554858717285716	0.5917537896326531	2.1930516556734694
O	4.811529521728572	0.07384263863265317	1.6102620056734698
O	-2.2584792882714284	3.705120908632653	1.8507597556734698
O	-3.2615319982714284	2.877921848632653	1.1164112356734697
O	-1.4212619282714285	4.576372238632653	1.1253346956734698
O	6.007573731728572	-0.835352951367347	-2.2563409443265305
O	-1.1089703982714285	1.5154277616326532	1.2484151756734696
O	-0.6864845802714284	0.38337803263265313	1.9388314056734697
O	0.28770494792857154	4.184166698632653	-0.7449233613265304
O	2.5485786217285717	-2.2875325313673467	1.0249276256734696
O	4.462574631728572	-3.242947831367347	0.2059090426734696
O	1.1170513367285717	0.6715510766326531	-1.0193448283265303
O	7.365413431728571	-0.4645869413673469	-2.0832841443265306
O	0.7403466867285715	0.8171299766326532	0.8444435956734697
O	5.354959931728571	-1.0164355513673469	2.1667532456734695
O	-5.680308118271428	7.1071663786326535	-9.10193566432653
O	-6.009146918271428	4.038128298632653	-6.82334236432653
O	-6.062215788271429	0.4730407916326531	-7.96156365432653
O	-3.722314908271428	-1.080705551367347	-5.57778790432653
O	-3.0331486482714283	-4.805243301367346	-5.84054720432653
O	1.1135239347285717	-2.216472751367347	-5.63748950432653
O	4.578776701728572	-0.1811336013673468	-9.40880486432653
O	2.5784030917285716	2.685218528632653	-10.53938050432653
O	3.5325543717285717	5.922260478632653	-8.67376761432653
O	12.179187981728571	3.586603278632653	-3.8537521043265306
O	9.058933391728571	3.400893528632653	2.5243371256734695
O	7.645221311728571	3.007634168632653	6.04261319567347
O	6.028057471728571	11.865262068632653	-2.6296697143265306
O	3.4796028117285713	9.236888768632653	-2.7666418943265305
O	0.6225778227285715	9.757689718632653	-0.5361343513265304
O	-1.6114419282714285	9.439787798632652	-3.7720719843265305
O	-1.5304131582714284	8.241929008632653	-7.2307754743265304
O	-1.4991470982714286	4.533424538632653	-7.42956555432653
O	-1.8802784782714284	2.0990855556326533	-10.16804757432653
O	0.10762820572857154	-0.880274391367347	-9.20455282432653
O	0.26938629202857156	-4.401136881367346	-10.832787604326532
O	-0.2677863572714284	-1.6730052713673467	-15.22707510432653
O	-3.1144673682714283	-3.5802262313673467	-13.51242090432653
O	-0.9505991982714284	-12.959380831367348	3.6054096356734693
O	-1.1486517282714284	-10.380923231367348	0.6952230156734698
O	-4.392024018271428	-9.451337131367348	-0.8430231893265303
O	-4.088034548271429	-5.6920461713673465	-0.9478009103265304
O	-6.843731018271429	-3.6959728013673465	-2.6099061243265305
O	-5.320468028271428	-1.821281381367347	1.9333712656734698
O	-7.640977778271429	-2.3605168113673467	7.0136206856734695
O	-5.882629938271428	-5.615046091367347	7.63141309567347
O	-2.4570276182714283	-5.389590681367347	9.23253221567347
O	-0.6744270652714285	4.947191738632653	14.068366395673468
O	-0.8363178782714284	3.8947641186326534	10.43112499567347
O	2.5148112817285715	5.445070018632654	3.7161467356734694
O	5.155074181728571	6.873531378632654	1.7117504656734697
O	7.897913261728572	7.2924179986326525	4.20648726567347
O	5.681320941728572	7.743653118632654	7.12722135567347
O	3.9326107617285717	5.906072168632653	9.913734195673468
O	4.219119011728571	2.985041738632653	12.27580099567347
O	2.6730945117285714	2.233800145632653	15.64742979567347
O	4.902552281728571	-4.913705671367348	9.605972995673469
O	7.010214421728572	-7.288883681367347	7.64044313567347
O	3.9354641817285714	-8.717592121367348	5.78392865567347
O	0.5336353047285716	-9.793558431367348	6.57360012567347
O	-1.8860018882714282	-7.627334611367347	4.63788268567347
O	-5.443563588271429	-8.455992051367348	3.9268180956734695
O	-7.115752048271428	-5.156993731367347	3.3114413856734695
O	-10.55878841827143	-4.578201921367347	1.8721750756734699
