89

O	0.47016936174	2.9805772461	-1.3791831780200003
O	2.50134806174	2.6495669861	-0.4617538895200003
O	1.8589224517399998	3.8800468060999997	3.1745022359799995
O	1.15482921174	4.272234516099999	2.0392985359799995
O	1.71393412174	2.6730095160999996	3.7900575659799998
O	0.17487492973999996	3.3963293461	1.6708111859799997
O	0.7915169317399999	1.8713077190999998	3.18200848598
O	-4.12901973826	1.3753967380999998	-0.7664830970200003
O	-2.79730836826	2.7143288261	0.3815536399799997
O	-3.0907601482600002	1.1438685887	-1.7254967940200003
O	-1.91849047826	2.4755360761	-0.6394947820200003
O	2.78996547174	-0.6403672739000001	3.74401609598
O	2.97363331174	-3.3175415838999998	2.2019234559799994
O	0.10494307273999992	1.1385357125	1.0547659059799996
O	1.8113125117400002	0.6883171380999998	-0.8131612320200003
O	0.12050709073999999	-0.8182533039000002	0.3553094999799997
O	-4.22713383826	1.0599750310999998	1.7150847459799998
O	-0.20882934526000008	-0.1549641139000002	2.79941110598
O	-0.64265544486	-2.3015731839	2.3922201359799997
O	-1.07869451026	-0.9664031039000003	-1.8662091040200002
O	0.17013050874000002	0.7355620650999999	-2.8177821340200007
O	-2.1484133082600003	-0.8532749539000002	0.5297637279799997
O	4.090623321740001	-0.8653600538999999	3.6084001159800003
O	0.09750158974	-1.5021461939000003	2.9808403859799997
O	-3.80375392826	1.7661535390999998	0.5425588819799997
O	0.51762967174	2.1116724021	1.8864884259799999
O	-1.81844274826	1.2899326398	-1.2688616800200003
O	1.4381103717400001	1.9727527460999998	-1.3203063540200004
O	-1.15378068526	-0.11921682390000021	0.6294077459799998
O	2.69767329174	-0.13216199390000005	2.28009822598
O	-0.98886572126	0.5348688950999999	1.8807813859799996
O	2.15191634174	-2.2408793739	1.7539758559799996
O	4.3050820517399995	-1.6720216239	2.4378532859799993
O	3.2631412117400003	-1.2466744439	1.3975605059799998
O	0.7636576617399999	-0.0986035339000002	-0.5876347500200003
O	3.6915866417400003	-2.7308569239000002	3.1670830159799994
O	1.3773922817400002	-1.9424025439000001	2.84578526598
O	-0.49273420726000006	0.3635756780999999	-1.6396047440200003
O	3.89418223174	0.8859819560999999	1.9417628459799998
O	-7.78153081826	-8.0676797439	-6.86357032402
O	-5.25504047826	-5.3231156739	-7.51391126402
O	-1.7179987462600002	-5.8644095139	-8.81373177402
O	0.35400268173999994	-3.8588926039	-6.51955932402
O	4.137590771739999	-3.4817963839	-6.80900208402
O	2.7549730817399998	-4.1736467939	-1.6914872340200002
O	2.52035547174	-9.0912184339	0.7313483659799997
O	-0.66363311866	-10.3541926339	-0.6625032520200003
O	-3.6793153582600002	-9.4859558339	1.5093321859799997
O	1.35348672174	-6.2462909339	9.50512444598
O	0.15765888973999997	-0.02078241390000013	8.50878069598
O	-0.6698506938600001	3.6911354261	8.76254018598
O	-0.16817355826000002	4.9030678461	12.15306097598
O	-2.77109608826	-4.3808296939	12.21740127598
O	-3.8163603682600002	-7.999587053900001	12.97291557598
O	-8.91901383826	-5.4874548339	7.0273434759799995
O	-7.41490912826	-4.3392870539	3.7913497659799997
O	-9.19688420826	-1.6441533839	1.8891906459799996
O	-9.144285908259999	-3.9592937139	-1.2469876450200004
O	-7.804155248260001	-7.3429500839	-2.2889883940200004
O	-4.15150467826	-6.904792973899999	-3.2250052140200003
O	-1.6107414692600002	-9.0741028339	-4.91285039402
O	1.78462680174	-8.0757509439	-3.6316407240200004
O	5.3355069017400005	-8.8791651339	-4.64416736402
O	5.44092981174	-12.2888898339	-3.0282534440200006
O	3.8687943417399997	-11.0662560339	-8.40162211402
O	11.43416409174	6.4764866361	-4.54072291402
O	9.28810419174	3.3121592361	-4.95389073402
O	7.51540183174	2.6225153561	-8.245803934020001
O	4.0762476117399995	1.6407641371	-6.92022370402
O	1.32024838174	0.36483755009999985	-9.35061556402
O	-0.45194304426000004	3.6817759961	-5.45872715402
O	-1.34965548226	9.0564658361	-6.15245080402
O	2.26735827174	10.0482113361	-5.57218406402
O	3.23082902174	10.7632286461	-2.00220919402
O	-5.10186591826	9.696609176099999	2.4223974959799994
O	-4.77620026826	2.5158973261	4.19039144598
O	-4.5752469182599995	-0.5805065139000001	6.23836231598
O	-4.32787565826	1.0260026261	9.63384947598
O	-5.8361515182599994	4.292702956099999	8.78700991598
O	-5.1492256782600005	7.7723874761	7.39083333598
O	-2.63727526826	10.5712333061	7.38420519598
O	-2.89831061826	14.2380597661	6.55802564598
O	5.4505806017400005	9.2613001361	4.91313941598
O	8.42562390174	6.9881446661	5.49187969598
O	8.91061560174	6.3713434061	1.7351308159799996
O	8.736593561740001	8.4017924261	-1.4331248440200002
O	6.0445810817400005	6.7920406761	-3.6114780140200002
O	5.54938806174	7.1519273261	-7.28943545402
O	1.9105823917399998	6.3509117761	-8.02946542402
