58

O	22.480486569210722	1.4813701190943667	19.472355315611956
O	24.7899401647303	-2.7363342613522077	17.944540780238885
O	23.159467618689263	0.7147333039528678	18.844253411940997
O	23.06753363579904	-2.8788712399672725	19.27504662883207
O	23.24111842103413	1.908058763905547	20.590203093068766
O	22.681107652669347	2.8569121288059938	21.57065606041639
O	23.510650781132888	0.7815973178966849	21.430425068776117
O	22.076907071226298	0.28554182907932923	21.650715634332286
O	21.67916991172687	1.0706059546326514	22.698455881679482
O	23.801740193269552	-1.8668391314660921	19.952789208725235
O	21.55947890855606	-0.9065911619842906	21.721450669040554
O	20.615235499067857	0.6658525094965537	23.443511547327645
O	21.229150978849052	-1.5260765186471896	22.89818709566557
O	23.70664948188777	-2.4352916169287697	21.181469040217678
O	20.459846163793145	-0.6789697482490049	23.61738599333473
O	25.105530665081606	-1.481271199817323	19.853243137578815
O	26.026022154369826	-1.3420811335552052	20.856434370550822
O	24.45686028565856	-2.3176399318216347	22.27712561699522
O	25.589540815738427	-1.573569351326315	22.121559863788615
O	21.332843572766542	0.9159199314670665	19.861293956792153
O	20.21810209141966	1.1116923998440587	19.083227678083666
O	20.27264742487434	0.736276699005965	17.758615589661034
O	19.279395302425293	0.8035257704105512	17.144053373768198
O	19.677528947494647	2.362844514743543	19.220001809913025
O	20.87150962713205	3.1040915024794433	18.884766009115175
O	19.577741070196424	2.2764845696187876	20.667267425602674
O	21.438175570456956	0.4834319688655715	17.089856998484606
O	21.7817819035545	-0.8532940210614406	17.230265009762412
O	21.018749596053325	-1.2398040100664858	18.168801645819656
O	20.003806655043807	-1.5246485525066698	19.038536704467354
O	20.195683710774986	-2.7469321857552345	19.54697213851927
O	19.5941840430193	-3.285786891386205	20.570149633401098
O	18.573557000176923	-2.5339643265058784	21.049968770564995
O	18.56797924871248	-1.1948649556502517	20.86670784059444
O	18.989393606591303	-0.8979037608912238	19.66492718627257
O	22.598899479352287	-1.2564643393299413	16.14929811474795
O	23.65694003509963	-0.5359144706955037	16.29992777689548
O	21.11898552006979	-0.018842060305716446	14.98648595381383
O	21.586522101596465	-1.2175959092388995	15.326494976753871
O	20.933956105422016	-2.8707166251685514	16.57644430168003
O	20.453979772679443	-1.577279450037196	16.285790485418794
O	19.486763236025702	-1.8291325827869187	15.304972653828097
O	18.737935730625356	-2.7560390972309428	16.231310474346422
O	18.92248880444559	-3.9453803405736405	16.676774168095026
O	18.382883305293035	-4.508937149200086	17.71280239913911
O	17.382994780016467	-3.7817885414909327	18.25926613466639
O	17.13444081318283	-2.5322869292076478	17.894880065448028
O	17.982299120458407	-1.98400707427743	17.012685077617384
O	22.67214215795702	-4.446158783130773	15.85189221902224
O	21.53029136117627	-4.93605828683239	15.196661627523532
O	20.805419606608066	-3.738467546924972	15.551814947430316
O	21.14752750194033	-2.976788756480814	14.580657382196017
O	21.019026602397112	-5.215635178130186	13.881598303824035
O	20.674028498564304	-4.1409048287351355	12.860252020033306
O	19.50329528025343	-5.4435345026886015	13.980794936686252
O	22.653769732018723	-3.9338697160462592	17.147090597885736
O	21.65903201444914	-4.339631644520258	17.723978043736565
O	23.456163612749826	-3.170176067928061	17.988868511125133
