85

O	2.4448209155416665	-0.028436910333333953	-3.0346491042291666
O	1.3491544555416664	-0.7789189583333339	-3.094510164229167
O	0.27719493354166636	-0.5717953883333339	-2.334256484229167
O	0.02867041624166635	0.515118470566666	-1.6593552542291665
O	0.9187787985416664	1.4403812846666662	-1.8189410442291665
O	2.0804064655416665	1.181076103666666	-2.4457861842291666
O	-1.1061460244583337	0.48205795226666603	-0.3752274462291666
O	-2.2476090644583335	0.153666293666666	-1.1992846742291665
O	-1.4457711344583337	1.4988346216666661	0.5761761997708335
O	-0.8608373744583337	-0.9323355783333339	0.4479986307708334
O	0.26854433954166634	-1.430144858333334	-0.1768010118291666
O	1.0837549955416663	-2.288078238333334	0.8681809547708335
O	1.0521145655416664	-2.837297518333334	-0.4771962452291666
O	-0.11860290655833365	-2.7477059183333337	1.5793128557708334
O	-0.47863316045833365	-0.7381154183333339	1.7545046157708335
O	0.9054191535416662	-0.37332952233333394	1.7115516157708335
O	-0.17633912245833364	-3.380578238333334	2.8618172457708333
O	0.6913704735416664	0.546864060929666	0.7352686587708335
O	1.0485946555416663	0.830198380666666	2.557025565770833
O	3.6628396855416665	-0.395821448333334	-3.4540168042291666
O	3.8076669655416664	-0.683802328333334	-4.788421634229167
O	2.4100033855416667	0.617961216266666	2.3027534857708334
O	2.6501553055416665	1.046457589666666	0.9389582457708334
O	2.6768639555416667	-0.018977505333333977	-0.0732077403291666
O	2.5584348555416665	2.173968781666666	0.6748279367708334
O	3.5506481155416667	-0.971480518333334	0.5679933487708333
O	4.506458245541666	-0.19271539133333393	1.3405367357708335
O	4.858560075541667	-0.248456637333334	2.4655157657708333
O	4.978039265541667	0.987712855666666	0.6049154907708334
O	4.7491084155416665	0.771296133666666	-0.8465385252291666
O	-0.018256775958333648	0.522392299866666	3.4159890157708332
O	0.6589457295416663	-0.28220892933333397	5.3375067957708335
O	1.6657259055416662	-0.433385924333334	6.228665115770833
O	2.9421333055416663	-0.6416797283333339	5.720459215770833
O	2.9208562555416666	-1.4044910183333341	4.590341105770833
O	1.9807137655416664	-1.082629638333334	3.6718141157708333
O	0.7775027605416664	-0.5846615683333339	4.060062915770834
O	-8.827388704458334	-7.182382288333334	-6.978151074229166
O	-7.713757234458334	-3.656379908333334	-6.136285524229167
O	-9.785969884458334	-1.268862658333334	-4.023198494229167
O	-7.280828964458333	0.06453087166666605	-1.6283952242291666
O	-8.106351424458335	2.7581541216666663	0.9506888257708335
O	-4.9669969744583335	-1.037537158333334	2.9803000657708334
O	-6.908022604458333	-5.479573048333334	5.606659215770833
O	-8.048767994458334	-7.503006318333334	2.6954684757708334
O	1.2056891655416664	-8.877748378333333	9.051082055770832
O	5.438651135541667	-5.227015258333334	5.268192545770833
O	8.421501765541665	-3.442090808333334	3.732589645770833
O	5.305453895541667	-11.372046428333334	6.665171325770833
O	2.3251981255416667	-13.322394028333333	-0.8090904432291666
O	0.6671056365416663	-10.089155028333334	-1.7423261942291666
O	1.7020302755416663	-8.311163368333334	-4.856720944229167
O	-1.9512295144583338	-8.144053278333335	-5.984718884229167
O	-5.3602030144583335	-9.044775358333334	-4.593068104229166
O	-6.469033674458333	-6.148222238333334	-2.438442324229167
O	-9.678560994458334	-5.137300828333334	-0.8196664482291667
O	-8.833637514458335	-3.1170997983333337	2.2701888757708333
O	-10.910518674458334	-0.9931716783333341	4.630382505770833
O	-14.563483474458334	-1.390068658333334	1.9607196557708335
O	-0.9316758814583337	12.263044371666666	4.829750595770833
O	-3.0322460544583336	9.180809131666667	3.8866505157708335
O	-5.329687064458334	9.281277871666665	0.8706721017708334
O	-4.474431464458333	5.990258381666666	-0.7637200372291666
O	-6.359138874458334	4.660322511666666	-3.7949799242291666
O	-1.0505619344583337	3.778272191666666	-4.219505874229167
O	2.4357061055416667	7.170892991666666	-6.775555044229167
O	2.7841657455416664	9.629036011666667	-3.923022664229167
O	5.504268665541667	8.954744981666666	-1.4114092742291666
O	9.424777165541666	0.871989545666666	-4.984201984229167
O	5.097825575541666	-4.304884438333334	-1.6281262742291664
O	4.513886755541667	-7.212562128333333	0.5676623817708335
O	7.837673295541666	-7.709771128333333	2.176416925770833
O	9.955035875541666	-6.192031738333334	-0.5220698982291666
O	11.309246325541666	-2.8603803683333338	-1.7446728842291666
O	12.849325025541665	0.41728364766666604	-0.6179922932291666
O	14.974789025541666	2.993157041666666	-2.398867234229167
O	12.128220725541665	6.117536371666666	4.289800925770833
O	8.499435175541665	5.689249441666666	4.594238195770833
O	6.651749025541666	5.682044151666666	7.834576655770833
O	3.6499465455416664	7.513683451666666	6.3609852257708335
O	3.0433041255416664	10.275462211666666	3.8970349957708335
O	0.9821663455416663	8.759799841666666	1.0564982157708334
O	-1.1029122544583336	10.507838921666666	-1.4576048342291665
O	-1.4208435444583336	8.191118661666666	-4.439635254229167
O	-3.6009037844583336	8.273169591666665	-7.4843027942291664
