90

O	1.6516912471081637	-5.0019343544693875	2.628318402775511
O	0.8762403971081636	-4.258919474469388	1.7384506027755104
O	0.6929071971081637	-3.0418757244693877	2.32770620277551
O	-0.5439315948918364	-2.4635005244693877	2.2539295127755103
O	-0.6680793868918364	-1.1014714044693876	2.0500054827755108
O	0.4591296471081636	-0.4912719854693877	1.6339791827755106
O	1.5880539871081636	-0.9501031244693876	2.2000917927755106
O	1.5347195471081636	-2.1348254344693878	2.8812603127755105
O	0.6126277971081637	0.8192688365306122	0.5823498327755106
O	1.2729221971081635	2.0555630655306123	0.6317305827755104
O	-0.7215839318918363	1.3846849755306123	0.6334236627755105
O	1.6148222671081638	0.12815079253061226	-0.6074330422244895
O	2.5603798371081634	-0.7407278844693876	0.09190781277551041
O	2.4267628571081636	-2.185496704469388	-0.08054204722448954
O	2.4117224071081638	-2.4768809444693876	-1.5285945742244895
O	3.356490327108163	-3.1245869844693877	0.39383505277551056
O	1.0144285971081637	-1.0468176444693877	-0.9758188472244895
O	-0.07226708789183633	-1.7097440244693876	-0.5075207602244894
O	4.053091917108164	-3.678718444469388	1.4837727927755104
O	-0.5204689308918364	-2.8738070844693877	-0.5860363952244895
O	-1.1909332418918364	-0.8582600344693876	-0.6522161922244895
O	3.446707047108164	-1.6751371744693877	-2.1254073562244895
O	-2.2334942128918365	-1.3593151144693876	-1.4069741232244894
O	-3.2480062628918365	-0.41299636146938773	-1.7712579832244895
O	-3.9548243228918363	-0.13281566446938775	-0.8040186222244895
O	-2.7899925028918364	0.6847424095306123	-2.4267245272244895
O	-2.8263006028918363	2.040294995530612	-2.2147329472244897
O	-1.5147234818918363	2.687050215530612	-2.1446620052244896
O	-0.9454850937918364	2.284531985530612	-3.3030291072244893
O	-1.8242409828918364	1.9197084355306122	-4.14425614722449
O	-1.9212970428918363	0.7108580035306122	-4.71801004722449
O	-3.1160883828918364	0.09960949953061227	-4.5360266672244896
O	-3.9789793128918363	1.2600574415306123	-4.159683397224489
O	-3.1584262428918364	2.377691635530612	-3.705967537224489
O	-0.4452395288918364	0.14092343753061226	-1.5207536492244895
O	0.8369007571081637	-0.10132622146938774	-3.5203813772244894
O	1.3203218171081637	-0.8753937944693877	-4.48478149722449
O	1.0696064371081637	-2.1990235744693876	-4.47139584722449
O	-0.01900079989183634	-2.6105679344693877	-3.772249867224489
O	-0.7252644368918364	-1.7065831644693876	-3.0429657872244897
O	-0.1223541598918364	-0.5636223754693876	-2.7042332772244895
O	-4.863304082891837	-1.2055023544693877	12.23108864277551
O	-2.031862642891836	0.5532143655306123	10.381708242775511
O	-1.9273945528918364	4.264638555530612	9.55533214277551
O	-1.0174803778918364	4.386441985530612	6.03586047277551
O	-0.5068881768918363	7.583206855530612	4.06227414277551
O	-3.2536255828918366	3.9087331055306125	1.2049535427755107
O	-8.681457712891836	3.700895855530612	1.0357945027755104
O	-9.333984582891835	2.0807105155306123	4.30442670277551
O	-9.407481932891836	-1.7087175144693876	3.99597472277551
O	-9.936670712891836	-2.3324873444693877	-5.83982640722449
O	-3.7924771628918363	-4.347825144469388	-6.55038574722449
O	-0.5285607948918364	-6.072086124469387	-7.5981088572244895
O	-0.8438301671918363	-7.573239704469388	-10.841033797224489
O	-9.341090232891835	-7.526331994469388	-6.37288667722449
O	-8.302252892891836	-9.726532794469387	1.3456049827755103
O	-5.904473022891837	-7.183176724469388	2.6244576927755103
O	-2.7966495528918367	-8.412240704469388	4.12830625277551
O	-3.5496854728918366	-6.211605604469388	7.30584322277551
O	-6.073367912891836	-3.719202114469388	8.501856382775511
O	-5.190954342891837	-0.3370256084693877	7.02477922277551
O	-6.455078672891837	3.1336589555306125	7.646607402775511
O	-5.991884872891836	5.037253325530612	4.425794812775511
O	-6.329044712891836	8.714349805530611	3.5271373927755105
O	-10.079692032891836	8.760163355530612	3.34748049277551
O	-6.794261612891836	9.892731195530612	7.92085360277551
O	7.532918737108163	10.066161575530613	-5.25943125722449
O	4.847635857108164	9.206940435530612	-2.6460468972244895
O	5.613404807108164	9.583454335530613	1.0473691527755105
O	4.190043797108164	6.316524725530613	2.3642390527755106
O	4.010733387108164	5.537371055530612	6.135933052775511
O	5.276858817108163	1.3993858655306124	2.86413448277551
O	10.625654777108164	-0.21539727146938775	2.1806986527755106
O	11.317109277108164	2.258698835530612	-0.6359906302244895
O	10.485662877108163	1.0924727325306123	-4.152934367224489
O	7.6808181071081645	-8.100055814469387	-2.5785482072244896
O	0.2683828371081636	-7.066958794469388	-1.3259902352244894
O	-3.347413932891836	-6.898458064469388	-2.0379067472244894
O	-3.3367488328918364	-8.818966914469387	-5.3022561172244895
O	-0.02219947589183635	-10.454159594469388	-4.953501767224489
O	3.727526077108164	-10.071314594469388	-5.56281299722449
O	6.2644997571081635	-8.600746074469388	-7.97353337722449
O	9.946979377108164	-9.200506584469387	-8.558711847224489
O	6.025229907108164	-0.2744350814693877	-9.976397097224488
O	3.6512223971081634	2.415629425530612	-11.227339157224488
O	4.720942227108164	4.847479665530613	-8.498208747224488
O	7.914229357108164	5.827972215530612	-6.77187678722449
O	7.372193007108164	5.035350475530612	-3.063048527224489
O	9.286004977108163	6.437256905530612	-0.17636387222448946
O	8.881765697108165	4.016276395530612	2.7046311527755105
