102

O	2.688025744791667	-1.034984944406249	1.0525302625208333
O	2.401053174791667	-2.162984954406249	1.355239452520833
O	2.834870854791667	-0.5473270944062492	-0.250777897479167
O	2.375214814791667	0.652036531593751	0.4290225525208331
O	3.614109844791667	1.046535990593751	0.9467197025208332
O	3.140781364791667	-0.04021992140624908	1.8564218625208329
O	3.884250794791667	-0.4283543404062491	3.053747452520833
O	4.970296414791667	-0.763467924406249	2.1414692725208333
O	5.403939334791667	0.42935803079375096	1.7527759525208333
O	5.451692624791667	1.2680587535937509	3.0468957225208326
O	4.180088144791667	0.956144116593751	3.380518402520833
O	2.953668874791667	1.4070300245937508	3.798317072520833
O	6.486855784791667	0.5666796655937509	0.974779212520833
O	6.872690874791667	-0.4900000564062491	0.25351456252083304
O	6.755900514791667	-1.717655194406249	0.7786839125208329
O	5.756486254791667	-1.798885444406249	1.689089972520833
O	1.3627066847916667	0.8436155425937509	1.289646362520833
O	3.489698584791667	1.147207234593751	-1.5512080674791668
O	2.448799274791667	1.9972370555937509	-0.998705139479167
O	3.944170964791667	0.023430930593750954	-1.148901371479167
O	3.857417244791667	-1.4496518144062491	-0.5766696964791669
O	2.954241334791667	-2.183432674406249	-1.407424191479167
O	2.244126384791667	-3.208506164406249	-1.111886761479167
O	2.035290374791667	-4.121868694406249	-2.143075223479167
O	1.6631758447916667	-3.556140094406249	-3.3518600574791666
O	2.441260584791667	-2.5498498644062493	-3.670169927479167
O	3.123795484791667	-1.903316514406249	-2.689770647479167
O	-0.24918656520833324	-0.19936392040624906	-5.455405257479167
O	0.7414360657916668	0.505030953993751	-4.812789257479167
O	1.8397328347916668	0.09836486259375093	-4.303463357479167
O	2.689665914791667	1.035137877593751	-3.863416947479167
O	2.159510904791667	1.978132755593751	-3.2101994674791667
O	1.0334163847916669	2.473049535593751	-3.772316237479167
O	0.3422404977916668	1.722023935593751	-4.574080497479167
O	2.013451014791667	2.873031165593751	-2.050274043479167
O	1.1577603147916669	2.360707935593751	-1.1409747944791668
O	0.2543796307916668	1.649226945593751	-1.824327707479167
O	0.001449150391666789	0.37712819359375094	-1.419663589479167
O	0.05329903789166679	-0.971971044406249	-1.8982945634791668
O	-0.8107672912083332	-1.099938134406249	-2.963114857479167
O	-1.8804749852083333	-0.20339248840624902	-2.926238637479167
O	-2.945574885208333	-0.5797297344062491	-3.755679897479167
O	-3.938587105208333	0.3595515845937509	-3.945836497479167
O	-1.7139850852083331	0.956950139593751	-2.889668977479167
O	-0.6858610992083333	-1.6357635344062489	-0.8123301384791669
O	-1.9700427852083333	-0.8878861044062492	-0.8944906114791669
O	-0.10217421720833322	-1.3437862844062491	0.32471815252083314
O	-0.9216886592083332	-2.878926264406249	-1.507979388479167
O	1.0509130547916667	-0.08142444540624905	-1.768845637479167
O	-0.14552712220833322	-1.5217792744062493	-5.373406827479167
O	-1.2289305052083332	-2.182653724406249	-5.845193947479167
O	-1.8808821052083333	-1.5494964444062491	-6.900968287479167
O	-2.247359355208333	-0.272817522406249	-6.684155997479167
O	-1.2933509152083333	0.43093262479375094	-6.035114447479168
O	3.335875374791667	11.13684603559375	5.254792902520832
O	1.5407568947916668	7.836624625593751	5.942663312520833
O	-2.096781005208333	7.295459325593751	6.617826232520833
O	-2.862793245208333	4.478974675593751	4.379532262520833
O	-6.308283685208333	3.080932105593751	4.1224600225208325
O	-4.334044545208333	3.940758855593751	-0.3818599264791669
O	-4.858350065208333	8.254902375593751	-3.843426517479167
O	-2.467259635208333	10.50568113559375	-2.188437086479167
O	1.0396566147916668	10.172035955593751	-3.7366640474791666
O	-0.48099689920833316	4.662560785593751	-12.011076377479167
O	2.682476044791667	-1.050061934406249	-9.403233297479167
O	4.087223814791667	-4.416459664406249	-8.339818067479166
O	8.474965144791666	7.176389825593751	-7.494821107479167
O	6.531715684791667	6.216560415593751	-4.511237777479167
O	8.244779094791665	4.508813565593751	-2.035130268479167
O	6.941589654791667	7.242882215593751	0.45919669252083306
O	4.539198124791667	9.76973320559375	0.9633006225208331
O	1.1327982747916667	8.52411842559375	1.511908682520833
O	-2.156054485208333	9.951863205593751	2.3399217625208335
O	-4.616427005208333	7.719585225593751	0.687306272520833
O	-8.486883675208334	7.684060735593751	1.0011560325208333
O	-7.851110805208333	12.777985635593751	1.469146582520833
O	-8.367782255208335	10.438881475593751	4.461221962520833
O	-10.294792305208334	-8.661946244406248	2.341633732520833
O	-9.071406555208334	-5.022151474406249	2.527392922520833
O	-8.298924045208334	-3.364768464406249	5.805456882520833
O	-4.952089385208333	-1.7305877044062492	4.925528202520833
O	-3.400159315208333	0.581116946093751	7.535327022520832
O	-0.10204206920833322	-2.7566407844062493	5.3653808725208325
O	1.6399993347916668	-7.823481454406249	7.414878792520833
O	-1.3072957152083333	-9.61090456440625	6.0275370925208325
O	-0.9598155972083332	-10.96060226440625	2.500354472520833
O	10.081209094791665	-11.173463364406249	-1.0400757144791668
O	7.689458324791667	-8.34512133440625	-0.512343662479167
O	6.610816054791667	-1.305054664406249	-3.5893933274791667
O	5.958987384791667	1.1706406865937509	-6.166103267479167
O	7.064232134791667	-0.9459662344062492	-8.956556487479167
O	9.066081484791667	-3.4996558944062492	-7.183262717479167
O	8.781757634791665	-6.842800324406249	-5.368510717479167
O	6.951852624791667	-10.17665236440625	-5.507789697479168
O	7.765963264791667	-13.60859436440625	-4.1233709674791665
O	-1.4786998052083333	-10.818772864406249	-4.972406727479167
O	-4.683294205208333	-9.73884786440625	-6.510767737479167
O	-6.286944375208333	-8.85820618440625	-3.1232834174791666
O	-4.9556175952083334	-7.696914104406249	2.645884002520833
O	-5.362734685208333	-7.332162054406249	6.318751872520833
O	-2.3094784452083332	-5.447960574406249	7.472940382520832
O	-1.8113306552083333	-3.939630694406249	10.908069322520833
