45

O	21.485519519451238	-1.1012119938932352	19.187371934844194
O	22.652980454570695	-0.3784856526310625	18.78103263039434
O	19.968295929518106	-0.2044066652325709	20.972903212488617
O	20.590009961868954	-0.19619090889824675	19.312512040758012
O	20.105894474399463	1.9149936015993465	20.547786825922252
O	19.956946774566386	1.009154743331974	16.278362866845843
O	20.735649990673867	0.5759302203097938	20.491916827389456
O	20.833685811659663	0.906754787732045	18.522937845325828
O	21.306358729584897	-3.002550871115418	18.056043137631143
O	20.59437240014285	2.345222150161626	21.9081258864948
O	20.250673727750634	-3.510326658890855	16.467991186604532
O	22.76222286246088	-3.644557118216418	16.44646196442919
O	20.3389322042248	3.595768108013787	22.665527300061704
O	25.631293691882078	-1.1256023310695902	22.636485822230156
O	23.955627911761123	-1.489755785001302	17.849460039616194
O	20.403773158908464	1.289320302283823	23.02283031889022
O	22.043269501093967	2.602281340626959	22.20635437860302
O	21.876002436605823	1.7679776593675165	19.118748376603588
O	22.837830350650847	0.8274890206426087	19.481859814991502
O	19.849988898793974	1.6997482894549465	18.244350721641432
O	20.922403670245238	0.9662394521021314	17.39041646910787
O	21.353558813293485	-0.3631242222148594	17.119729636776118
O	20.72355289129093	-1.2534545568305435	16.30295949795003
O	19.29320273303308	-1.1285627977967092	16.20533265014491
O	18.63056756054273	-1.838443888784109	17.283793866696858
O	18.67553213905859	-2.8727985473537374	18.12575397973331
O	18.550906191862456	-2.808454271477694	19.477506991806322
O	17.649087202096403	-1.888333216168224	19.90770337480063
O	17.431243082042855	-0.781994616344752	19.136143548115086
O	17.87122060393616	-0.8600254797774849	17.86671617443063
O	20.98254936909007	-2.525814012535535	16.976696758838635
O	20.709630652126275	-4.723490882404104	16.020493879261863
O	21.98915268620867	-4.255430612423314	15.538731682356078
O	21.216331059883817	-3.333325440747238	14.410684849995882
O	19.859419360875215	-3.643732596601497	14.20307381037917
O	23.697404393045563	-2.4452244637031377	19.816360848928234
O	22.705846320321097	-1.925187498625858	20.798499878634047
O	23.58147058787475	-0.9036591386424491	21.491516041322384
O	18.370114062562983	-4.867324264916129	15.40513387622816
O	19.79084860219087	-4.974095550493825	14.790061726331743
O	23.782833185618273	-1.1596647596902512	19.016428543300606
O	23.062594430295665	-0.4671213625245809	22.664299396122736
O	23.94804970563494	0.22452383872531612	23.498458835389712
O	25.082672966998246	-0.5138012235893459	23.673284569330264
O	24.981232609120745	-0.9230756118370139	21.439005186197196
