98

O	0.46174447955319115	2.9362869823468083	0.9086619124595747
O	0.3101155465531912	1.7480915113468085	0.42426100645957465
O	0.7085786315531912	0.9635852273468085	2.2537981224595747
O	3.1817358735531913	-0.03158273765319142	-0.33865045154042533
O	2.1809844835531913	0.1491345923468086	-3.810062957540425
O	1.139870663553191	3.1039027323468087	3.3697088424595742
O	2.3474511035531913	2.5899902623468085	-0.7431059305404253
O	-0.5280433284468089	0.7228798983468085	-0.03508106154042534
O	0.6570547365531911	-0.36230459765319134	2.812981342459575
O	3.3861187235531913	-1.0398489776531916	0.5951502124595747
O	1.447814663553191	-0.9234162376531916	-3.4660202675404257
O	-0.25706896744680885	1.0011865923468086	-1.4231862575404253
O	1.538527963553191	0.08526085234680858	3.943902792459575
O	2.0871345135531914	-1.7459300476531914	0.8706502524595747
O	0.6702940905531911	-2.007354047653191	-3.7035822075404257
O	1.623455533553191	-1.9454913676531913	-0.47810013764042536
O	-0.19602342144680884	2.4131915923468084	-1.5865713475404253
O	2.6863884035531913	0.7087310513468086	3.878506662459574
O	1.4374841735531911	-3.0649906676531913	-4.097416007540425
O	-0.960590326446809	0.4250241553468086	-2.3534820475404254
O	0.8154135375531912	0.6921475033468085	4.920377842459574
O	-0.6223731004468089	-2.2959253876531918	-3.9130712975404256
O	0.03318277985319114	3.0460177323468085	-2.763749117540425
O	3.2644981435531912	1.2876003267468086	5.004224552459575
O	1.0678372715531912	-3.8527089376531913	-5.1500477975404255
O	-0.8614159044468088	1.0156522383468085	-3.6220905375404255
O	1.293034673553191	1.3863080693468086	5.9984249224595745
O	-0.986327566446809	-2.9804765876531913	-5.037526887540426
O	0.45893525355319115	-1.9236480676531913	-0.7273322965404253
O	2.5268624735531913	-2.6508981376531917	-1.2080910525404254
O	-0.20018930744680885	2.2229518023468087	-3.8115538375404254
O	2.4851177735531915	1.9881388593468086	5.883652772459574
O	0.010624881553191148	-3.3809748276531915	-5.926739497540425
O	1.812520313553191	2.7970069723468085	1.3168696524595747
O	3.1768260535531914	1.7251676843468084	2.063778422459575
O	3.1741150935531914	5.721269552346809	2.9131665424595745
O	0.6039470585531912	1.8951617373468086	3.190801192459575
O	0.32253711155319115	3.572634882346809	4.0999530724595745
O	2.2419791435531913	5.186111652346809	5.083176812459574
O	1.7934918935531912	0.29969435134680855	-0.2907493825404253
O	2.3189550835531914	3.6689791223468085	3.4695750524595743
O	4.354798203553191	4.345401212346808	4.392009092459574
O	2.1307610535531913	0.6041280393468086	-2.4535320575404254
O	3.9022637635531914	0.9787192173468086	-1.9421935675404254
O	1.603201723553191	1.6431441663468085	-0.47590085694042533
O	3.090996883553191	2.6184982023468084	-3.7374435175404255
O	2.3849466435531914	1.4111277683468086	-5.446158577540426
O	1.9708260235531911	1.3542581543468086	1.7895091224595745
O	3.1113393435531913	-0.03967979765319152	-1.7338370475404254
O	2.8532317135531913	1.2853773767468086	-4.263039337540425
O	2.9887340235531914	4.643148282346808	3.8702856424595744
O	5.162405233553192	-8.426256637653191	9.729938272459576
O	1.9734940035531912	-6.697454157653191	8.533368802459576
O	-1.1651861264468089	-8.409753167653191	7.330838382459574
O	-1.9244976764468091	-6.479686327653192	4.273721622459575
O	-4.850393006446809	-7.292125367653191	2.1760061924595746
O	-0.5065173974468089	-6.132318117653192	-0.46173593854042533
O	2.6533113735531915	-10.588949027653191	-2.531368677540425
O	4.625572523553191	-11.062928927653191	0.5125955924595746
O	7.722351563553191	-8.84521522765319	0.6696685724595746
O	8.28848448355319	-5.7025271876531916	-8.732626507540425
O	6.294062813553191	0.6091620003468086	-7.0710123375404255
O	5.364463773553191	4.378940772346809	-6.793332907540425
O	13.46684969355319	-2.3161930976531915	-0.22012792954042532
O	10.048535563553191	-2.5533072376531916	1.2649999724595746
O	9.23501220355319	0.018823182346808576	3.658186792459574
O	8.229398063553191	-2.963452737653192	6.1479677024595745
O	7.754379523553191	-6.720953247653192	6.266254242459574
O	4.379075833553191	-7.4442436676531925	4.650023702459574
O	2.295568253553191	-10.514008227653191	4.343053202459575
O	0.33013557855319114	-10.07027272765319	1.2298043724595746
O	-12.676504606446809	-0.2891769976531915	-4.470435187540425
O	-10.012985706446809	-2.4720169476531915	-2.691170677540425
O	-10.37770130644681	-3.2672854976531918	0.9439196024595746
O	-6.864260606446809	-2.6707507876531915	2.1400488324595743
O	-6.001276096446809	-3.653893897653192	5.695333862459575
O	-4.066473486446808	1.0094116753468085	3.8652793324595747
O	-6.200244456446809	6.231442412346809	4.679736692459574
O	-8.58533670644681	5.9246040023468085	1.8819490724595747
O	-7.313570686446809	7.062474122346808	-1.4928540385404254
O	-0.6531238034468088	16.097447172346808	-0.030490099540425364
O	2.1214001635531914	13.54612277234681	-0.7954554835404253
O	1.5402510635531912	9.941671372346809	-0.41047210354042535
O	5.747257503553191	3.377366202346809	-0.5088562951404253
O	8.219164353553191	1.0664759463468085	-2.1649505575404255
O	9.33978340355319	3.302872122346809	-4.866588157540425
O	8.49776928355319	6.5972827923468085	-3.365004437540425
O	5.6751733035531915	9.115091392346809	-3.294635537540425
O	2.8248425335531913	10.57280169234681	-5.3954286575404256
O	0.9624757095531911	13.85763717234681	-5.186330857540425
O	-3.9158486364468086	6.375120902346809	-8.025929957540425
O	-4.707341486446809	3.4740808223468083	-10.134022657540426
O	-7.1994404464468085	1.9204001473468084	-7.6810182375404255
O	-9.67969596644681	3.0773141823468086	-5.204790177540426
O	-8.56314125644681	2.0570237903468085	-1.7766911975404254
O	-10.57045120644681	1.6980483153468087	1.3047974424595747
O	-8.191008256446809	2.0318756613468087	4.1933843324595745
O	-8.72621887644681	1.2292785920468086	7.814452022459574
