33

O	21.78797226570646	2.2846513667921773	24.74075940318138
O	20.780729298460074	1.6835596517168767	23.84265284121413
O	22.555823717088213	-2.236129533157433	18.798856834643498
O	21.394327128284594	-2.7561505915292392	20.67247658972293
O	20.03849274369195	1.5718385278722056	18.325792369643853
O	20.98652679977664	1.3709672207196446	19.426623642651084
O	19.592900153991682	3.366769060212307	19.65477012426958
O	18.9435558309301	2.2547038388044682	19.069468183652944
O	22.800410578083905	0.5491245449110532	21.180170713844305
O	22.12860158555359	-0.11545803115661868	18.31780811886318
O	19.64974675407475	0.2563235561058964	17.77244750002948
O	19.50318270186082	-0.8741872075608824	18.68149666358817
O	23.924857970932297	2.8192574916853124	22.029211812598323
O	24.035624998227593	1.0204692464180005	19.669574853556213
O	18.82160976896826	-0.7694691098387424	19.82791728812667
O	18.29995048930695	-1.8739241665890138	20.420586353125895
O	18.180296920424347	-3.0418922013327734	19.71831097269881
O	18.956083997369596	-3.2111220170597097	18.617573332820683
O	22.487330713533773	4.251723221203906	23.062973469007023
O	19.56045774412803	-2.1097594842759313	18.10529278683836
O	22.806517962533107	2.024548996223486	23.77182973494969
O	22.02821154523498	-0.46431505146837126	20.616700776007217
O	21.482493687423318	0.02267952692946751	19.3652939789742
O	22.426146244980423	-1.7983108086100854	20.21669423461965
O	20.509530425601216	2.1634628954200745	22.558284731442882
O	19.142782563354697	1.825130267553822	22.380065928440654
O	18.67692700169424	0.5829958958662126	22.836212155025947
O	19.73343718008546	-0.23193232673472874	22.986396991657767
O	20.82844092538408	0.3367058669685624	23.64841069414058
O	23.456453042200348	2.9837513800146787	20.67769518076851
O	23.116321322244456	1.6441553644610916	20.233932766836176
O	22.534685802780302	4.092917896977992	20.433778805048473
O	22.72575487421884	3.061264408414435	22.822010679710782
