42

O	22.23196063313798	-2.722713128225065	17.681736612974134
O	22.726738778786522	-3.5584983942712567	18.460406250066388
O	20.950424202875627	-2.842565478945173	17.040442749112906
O	20.9844221273261	-2.5171520482917598	15.724330438730874
O	22.015659462471035	-1.633786896695112	15.153634069580553
O	21.519239362955364	-1.3282129158878546	13.864560467299842
O	21.868979366213512	-0.4177887839879604	15.909139341579275
O	20.820166837016835	0.3165526939282055	15.39379446854451
O	22.042373281848832	-0.363227217555083	17.372395197866133
O	22.835535062905603	-1.4749254282125794	17.689184768364875
O	20.500836716545233	-4.139525067488071	17.667974392577698
O	21.2789007674408	-4.767038306860098	16.659989105326506
O	20.778695717657317	-5.859022159708548	16.136337521728414
O	20.775253889499417	-6.021879622036649	14.815815377852173
O	21.20490345056386	-5.033360583162288	14.069582387882493
O	22.4239260756124	-4.7031725009245715	14.687269539150574
O	22.341345471432614	-4.322030584914958	15.99623787130349
O	21.002058424372642	-5.06650515393758	12.631734310203784
O	21.62343060438174	-3.8440850337697214	12.463729430976558
O	19.801242799125113	-1.7121471373278505	15.457501325470437
O	19.01715917226549	-2.7554085541514595	16.11541571776778
O	18.659048473720972	-3.7861856052085656	15.40568674119556
O	17.843260088165298	-4.729856251439129	15.929674126452419
O	17.480471115373206	-4.499027543885147	17.22524173581051
O	17.419896201545843	-3.247278705207117	17.727710661553754
O	18.105344222936974	-2.3862822238110253	16.973862475146518
O	20.674446183756373	-0.4215539456285151	17.58230809000622
O	20.00887869561292	-1.1070660030803303	18.595569451184023
O	20.0849147470151	-2.2064764327966686	19.41155028594113
O	19.247571202065267	-2.575765987046957	20.33039493636548
O	18.696884613440776	-1.460657566674459	20.87751511637139
O	18.391091277152054	-0.4458745559667969	20.04470499010386
O	18.910335357160626	-0.39710390451225996	18.805982156350083
O	23.440060696722114	-1.5617522174870242	19.16017481719976
O	22.398919959529582	-0.7102700138377526	19.742265938149778
O	22.964465969052057	0.3767674323801553	19.323472633087743
O	22.397995870041523	1.6062162734782786	19.410433702198088
O	21.068270762296113	1.6193912097230738	19.692199773219958
O	21.06852551549955	0.8853062238641263	20.83145113856281
O	21.728237339099877	-0.30639200308420156	20.825513056183482
O	20.333137876007545	2.6279399592773816	18.991291243746204
O	20.56815254828924	2.486500431603395	17.650510175038715
