56

O	18.56608019693384	-7.824419858589471	20.48582087063955
O	18.93165321341002	-7.99108727870053	19.18190592791974
O	21.50514482949655	-5.008481156791407	17.413620055560983
O	19.55262832456798	-6.936195470642645	18.435619109758793
O	23.1340486622712	-3.0289371947336776	18.941751829314043
O	21.830179221552495	-2.780798448253774	15.897739989061451
O	22.493707646113236	-1.8435002634933726	12.755511696376908
O	20.510156201682733	-6.175826981130262	19.14247769320825
O	20.875834441215105	-2.1135126907701784	17.832478016720493
O	24.31069770701889	-3.322713859219938	17.236773575440306
O	20.217407701994386	-6.215328938718544	20.54713820487303
O	21.066516984021522	-2.7073253371819623	14.020654860211566
O	19.158166358386282	-3.852596833624019	14.410812290292306
O	19.54115987695522	-7.218141698825572	21.2193755981119
O	21.19654014133366	-5.173266485182705	14.490262276282674
O	23.371248153018517	-5.096168157728517	14.996887751820253
O	20.902683363258664	-4.898152317509185	18.516441281751696
O	20.847924945062825	-1.0770340947017636	19.71232013709433
O	21.193581404584897	-4.141578618952478	19.53579654255833
O	20.484838295480415	0.43576701157183484	17.69403912282306
O	20.736055118171066	-3.976208602022673	20.776857636439335
O	21.086528006678577	-8.200091287637926	15.081278131173526
O	20.840711064626955	-5.258414987705707	21.34864479677171
O	21.88694994792428	0.7313751589185946	16.22459025115947
O	22.83850994216026	-5.0040371256434	17.47125131692641
O	23.236591596445074	-3.7111030032794607	17.80439355096296
O	23.074558737648083	-1.1498883145643286	17.485682634121943
O	21.470655463498108	-1.5936875476359817	18.900154452486568
O	20.58042277101933	-2.084897389884893	16.538817350315245
O	20.665950234379558	-3.4429051115511493	16.082799636614308
O	19.378250912010543	-1.750923448781134	15.950539438556412
O	20.21372591633846	-3.486177153846139	14.765970475546544
O	22.464507521806922	-3.3774962048349644	13.952002132097
O	22.111875231887126	-3.5605693577481343	12.53954089196862
O	21.686489168990413	-1.5686400734616612	14.43288936583252
O	22.417843160754735	-4.73674950928366	14.387021781029791
O	22.911286701101215	-1.6736866012979856	18.950049635313476
O	18.900220016867326	-2.787429048096798	16.938998175130987
O	18.64568721767706	-4.090088275372716	16.878212261578327
O	17.701869080804123	-4.556871097424963	17.68348687925707
O	17.891844148850453	-4.137325529841849	18.995377078730456
O	18.214512088791125	-2.8475213641561736	19.18482084196915
O	18.777409861719452	-2.2180800894113526	18.150915545707885
O	22.198320338835593	1.033974762614874	18.766137584928405
O	20.75378782802731	-3.980120749254187	12.229505933166664
O	22.809778249523355	-4.183377241286471	11.546835267119722
O	20.704913124466522	-6.255815735653084	15.049091376349272
O	20.846633002030693	-6.565173268722524	13.577181286953325
O	19.93215891877413	-7.193982533316227	12.882424729637533
O	20.27227277887931	-8.519288353948557	12.471761755260573
O	21.79186886869747	-7.046743839708595	15.535533031461568
O	22.141036914654514	-6.812504719010264	13.356320706827663
O	22.288863693661238	-7.283774856564143	12.041677940446073
O	21.53428044656523	-8.439076610941399	11.858875067582996
O	22.883333775216876	-7.258638366688343	14.606462735867893
O	21.771007431873297	-0.08958772243732094	17.410656951265864
