52

O	23.297669290379464	-2.141036048362092	19.385709706751708
O	24.29376356973988	-2.889354944566734	20.00421534358855
O	24.815103305771395	-2.2704930750330043	21.151320757081837
O	23.8885706403059	-1.6225046076151826	21.896413457956655
O	22.60180409425187	-1.593007081476916	21.545045551819143
O	22.351679582022744	-1.9368954638499762	20.28529043026827
O	19.14034686340447	-3.7312164229857525	18.50862963349988
O	19.99876435054984	-3.929634014032224	19.491035042812193
O	19.554593235484106	-3.966313034284243	20.76524235294428
O	18.172790657094033	-4.006261720460312	20.89182395861151
O	17.413953551042777	-4.486123829337471	19.874542848204108
O	18.172176198705642	-4.709705080540454	18.72437095114558
O	19.085195297507024	-3.0665422796815704	17.362226670404173
O	19.618578211179166	-1.9325182995855892	17.218168947342097
O	19.55568953444669	-1.6652881679711973	15.880618139494937
O	20.637887454876303	-1.1429026159585614	15.114189223506559
O	21.895515395784937	-1.7213193241742542	15.478043543504558
O	22.066488801554232	-1.1420213899852047	16.70817994425406
O	21.085114830650557	-0.10503162713014125	17.00099044105707
O	20.32643185742765	0.6403412927853303	16.417501810155567
O	21.459283671996232	0.3084714444802672	18.186513617656793
O	22.060292260850698	-2.0097510759724413	17.72290843520863
O	23.240441746784562	-2.4544302422093422	17.962691620018134
O	22.85423151067973	-1.364164065003986	14.59662487400674
O	20.466772525976463	-1.3197273838456647	13.769057347371856
O	19.938563392938153	-3.0021262781139617	15.391026936101877
O	19.90873996424215	-3.495371959305506	14.297670181117718
O	20.86847448075973	-3.534177347072376	16.267363487599702
O	21.23504129271748	-4.747502086861221	16.265971000270703
O	20.178221453561566	-5.312936872126693	15.37063995503186
O	20.81658140680102	-6.00138352326641	14.457776213414954
O	18.92880249192313	-5.621182032214984	15.764199341702666
O	18.72860366726738	-7.006788998172977	15.96508363397854
O	19.270489411312056	-7.663776318772003	14.834573658235733
O	22.358299044667877	-4.826143413670771	15.453292366191539
O	22.1833002701103	-4.325133397515838	14.153326636467575
O	20.0391178188962	-6.959287480327058	13.875324440138758
O	22.13679398019581	-6.321087266356901	15.215235748266323
O	20.81251777718905	1.402033190599071	18.815353798110657
O	19.64615294704659	0.6300170395462303	19.08038060819868
O	19.893134797434065	0.27336349229749746	20.30593641062771
O	18.6341335502888	0.0007386516804990251	18.520471686251405
O	17.79153203244616	-0.8736597483836189	19.225241159023028
O	18.140324194703908	-1.1536803960789301	20.448241659705452
O	21.699649128094006	1.1449654286043938	19.94970437523313
O	22.939487723016978	1.0169271687708004	19.56112476618061
O	19.042053223085667	-0.41946094631171293	21.09223243612208
O	20.890011531418	1.0943921516952684	21.047270004267958
O	20.100118031305996	-3.248020318816677	21.722652424897444
O	21.793586906116815	-0.9759449810654733	22.396671498810306
O	21.248268092207084	-1.7589701233728747	19.673420070681825
O	21.185984364158237	-4.386573485681877	19.19087588327199
