39

O	18.28882137147368	-2.0109326057117802	15.181775953663703
O	17.798584425222025	-0.28529234997265807	16.545141145847747
O	17.281930878808602	-2.1564190214426633	19.918730325688614
O	17.13113059964285	-2.701781723522389	18.646690731192333
O	18.48365050730621	-1.8880659184817665	20.502447334343472
O	18.306059586413355	-3.0987778689448606	18.076393330427585
O	19.546386382920094	-2.216149738504715	19.71108370545236
O	21.751811951971668	-5.46401499999558	14.747651031839537
O	20.07767712110404	-5.126889697940219	16.150434606577573
O	21.43314568244503	-4.251197639048698	14.055681820908166
O	19.828281588603414	-4.037162748814419	15.361650868140345
O	21.001664303230907	0.5067449290326156	20.75327907837444
O	23.198351092370995	2.161909107216885	19.334108699036776
O	20.314218258408893	-2.0450404733509355	17.49418151950782
O	19.827849147796837	0.04062351470295855	16.073971662781577
O	22.007711159336562	-1.0299735015383704	16.845933423099293
O	22.29337248670079	-5.939926616036807	17.14504889415155
O	21.76404553505044	-2.1266582201179363	19.139393121824153
O	23.845794223603768	-1.484029415299832	18.67539884699472
O	22.46026811058512	-1.5419299849120105	14.41112942359391
O	20.312277844270742	-0.9891422895477437	13.746069895682691
O	23.023876683130133	-3.036149176405723	16.496180137971074
O	20.636595008602406	1.7711543570443196	20.922741452737235
O	22.86129340871317	-1.3102247490899068	19.406110712507925
O	21.37500456738437	-5.628125673963501	16.090470271006605
O	19.334454106645488	-2.2850177982240094	18.383867242884946
O	20.797761006235373	-3.2991862864322936	14.789577316487563
O	18.787319334532782	-0.7377049740588963	15.475846830946566
O	21.946950601292386	-2.507345652831944	16.810284214658566
O	20.456459575739043	0.5157729667550972	19.299829291532884
O	21.396668187978378	-2.914193033384562	18.05632816836666
O	22.54159359057866	1.0692803193723188	18.69386713416721
O	21.16911118033294	2.5591024588881335	19.844576515328622
O	21.141080467340156	1.6836373181051165	18.586981559821535
O	21.00327805842511	-0.5806436767714298	16.06497301346571
O	22.447531317379287	2.3289573181160574	20.429349956163986
O	22.69886750530538	0.029713402359779817	19.57454259432825
O	21.032717939576198	-1.657231877201835	14.746313784983064
O	18.999534512030408	1.190441497311551	19.22973429602208
