102

O	-0.038462476399999876	-0.4883427868843142	3.892409729768628
O	0.07149586398000013	-1.2832211568843142	2.6660057997686275
O	-2.4937659304	0.8181408981156857	5.134460649768627
O	3.6603182896	1.9054896701156858	1.7914075997686276
O	-2.1174832904	-1.9047317668843142	1.8410235497686274
O	2.1799020296	-3.4155545468843145	1.6725194197686277
O	2.0804366096	-3.287528616884314	-0.9597194982313725
O	0.39031972260000014	-3.300191406884314	0.2938722677686275
O	2.7216833596	4.681359433115686	-1.4860511032313726
O	7.7599726496	3.475881263115686	-1.1176733772313725
O	2.8263006595999998	4.0980946731156855	-0.28394795723137245
O	1.6485688896000001	4.269935363115685	-2.1528031402313728
O	7.9836406896	2.101902343115686	-1.2315656302313724
O	6.4480677496	3.7573910931156855	-0.7069263272313725
O	2.4267709096	2.767577853115686	-0.24313137723137246
O	0.9469142476000001	3.1925141431156856	-1.6576930002313726
O	7.0456399596	1.4656334321156859	-1.9669584602313726
O	2.6712000096	1.3260062541156858	-3.1619658802313726
O	3.8733156596	-0.5098277368843143	-3.2487528702313724
O	3.7423121195999998	2.109915513115686	-3.1704292402313725
O	4.9761707096	0.22318513311568577	-3.1810311502313726
O	1.0109612526000002	-0.37539575688431426	2.1965511097686274
O	2.0105177596	-0.38260936688431424	2.9344012497686274
O	-1.6582674203999999	0.5400174131156857	2.8446188697686274
O	4.6370584996	0.17621979111568575	-0.30701883023137244
O	3.4044923996	-1.603882146884314	-1.4050011762313726
O	-1.0145358803999998	0.14932488411568579	0.43631177976862756
O	-1.0989193303999998	-1.9986730468843144	2.7915248597686277
O	0.07520729080000013	1.7257118361156858	-0.2649581602313725
O	1.4803901896000002	-0.7121131268843142	-3.0130172402313726
O	-0.015788623199999866	-0.6260732368843143	-1.2441597942313725
O	-0.6518982694	0.8029314441156857	3.5216786597686274
O	3.9447361796	-0.010035759884314266	0.6246617697686276
O	2.4275306496	-1.1390670568843144	-0.8584008602313724
O	1.2245610296000002	2.468982393115686	-0.5760618620613724
O	2.7702303996	0.06465670211568575	-3.0041040802313725
O	4.9560715696	1.5627536911156859	-3.1442864902313725
O	5.9000368596	2.206944223115686	-2.2564638602313725
O	0.21842941160000012	-0.28501054688431426	0.07793029476862756
O	0.9591434266000001	0.8216928401156858	0.4124610897686275
O	2.5439958396	-1.7795804468843142	0.4202735857686275
O	1.7166652596000003	-2.9023439068843144	0.4199811897686275
O	5.5085280796	2.9852421331156855	-1.2722695522313725
O	3.7313895096	-1.3950003568843141	0.9593293097686275
O	0.7173622726000001	0.9251214842156857	1.7716887197686275
O	2.1518758796	0.09015184011568578	-1.1289420912313726
O	0.9545790756000001	0.06509780111568575	-1.8954828702313724
O	-1.1592518304	1.2039118261156858	4.805044849768628
O	4.3735423896	0.7738189911156858	1.6671040297686277
O	-0.4994477283999999	-3.2839983268843143	3.2144005097686277
O	-1.9334876803999996	-1.8481174868843144	4.087093439768628
O	-10.9446858104	7.777797303115685	-0.08639098123137245
O	-9.9391349104	4.151540203115686	-0.6073940094313725
O	-9.8129588004	2.363940583115686	-3.9190003102313726
O	-6.4632356104	0.6751493021156858	-3.8337350802313725
O	-5.4717697304	-1.5169957868843142	-6.837453220231373
O	-1.5508584303999997	1.6183676551156858	-5.167715350231372
O	-0.3645601133999999	6.557128023115686	-7.161482220231372
O	-3.1290693704	8.602202243115686	-5.668983260231373
O	-2.1494244404000002	10.179487553115687	-2.2757976602313725
O	7.8447423396	8.213337673115685	-2.7895056602313724
O	7.3553564896	3.3306330731156857	2.1290235497686276
O	7.9714003796	0.7164504311156857	4.580701349768628
O	11.5145110896	0.8369532052156857	5.569011929768628
O	8.9958251696	9.528266223115686	2.3187257097686276
O	8.6247728496	13.172808573115686	1.1672955697686276
O	1.6685103296000001	11.465363973115686	5.463510459768628
O	-0.4478641613999999	8.675469013115686	4.121003199768628
O	-2.3437602504	6.688703623115686	6.574218889768627
O	-5.5537327304	7.420342783115686	4.4882904997686275
O	-6.6529149604	8.949353523115686	1.3056024597686275
O	-6.0223804204	6.4720119031156855	-1.4351707902313726
O	-7.0468578804	6.374253973115685	-5.058092280231373
O	-4.3504517404	4.389449263115686	-6.813959680231372
O	-4.1664861404	3.0445727731156857	-10.365550270231372
O	-3.3256114404	6.304550403115686	-12.035282880231373
O	-8.5245610204	4.041154983115685	-11.217302080231374
O	1.2486585796000003	-12.176245626884313	-6.520495070231373
O	-0.5430086113999999	-8.759695226884315	-6.700211820231372
O	-4.2894031504	-8.473156806884313	-6.326119320231372
O	-4.4492685704	-5.5736777268843145	-3.8297799402313726
O	-7.8754833304	-4.108102486884315	-2.9418537002313725
O	-4.6359598204	-4.590209016884314	1.1295511697686276
O	-4.5434443004	-8.753934476884314	4.762370639768628
O	-2.4488089204	-11.077394126884315	2.5774939297686275
O	1.2997169596000002	-10.831567626884313	2.9822884997686274
O	2.1229818896	-4.479399006884314	10.106953619768626
O	2.1288027996	2.075471863115686	5.918008319768628
O	3.4400194696	5.154878313115686	4.800701099768627
O	6.9465030896	4.989022213115685	6.221964799768628
O	6.2127743196	2.698849063115686	8.975818679768627
O	5.9772560296	-0.9460340868843142	9.971301919768628
O	7.6429615296	-4.330646126884314	9.636475919768626
O	7.5531396896	-7.489698276884313	11.733255019768627
O	10.3241016896	-9.197072526884314	4.471225409768628
O	8.1131036196	-7.940637516884314	1.8279353097686277
O	9.2963475796	-7.230711436884313	-1.6753396402313725
O	6.0036749996	-8.475976286884313	-3.2511533002313726
O	3.4683629796	-11.264803426884313	-2.6280294302313725
O	0.11859661500000013	-9.529456226884314	-1.8461567002313723
O	-3.3059110004	-10.886966726884314	-2.0476049702313723
O	-5.5205148204	-8.835129156884314	0.2068316717686275
