46

O	20.144283900447174	-5.302157207690439	20.315907778253386
O	20.69554080713752	-5.852477761710134	21.430849902421823
O	23.091512818532077	-3.850777159714791	17.340821524821482
O	20.533139552699243	0.4056331287461781	18.493630551854434
O	21.093880992130448	-5.142615195709075	19.282176284902892
O	21.93227412077664	-1.8871958943632474	18.99034087891992
O	21.403331170583677	-1.6799464258186858	14.78496304844757
O	22.050351330080435	-7.717843224714012	14.891088690843592
O	22.258464119089684	-4.494757491872102	19.48865971466321
O	20.349930036777995	-3.5706449153779296	17.070423724682993
O	22.82440746299365	-0.5750763618725563	17.772689782923134
O	22.412758185035848	-4.304745739191244	20.904758419732936
O	22.45898932938364	-4.980967121283214	14.954753183592203
O	21.630517832784204	-3.7084402376574386	13.286822968305193
O	21.810293848307087	-5.211007519970834	21.779964064309052
O	21.46721402261837	-6.04079600530298	12.909778374389663
O	20.01812413785243	-6.916910025493325	14.176621020189748
O	22.992078255962866	-3.763280382659489	18.650133005978017
O	20.588811316152874	-1.3064275501133489	16.92576282500621
O	24.005225965490624	-2.9669295521350207	19.195505305612812
O	24.381898072834975	-3.0548530839673953	20.539658077777855
O	23.502581596835054	-3.654398890889904	21.436564961786665
O	23.46907772283731	-2.5247806416597705	16.82709035083266
O	22.593863161008734	-1.7506666242910673	17.77461168430856
O	19.94578328504549	-0.9424482395620823	19.44966350593384
O	20.360557652894947	-2.3136879450619947	17.55626187971516
O	20.537537057263698	-3.5915604410642015	15.674176862954436
O	21.53502278079907	-2.838245691277003	15.220346127735757
O	19.356406182911165	-3.078757826311667	15.155955119346896
O	22.222390507162753	-3.7180773953758335	14.311718092508901
O	21.237397253338766	-5.527844947275195	15.379765391572906
O	21.37184174897084	-6.660774466803867	16.273756713427144
O	22.949444122763435	-6.223177748146494	14.468515400151038
O	20.719191905540093	-5.9064591308604095	14.083714489244608
O	21.27920040870923	-6.875773902781791	11.792661970915134
O	22.13880701279406	-8.055122823664263	11.497996286546275
O	21.390603809956932	-6.077062507732718	10.557409989780655
O	19.965725306880106	-7.527851579864087	12.08860466326508
O	20.60197509649816	-2.080298690078568	18.97340494796989
O	21.27431954555427	1.5907187043204654	19.606828394043475
O	18.506123117244293	-3.8515830023324993	16.14321451043741
O	18.522569544217873	-5.156425301366694	16.354674344360493
O	18.286832416857933	-5.720519968432326	17.533659305363322
O	17.55557058599357	-4.96303023145806	18.382915274594588
O	17.828697763677454	-3.673756380954325	18.48459695389196
O	18.102688844171873	-3.1489467922527004	17.227613133265855
