42

O	22.25142868468579	-2.732382565499927	17.6793477424553
O	22.75588520817626	-3.5793453171541905	18.439505400746423
O	20.97185052030618	-2.848736337609253	17.034494778363985
O	20.989172631788858	-2.517512711145591	15.709005187359125
O	22.024651140164035	-1.6256776547445964	15.171759692964164
O	21.5356742642662	-1.2931843916182568	13.885461909498186
O	21.877008467279104	-0.4275327078278732	15.951009765537144
O	20.830108541906476	0.31955604591742226	15.430139709090994
O	22.06429448350158	-0.36232551524941914	17.410358450155055
O	22.83058759213125	-1.4784401959852187	17.749856651547265
O	20.509239938405102	-4.142693419164537	17.657295991767352
O	21.298171514868177	-4.772148474422172	16.663499406682373
O	20.79458310726554	-5.8674105240161865	16.151439460658317
O	20.800274246171824	-6.055405617654755	14.83529035817512
O	21.21478883797056	-5.069449024188316	14.076644363693344
O	22.429582029534632	-4.711299723548293	14.68513870276988
O	22.349640327785142	-4.323024651477098	15.988907239493965
O	20.999361787831266	-5.084860246465849	12.644789626836463
O	21.564276032380917	-3.818756841714305	12.500959218686443
O	19.80043859877813	-1.7057680406668272	15.475527908921723
O	19.018061618567728	-2.7600707217648663	16.1202585634797
O	18.139811638887355	-2.4398241392766247	17.021641018513474
O	17.43919877739527	-3.3089276102698904	17.740828165619003
O	17.487093588300713	-4.540928695749465	17.18656122011445
O	17.861549440998086	-4.7475719890725605	15.892713886071451
O	18.687123431081275	-3.7959560513301875	15.405422257618113
O	20.7026403457206	-0.43626144376345843	17.609594851109097
O	20.031580000741652	-1.1403433043313658	18.60474876929113
O	18.917326020303246	-0.4405064104136369	18.75884103347983
O	18.236779740961044	-0.6309531342249857	19.892661527891534
O	18.64285032221292	-1.5265025956359197	20.818368522552163
O	19.274328621078894	-2.623586134846505	20.32263151908109
O	20.134982096431944	-2.2222846047332845	19.43754536754075
O	23.39657920273685	-1.5679519918378895	19.228618694375896
O	22.374048985327768	-0.6826773611964092	19.78718387058267
O	21.666672131795718	-0.2800128992678568	20.84936259893573
O	20.952151830554172	0.8763449385290061	20.805677368932585
O	21.028794672376264	1.6327632614032024	19.683668633674237
O	22.36979081258217	1.627092283150969	19.457082162498
O	22.944636329552193	0.40184675303329787	19.37408504486748
O	20.297474932273637	2.622250461868271	18.95565068094153
O	20.552675522465563	2.4697152453602778	17.622316879452566
