45

O	23.09289899073053	-2.93114488885611	15.562885440727996
O	22.830167752372404	-1.7180593352688893	16.235160399805544
O	22.27471691108028	-5.4679340743447575	16.557449199642623
O	21.99972468179249	-3.6154465020510207	16.27373291301976
O	21.23839789671654	-5.610911933945497	14.548531647150538
O	18.57409240838933	-4.247861913759313	15.845492733970648
O	21.95187302251497	-4.88144065315085	15.565061552037706
O	21.20238574082159	-3.026483337918419	15.170987071840907
O	20.444040796200046	-0.11348254877078978	16.92085131111375
O	21.28823910762374	-7.009323221520218	14.637230077645773
O	21.18982365706428	-1.0398052890072358	18.742972257362684
O	24.107100363187516	0.42452811456798	19.42476035383018
O	22.086570214449587	-7.488148375488886	15.895856870825668
O	24.443069562886865	-2.6811091751923035	20.74942565387653
O	20.09839644626326	-7.8459431815338885	14.92292319872165
O	21.97514404119232	-7.95719449069908	13.712745672950032
O	21.367594452929577	-1.9182843466910737	14.458125382904452
O	22.02060215954651	-1.0672494370077283	15.429356705223382
O	20.121286561376177	-3.7001648937527367	14.79501262805309
O	19.892379901877828	-4.207497309975191	16.23552566110818
O	20.36253991505233	-3.308203347512661	17.271879704636106
O	20.03088212643548	-2.021516467711998	16.62991668803719
O	18.772212708747244	-2.0764334516671044	16.313063143624063
O	18.448747559630153	-2.2897407474912783	17.7416270742361
O	18.80317115172321	-3.3117307129520572	18.541413606464015
O	19.09168107051365	-3.321868372278853	19.826101802716266
O	19.048111254677647	-2.1563757299711908	20.514297142207433
O	18.515494060857637	-1.1023742604336095	19.884257583578776
O	18.476247220506014	-1.1819714193768305	18.51877798802035
O	20.36092615222646	-1.0612971950080965	17.689226187782797
O	22.210818358714672	-0.006080300739599087	18.458636043467656
O	22.926437199505038	-0.037119276238601895	19.685407123372965
O	21.98818806718327	0.035762433898133716	20.701690259127517
O	21.188100774379635	0.9592377651541826	19.902668472806244
O	20.91092551144677	2.263336449010007	20.368671440484974
O	19.527632624655723	2.0637450222927116	20.244692577677505
O	19.150999329466718	1.8995165859795957	18.94860612381197
O	20.12397843950527	1.5796028239528317	18.07815493996314
O	21.245152968919196	1.0304732046602925	18.577245161795396
O	23.312584833070098	-2.1015721535681076	17.37164529180723
O	23.235258497945278	-2.8870163517730547	18.55712421035094
O	24.370641736355452	-2.729999289485242	19.404250260136312
O	23.33423299286993	-2.891644584114661	21.438524173184582
O	22.220400969777568	-3.249115241962334	20.750697987255133
O	22.36961074220601	-3.5418677738313704	19.37797988072868
