35

O	21.03452762924038	-4.532482028311011	13.683608356606126
O	22.96088080625451	-4.834329047202028	17.073599367627633
O	23.03404831219517	-5.093641360313499	14.701451420136507
O	22.031472643963813	-0.6548884746926369	16.794774109462537
O	22.811013964245173	-4.292641920772047	12.489896166320081
O	21.601950151393833	-1.890218611175838	15.811680955796447
O	21.15209865133754	-5.173134981261571	15.812282782583878
O	22.402414988834202	-5.370861162403643	15.866809992485887
O	22.44092430716386	-0.657091041128689	22.605785290434145
O	24.489329299718055	-2.982385602530412	17.08149970667475
O	22.50014437038918	-4.023023771887627	13.880372763612055
O	21.3920619093625	0.5212716105208879	16.379786811760834
O	22.49139243312927	-3.6877586325591007	17.82477522100936
O	23.502141440458313	-0.5974970418633994	16.35926414225172
O	23.253786813327444	-2.5749452179300443	17.237338336777402
O	21.47459001153665	-5.888708927423537	13.550661962480865
O	21.22060032736973	-3.4483099021936656	16.95500191571454
O	20.35855319411406	-3.368554925932443	18.02440339265792
O	20.53916227344511	-2.8718755563070717	19.25000803163438
O	19.23325191202206	-4.062383000983954	17.80752510254732
O	19.430841318669653	-2.3005135245185118	19.847774267177577
O	18.13703564156373	-3.837512476218551	18.557660427779155
O	18.37057230364622	-3.196891097783686	19.740300160647493
O	22.793393670122995	-2.6265178652738514	15.744889324768915
O	20.650628480427457	-1.6078282465000269	14.952001635266207
O	19.39601316924499	-1.3164200347600281	15.62586985393856
O	22.321761012893894	-0.6541240729551524	18.409638036470046
O	21.583067708180756	0.23031870492595874	19.1389088749677
O	21.50452185489577	0.23712867940973759	20.544576104160278
O	22.488715050069047	-0.4939789785620785	21.199404720637254
O	23.54761010727379	-1.0302776799075912	20.475053036761288
O	23.49612603718691	-0.7711469222646634	19.099175640930852
O	19.2774955677921	-0.7469277742849537	16.951689689962652
O	18.522951064246833	-2.5048090174108886	15.494405142403048
O	22.421527083537846	-5.731625725172885	12.582021053939666
