55

O	20.498898520982323	-0.09706127815107934	18.16402822790078
O	20.491485946668973	0.7060635229036254	19.189083113165164
O	21.48635218778265	1.6262573634154582	23.34676875376987
O	25.020757540632623	-2.7160290574403705	20.221628181391395
O	24.241065330816156	-2.7950766150846302	15.81912412871652
O	19.720639536947466	-4.443786297137055	12.45308882408645
O	19.8535221781994	-6.520456707319857	13.234430189406835
O	18.501435821927252	-4.999836057644859	14.42726947179305
O	22.34016379654209	1.0329321675866925	22.581660364835415
O	24.563931471626354	-1.9603511213087956	21.173073367715944
O	21.642619755482986	-3.032786141387496	21.38481219134593
O	21.95488159168174	-1.9525245055910387	23.33726807740987
O	20.794188104511733	-2.050683609838285	21.038664514395677
O	20.634883969614798	-1.5080373470701447	23.282021272837255
O	23.704596624215107	-0.039060761204738226	18.92458594299521
O	23.318996629250243	-2.1663413907188533	18.826410110874413
O	22.983199426569858	0.2718499944203845	17.833057786537257
O	22.50614888093275	-1.9271252385354916	17.82539786119563
O	19.53855711728085	-3.599153812178036	18.133957143043272
O	18.326689160296652	-1.798701344065952	18.45568191768683
O	20.465879973429814	-3.207498347981611	18.980986135547447
O	20.988875903441468	0.8652214465919885	20.466558869773145
O	20.118528632903143	1.1110558062108755	21.256066930803705
O	22.193910603253276	-4.593338614896051	17.050608096364055
O	19.852137444618663	-4.831378384780117	16.25798292484509
O	20.331769691244777	1.3743798222273387	16.67179581323762
O	20.753513241912867	0.014105224891118207	14.705409866768973
O	19.982377532889753	1.9732506262889806	18.6823076237385
O	19.032380180572442	-1.592450096620183	19.560626683371474
O	22.8888144039781	1.7779868277401063	21.489994266188585
O	21.265231651085585	-2.303135801404418	14.402458371217907
O	23.81427162672348	-0.8328323844144414	20.871247819971128
O	19.777461580984234	-1.8840183269708792	14.44159294903656
O	21.745008681782735	-1.7284408054449347	15.630224339828478
O	18.33592001541034	-2.512433830316029	16.27009036341862
O	22.333617885862363	-0.49121031237871016	16.03122549409925
O	22.592699595548766	-4.42698529942826	15.916208366530505
O	20.287710216622365	-4.038347941226473	15.439628638414986
O	20.329953487670238	0.12254035361916782	16.911792319156373
O	23.23977970863791	-1.0631725961838867	19.62779789845742
O	18.696129387218434	-2.7660723309485116	17.668166916545907
O	22.23428266051302	-0.7712000081513835	17.50494578231384
O	20.035918952571546	-1.6147430296098249	22.074750268449336
O	20.0861968901513	-2.330369088515013	19.85532291497719
O	20.90434904742161	-4.950238537176922	14.455792454951329
O	22.153874012820257	-3.08829731522604	22.59772595917664
O	21.984290698006994	1.848859953956887	20.41943955173376
O	21.896067206680105	-5.505985075822397	15.211428201454959
O	20.39847696460162	-3.0133062984506136	16.241480867818616
O	23.842240948406754	-4.0429743287041635	16.23060329708415
O	18.61079740564147	1.433757103339447	18.596217722637757
O	20.008188619480233	2.860689299898878	19.8399680467261
O	19.76952771268403	-5.1404512871585215	13.675106485740322
O	20.941733736828436	-0.5826498707463862	15.90301669130484
O	19.496015108160996	-1.9895964191883357	15.81456709950728
