51

O	23.668100013163794	-1.1055920888673538	18.603227610317774
O	22.838099839105215	0.0655787956386904	18.640572309672493
O	24.349380568835976	-3.181514612179412	16.234285070140928
O	17.877033083745637	-4.881821907224227	14.729163271382637
O	21.57931006094817	1.4369468566172543	16.63094258737223
O	20.217143049316757	-4.338013887183756	13.152326781996468
O	21.582475353097266	-5.6363460443801845	12.230412187609113
O	22.08523193184218	-3.1086382211811805	13.095713645251383
O	20.876939832908867	1.5726837466538748	21.68003415992518
O	19.668574251471487	-1.6875902651651344	23.022348889443368
O	21.113804888685568	2.346675531874538	20.591957918474115
O	19.807673448948464	0.7660161708368878	21.499381214020623
O	18.463409741690427	-2.0746200725790875	22.609544234341342
O	20.693384929300095	-2.303620825839996	22.363841508373692
O	20.47312505781402	2.006894070282319	19.444742965342368
O	19.523726008452062	0.12814080265818717	20.285806995140028
O	18.320763954231797	-2.8968097688525773	21.532004206397517
O	19.797210255529638	-4.032291018593468	17.390011399792414
O	17.965185314601452	-2.8739730688644824	17.532258413670746
O	19.94758115709159	-4.109077741621759	18.676741392797002
O	18.254966758890607	-2.5652659333013497	18.79853559901853
O	21.80308262776821	-0.5491224794960157	19.385769212989764
O	22.247184267770635	-0.9952816880438607	20.41982509548087
O	22.63277666145317	-2.9226981929643676	18.74793469893298
O	20.238840429953072	-6.061699191462845	16.012257891508163
O	21.816125119978846	-4.5546223405045545	16.380793931995505
O	19.565954851268927	-0.641664571674992	16.182687957859333
O	22.379564351814373	0.4475419779648595	17.280027446455595
O	19.598421552392026	0.2894852147457794	17.990729762839802
O	18.8233066913288	-2.4743452010222047	15.561117366543684
O	20.966962179910436	-1.476883524455539	15.213578835361194
O	22.960106676821788	-2.150815214494753	17.8258542041176
O	20.08519968512704	-5.538863136719982	14.917745056974242
O	21.802980841635154	-3.8884038317385183	15.330111918277408
O	20.065506025458397	0.760665939446985	19.264819098855032
O	19.01587479853766	-3.2123120022503815	16.85849473052388
O	19.095828976076174	-3.408978433454563	19.389686295760153
O	19.385512737184637	-3.054020164680743	20.71839941210613
O	20.45638171086799	-1.583058347561114	16.561546798775332
O	20.331953120018174	-0.926520162181886	17.7604141318723
O	22.200575942951712	-4.995654257986212	14.350401231778728
O	21.663158570485816	-4.41786363462497	13.085312053465238
O	20.55468631434329	-2.8591156906668678	21.12824059484411
O	21.29369144283016	-6.14189642274439	14.486470291605478
O	21.066944889823656	-1.3181334968488487	18.639316484784946
O	20.554416633248167	-3.565299835446587	15.297100548264082
O	20.038826493428314	-2.4497842388247557	14.940088211505664
O	23.888735747606585	-3.1245681297645227	17.516981321144513
O	18.754025460902607	-5.960371611536054	14.88093379705997
O	22.795640915985466	-0.552718338714135	16.418079804440783
O	23.071152993652767	1.2969662722950606	18.2732544085615
