105

O	5.305277280662745	-0.028842060060784158	3.578643421137255
O	4.577580500662745	-0.24934667706078417	2.466634351137255
O	3.3356086806627445	2.751140022939216	2.170193751137255
O	1.200062260662745	0.8713568943392158	-0.25721264286274526
O	1.4529054206627448	-1.0335526670607842	0.8684911631372548
O	-1.4463584673372551	-0.14922409806078418	0.8304520181372548
O	-2.523744479337255	-2.964115777060784	2.0502197911372546
O	4.719678360662745	0.4360999349392159	4.802968331137254
O	4.804051780662745	1.6567952279392157	4.9279509211372545
O	5.336143250662745	-0.10016475506078415	1.2645667111372547
O	4.590083940662745	2.646229292939216	1.472838107137255
O	0.31525413566274485	1.9570127529392158	0.05955147413725481
O	2.450712700662745	-1.946391517060784	1.0789214811372547
O	-2.5394185093372554	0.6947202969392159	0.8204798381372548
O	-2.349921069337255	-2.4104832170607837	3.339495921137255
O	0.2986325716627448	2.3189011029392157	1.4608893311372548
O	4.692444160662745	2.737453092939216	0.1934393181372548
O	6.743189050662745	0.35697601393921585	1.3049184991372549
O	5.567880640662745	3.025529662939216	2.3913627311372547
O	2.179095400662745	-2.5146533870607843	2.2733207711372545
O	-2.728779009337255	1.8861694929392159	1.378529155137255
O	-2.616802929337255	-1.007479907060784	3.080580901137255
O	4.624532740662745	-0.13880871506078418	0.13561325813725478
O	0.31090951566274483	1.970803462939216	2.856700191137255
O	3.684626350662745	2.6824052429392156	-0.7622596988627452
O	2.6127890306627446	-2.6105139370607837	3.587660141137255
O	-2.8267020393372553	2.3594370029392158	2.728220971137255
O	-4.055682019337255	-0.7643263770607842	3.207379181137255
O	0.6630071606627448	2.774454162939216	3.961751201137255
O	3.7717384506627454	-2.6884447370607845	4.3725154611372545
O	-4.726957869337255	-0.8240681770607841	4.402430991137255
O	-2.538918089337255	1.9220682029392158	4.062845871137254
O	-2.253870569337255	3.512385902939216	2.7344787611372547
O	-5.443550239337255	-1.562540227060784	5.133972741137255
O	4.776498920662745	-0.19017838706078405	6.163880111137255
O	-5.081872379337255	-2.2755506770607843	6.287176351137255
O	-6.512670959337255	-2.269536767060784	4.542680041137254
O	3.3292759906627447	0.4692613379392159	2.544727371137255
O	3.458879890662745	1.7448731599392158	2.941143691137255
O	2.7595805606627453	0.3058541329392158	3.715396811137255
O	2.4751886406627452	2.111647252939216	1.169185903137255
O	2.1725159906627445	0.8883047745392159	0.7272709379372548
O	2.1204745706627453	3.2692241429392155	1.0670870541372548
O	0.7093830406627448	-0.16411920806078417	-1.0768159688627452
O	0.9947366006627449	-1.3880671970607843	-0.4451784088627453
O	0.5037500806627448	-1.2494567670607843	2.9921916911372546
O	0.41824538066274486	-1.0143459570607842	1.8317258311372548
O	-0.5362681343372552	-0.07344151806078414	1.8452149511372549
O	-3.0281412293372547	-1.910678017060784	-0.06931511286274517
O	-1.8626382693372552	-1.4821777370607843	0.40869557813725477
O	-1.4726236123372551	-2.230681247060784	1.3389443161372547
O	-3.795429009337255	-2.7875983970607843	0.5452935211372548
O	-3.9824509993372548	-2.4707900870607844	1.8035252911372548
O	-4.776264519337255	-3.3709619770607837	2.5632752111372548
O	1.1534987006627448	-12.557788267060785	-4.949423628862745
O	0.17775185566274487	-8.993149727060784	-5.905004118862745
O	2.1555344706627446	-6.775616967060784	-8.184258428862744
O	2.3355139706627446	-3.572902467060784	-6.148262638862745
O	4.103824550662745	-0.6421691870607842	-7.8616669388627445
O	5.289436240662745	-1.377162147060784	-3.0964815288627454
O	9.636983700662745	-4.208946407060784	-0.8650078888627453
O	8.458951590662744	-7.6405568070607845	-1.3789769588627454
O	6.6180208006627455	-8.975000807060784	1.7377429311372548
O	8.827941310662744	-2.0459747070607843	8.866707791137255
O	2.4602051806627445	0.9173766520392159	8.398140831137255
O	-0.5422324821372552	2.875682452939216	8.979570411137257
O	5.299270080662745	-3.284588477060784	12.576579551137254
O	1.6630622106627448	-9.519839367060785	9.027594841137255
O	1.1021173306627448	-8.247891287060783	5.615268091137255
O	-2.2786434193372553	-8.244393817060784	4.473191041137255
O	-1.100742009337255	-10.245887867060784	1.2964116411372548
O	1.860062860662745	-11.398737567060785	-0.47921356886274524
O	3.111571270662745	-8.413319797060783	-2.3552924788627454
O	5.767250790662745	-8.147450907060785	-4.9759591788627455
O	7.223847580662745	-4.714589047060784	-4.590871128862745
O	9.599231900662744	-2.8067644170607844	-6.888408028862745
O	12.749995800662743	-4.557097287060784	-5.7068854988627455
O	9.362638100662744	-5.8184166670607835	-10.141226148862746
O	0.9038946606627449	11.584645232939216	-7.136200158862745
O	2.0858326806627447	7.909182592939216	-7.150989068862745
O	0.8657306406627447	5.391457542939216	-9.694990548862744
O	0.17267113866274486	2.4944168129392157	-7.227169038862745
O	-0.9559569243372552	-0.8128957570607842	-8.786508338862745
O	-3.654257239337255	0.6044867819392159	-4.637135168862745
O	-8.597125229337255	3.054584472939216	-4.578540248862745
O	-7.222765499337255	6.542366642939216	-5.058139088862745
O	-6.383375629337255	8.417074232939216	-1.8915071388627451
O	-14.867768499337256	5.483181932939216	5.174337641137255
O	-12.040894199337256	3.580224042939216	6.835381281137255
O	-9.162100559337256	2.6831042429392156	4.735781141137255
O	-1.8490257193372552	-1.503313077060784	6.118899071137255
O	0.047699223662744816	-3.3448717070607836	7.562301751137255
O	-0.38472320633725515	-1.461855837060784	10.698246651137254
O	-4.0195174993372556	-0.7281815570607841	10.609611731137253
O	-6.543274549337255	1.795288804939216	9.297649811137255
O	-7.174200949337255	5.439208692939216	8.828801571137255
O	-10.349055779337256	7.438117322939216	8.512264801137254
O	-4.251551459337255	11.987652232939215	6.439447771137255
O	-2.238088459337255	10.367929902939217	3.913142291137255
O	1.2844065006627448	11.166296332939217	3.4940050311372546
O	1.150584750662745	10.743412432939216	-0.33629659686274516
O	-1.2871441343372552	11.280186132939216	-3.1606637188627453
O	-2.0674735293372555	7.803304892939216	-4.562374398862745
O	-3.500470669337255	6.932892752939216	-7.883045648862745
O	-4.997142249337255	3.5472887929392156	-7.560580348862746
