51

O	22.387994852990623	-4.026133573286751	14.982221311027475
O	20.389680184521886	-3.6162988470880917	15.583412073511317
O	22.847388104736197	-2.9707813593765793	14.444036380395753
O	21.046117218199853	-3.9655609959408427	14.373704222864014
O	22.87505633114573	-3.1950804355942317	17.723170139987257
O	20.79565716897522	-1.5370047042496795	14.825220871579404
O	20.598046687602736	-5.24246321001459	14.26975340946269
O	21.133080341318067	-1.783135441591352	19.235685950743918
O	20.773259679202443	-5.201036296347378	17.42473722045194
O	19.579603067609355	-5.964299584575267	14.805640325603164
O	22.176813203795245	0.38086635232395927	21.386426956458035
O	21.13335444854483	-4.007174944201173	20.21330860319279
O	19.748463640393048	-7.300473914981213	15.28275423610162
O	21.28880913880665	-1.9185216395151898	21.679586508352795
O	20.719288735287474	-7.896367936553115	14.54235932649781
O	20.810375117180005	0.3447752768128802	17.12510250578218
O	21.54245575964278	-7.096613213390796	13.732039467885489
O	21.757733448330622	-5.8818110423024415	14.378882641025596
O	22.793936115482868	-5.3473259881609065	15.273846572018256
O	20.490301473704168	-2.3257134937412762	15.619557678195852
O	19.87274464089404	-1.6960682689566926	16.747716570419644
O	18.594022868861984	-1.9666243270983133	16.613447459949796
O	18.66814854452204	-3.1042080283446056	17.490986609096414
O	18.195098287742685	-4.274424866805898	17.16673751230979
O	17.872587039681747	-5.082893366726635	18.203145957960967
O	18.172197118746812	-4.72995347241092	19.487536518047783
O	18.131907579763894	-3.431862040684263	19.838544112903417
O	18.432534627867774	-2.7447882309449794	18.75112571270988
O	20.516968282966623	-2.622503422117437	17.67210330308411
O	20.795557779403193	-3.9343236001587076	17.674063134300273
O	22.172699726536734	-4.247435539519657	17.838986916072976
O	22.852364097448238	-3.0160315664333153	19.11481159816596
O	23.675275017473957	-1.9240032041030133	19.5247981131124
O	23.102961086683734	-1.2437684345241777	18.368459078931952
O	23.58159383240651	-0.08878099474292256	18.644963539603882
O	22.825792533679277	0.7595648373787902	18.064407932536035
O	22.104733577253462	0.2736458319244748	17.03751166611201
O	22.758749039914292	-0.6943930216570368	16.38211098016052
O	23.3564698160037	-1.589947283179368	17.085554274368814
O	21.551192955503225	-2.96074208566849	19.69143621783456
O	21.060066629535033	-0.6771021696057471	19.915500278757914
O	19.828053529867212	-0.41356505570210556	20.07801317978857
O	19.350038920598458	-0.8135620562963821	21.364018017134285
O	18.779726946178936	-0.17197189799396106	19.277313435099703
O	18.29729298483263	1.0037307700396572	20.001639632629903
O	21.72592091574205	-0.8653947859814481	21.24400103631131
O	21.15263091894105	1.2972292045793432	21.72797446422902
O	20.87786316230356	2.0728251996506035	20.558456709391514
O	21.820488626579728	1.9674797111209832	19.629345251068283
O	21.074526906815617	1.977111943107887	18.54134785869143
O	20.35581983048057	1.5388433659586542	17.475560075846815
