55

O	20.710795264238275	0.42165527982798157	18.562714414608624
O	20.924853813124553	1.3394782847794608	19.503537721005326
O	21.05453690892971	2.328801910070613	22.82759199732557
O	17.153692159470165	-4.361850848691597	18.87962576017853
O	22.493093421541708	-4.563327438336041	13.049426921892278
O	19.489085062614564	-3.957331474518913	13.067090570146199
O	19.296752347269507	-5.942308603782974	13.581507138535688
O	17.91237776830087	-4.135859178972961	14.886384529389826
O	22.019547999296535	1.217799480284688	23.076413271764878
O	18.504808139781833	-4.944301614064671	18.627746065980965
O	23.28928029504509	-1.8253539796007316	23.247598363522567
O	25.236429153012654	-1.1214779846908045	22.256356827384806
O	22.563248848467392	-1.7999956890084032	22.048966367443974
O	24.601185189112115	-1.2580414427297621	21.056333808495516
O	19.295553921588684	-1.55288476291996	19.419943711421617
O	18.46073131050471	-2.6045435918214945	17.616597439122195
O	19.78647024661318	-0.8667623946702611	18.40291379052293
O	18.561240344052923	-1.5475917776307686	16.874621539320746
O	22.240065517833393	-3.1559796498969357	18.21687833911605
O	23.548016524436814	-1.4323151760625077	17.84229755050536
O	22.023412088498453	-2.661962259588414	19.416097330222215
O	21.04144264687739	1.0518102202631303	20.830469795740495
O	20.53302675536042	0.1922254430332042	21.49224350453038
O	22.707748387062214	-5.303572125561379	16.024900442454864
O	20.9720255667018	-4.267563483883332	17.058598493071106
O	20.657979102563672	1.8704329734796772	17.124102173631826
O	21.445290690952177	0.3070864140212253	15.105502355678167
O	19.86849954136174	2.2525047285061692	19.04886135149022
O	23.083407154306	-0.7995704638876087	18.87486720625943
O	23.096818834105473	1.4933868175540368	22.072915239047866
O	20.147214568799367	-1.719752372562559	15.103162709608373
O	19.340034597885836	-3.908283716468352	19.28568041461172
O	21.33178923748552	-1.675955295414253	14.262925588793593
O	20.723624839626144	-1.3718784265565742	16.43745338667848
O	23.121626997610157	-2.0843654684991377	15.994695325268143
O	19.588903466394726	0.1685138094078158	16.222355455585287
O	21.978204142462303	-4.921030451960395	15.148642133867643
O	20.356696718083008	-3.6985848441167057	16.102959168592225
O	21.170058112891933	0.7043485265342377	17.386716131368857
O	18.94372057355313	-2.6528257272206837	18.829665109580787
O	22.910478244995925	-2.5007549966051217	17.37772652872763
O	19.036203197460214	-0.4454674274971	17.438468301031502
O	23.28218933492946	-1.5045446765400499	21.018239986286346
O	22.462991348013784	-1.5007970043965988	19.76988664412892
O	19.7606210790745	-4.823939246260086	15.547436961030712
O	24.406565702764226	-1.117360235603372	23.32658880122277
O	22.400542611193533	1.5310676058010941	20.859867704601044
O	20.789519231995307	-5.808637495564243	15.38564740139537
O	21.465632763990513	-3.160845601158453	15.713954367151727
O	22.672342697556505	-5.463140714380318	14.100050381347707
O	18.817295839435047	1.677154964878971	19.903680859907556
O	20.3779026156518	3.320226413333592	19.84055952085626
O	19.15186437267987	-4.577735551783613	14.259209290297582
O	21.091754007548452	-0.13211640739981534	16.268396652591555
O	22.218817317261532	-2.27267905514472	15.141479856271912
