59

O	18.180425588831422	-0.991251413219697	15.516412628371198
O	18.075382591536854	-1.6597442166798473	16.486919746785894
O	19.473572305061822	0.031022988373242022	19.127848693281663
O	21.062183363601765	0.2967838717543536	16.24886007180265
O	21.65946270530631	-3.0708137505326443	16.29469435627277
O	19.657940170585352	-2.6485670583417535	13.735608869693458
O	18.648568714318685	-4.7299758340780995	16.28532763865468
O	21.24161941181135	-5.7652447144103895	14.094430908664247
O	18.497422409604486	-1.1495939344320347	17.69308642974336
O	17.745056207491285	-1.775333223398776	18.50574162952865
O	18.11804238882608	-2.8467402270076265	16.842893632661127
O	18.939552197600552	1.2749537916901388	18.81455257929255
O	21.951244473620328	0.9600658989197077	17.31580616671023
O	23.038601138593638	-2.882498869978546	15.994469511672044
O	20.693549931903327	-3.0352924437594573	12.779650240164884
O	17.31775522055638	-4.805619609735478	15.741818692292263
O	22.04215193091529	-5.579805619119594	15.125279194866623
O	19.27889988076648	-3.1033982111044285	17.50647830141101
O	19.243415856252447	2.096669609624585	19.987973674777862
O	19.175832843146228	2.060896929145735	17.666997075857076
O	21.958708173866594	1.267343800825822	18.70838779779712
O	22.527675266569982	-2.3605003073798363	17.185069469796183
O	20.11983937327135	-3.949138167370397	11.783079808357254
O	21.345119906965078	-5.314270063901848	16.29360537462231
O	19.319173884480612	-3.880350587430121	18.596280732389964
O	21.760665704315272	2.5436706826231346	19.475511225589695
O	22.153076020482324	-3.2682395761988996	18.115646873740182
O	22.3142853272687	0.9386347294757496	20.065841247227553
O	23.186424545005575	-1.5464699480232191	17.826761881282064
O	21.230930011033507	-4.571724123462886	11.084869208868076
O	21.422050770521285	-6.090783089234164	17.454047872703338
O	21.453532440648985	-7.513465940626878	17.290475960981443
O	21.94221962450528	-3.23890229119888	19.445514366673883
O	23.38149961355619	-1.595946926745785	19.150195022379275
O	18.414267937850603	-4.722761439704319	19.10771848952506
O	22.373361536918598	-4.399359515271614	11.551935697180324
O	21.003013309023896	-5.848151645360847	10.628285884726754
O	17.94042627459591	-5.879221408585187	18.974749508681292
O	22.394255334215856	-2.0870833260678303	19.9198321938734
O	18.496062787121122	-7.104436538184801	18.518736294723357
O	16.580351100799554	-5.888033374828103	18.599912903192838
O	20.434896217585216	-0.20669521148508174	18.08660798566661
O	19.347998704408386	-1.341778742423934	18.72358474966473
O	20.317948918892263	-0.9143512647182892	18.94900016460572
O	21.19648847151389	-1.0649337095076625	15.854049312166493
O	19.906185124145548	0.18053188981170631	16.839201475801516
O	22.00425814272724	-2.642714597067231	14.19075775577291
O	21.1338217303551	-2.8605149995463606	15.094203248050713
O	21.200222120731947	-1.8770018942405853	16.861536732903446
O	18.301189786681817	-4.660037792808555	14.110265200672949
O	19.157500298207587	-3.7926337339217424	14.248792035277711
O	20.328264986620415	-1.8831902341554956	14.67108708675003
O	19.09311001292136	-6.671566762494514	15.397762423178625
O	19.49883485456416	-5.574683988919284	15.618739341033326
O	19.016081670930337	-3.555201138899899	15.576942734410913
O	19.702117565206816	-6.9133075807626945	12.87608504024553
O	20.49355164069936	-6.929835102568303	13.789922708988595
O	20.26991580799557	-5.151406184548467	14.626000446581203
O	20.93092422341665	-7.950025870857101	14.48610031507357
