36

O	20.55605114530958	-4.603800657244515	13.896148464081897
O	20.993340919079692	-3.515852478012039	13.123696406933723
O	20.881380595916784	-2.3356917029726803	13.798886968317682
O	20.732366444789985	-2.393326745838881	15.151497648984337
O	21.389028864272284	-3.5095410659087123	15.64944879161361
O	20.93125027693768	-4.6910100105882755	15.15778925527069
O	21.05015758664625	-0.8159086871798737	15.79094423078681
O	22.500484798920713	-0.8163534036144793	15.898718743737014
O	20.556997629904945	0.32712521401750316	15.086584257934083
O	19.999941545935695	-0.931553458667646	17.10474444866542
O	18.68987375986117	-1.2274627979416872	16.644317392775868
O	18.924469170136984	-2.690638785307038	16.64999745867693
O	18.526000159546044	-3.7811352133352774	17.372742980278392
O	18.021952012106176	-3.5608135535382983	16.01627420120336
O	20.507183194818907	-2.23296430063551	17.613773822926447
O	21.945554081081436	-2.11863694519064	17.777127277228004
O	19.396917935493228	-6.537102461181486	15.248148245141262
O	22.3635794679568	-3.213272448110331	18.42775463286768
O	22.020865673182026	-1.038835724300959	18.748346488874617
O	20.37154440413355	-5.739870556625053	15.823566206170499
O	21.440610024951976	-1.4410752653327097	19.958417763375326
O	20.30521485034958	-2.2574973939257874	19.803955385515756
O	20.486406563569137	-3.4340359934649642	19.89188379856109
O	18.848357427320785	-1.9564433581603748	19.92980315277877
O	19.048726629228756	-0.49227892797579975	19.99431382290892
O	19.91487278930193	-0.38641122493082936	21.24481229314935
O	19.984469360385663	0.7813101438602124	21.53638910408238
O	20.03949626051829	-1.32212996590253	22.277178628035728
O	19.97548138917237	-0.7881963283803421	23.654656776352695
O	21.201118777935477	0.06400023304485347	18.21040875951844
O	22.369707283431985	1.335642286242902	19.653469885786734
O	22.49054537338659	2.4018012659433046	20.487964720523898
O	21.46162867878748	3.270790747662357	20.6006694412944
O	20.460537076922826	3.1907993146378173	19.68113695648209
O	20.374855103705503	2.199253822686771	18.750327249247153
O	21.317978914741154	1.2687322175715343	18.82039442438549
