48

O	21.445087959171012	-1.9616590603206159	21.84387272027819
O	22.80410358643019	-2.17316665372987	21.805552659167983
O	20.880838744628473	-5.100220490178031	15.518693027339722
O	21.172878511308003	-3.24396655825116	20.79109167593685
O	23.26163047894148	-2.304075409543765	20.528562096695403
O	20.96637146734106	-1.0662255052585543	22.879729719999606
O	19.353575572115155	-4.161436081402386	15.846949882290435
O	24.167429685152424	-1.5142784310561699	19.888697537151945
O	23.982946131237288	-0.8454976963836014	18.672557567177137
O	23.036647009821447	-1.1143631723848033	17.859328904788217
O	21.346419237999058	2.955092751661681	20.308648634838445
O	22.597952251065863	-2.281812017946046	18.305348815699453
O	20.65392518507449	1.889411791709746	20.08141327223182
O	20.233012486431345	-4.13101560840411	14.730546305610343
O	19.625538986317576	1.6387629839868636	20.90419049060514
O	21.35342625247448	-4.656853513527428	16.71403248427942
O	22.607971609137614	-0.13363813222613286	16.572831150130433
O	21.599963952471725	-3.2810937146308676	16.342024211542398
O	23.44271486740739	-0.975670278015503	15.823855170364153
O	22.10559758467568	-3.2157312492391554	15.086248204329705
O	22.211651893226662	-0.1407741459891645	15.210033009753003
O	18.92021894949977	-2.978921931466167	16.02908560291567
O	21.417147850785014	0.45834728623347076	17.350292613639567
O	20.697656385273447	1.376262469649942	16.793974577391488
O	19.73928590303203	0.6128311211985589	16.112130671163804
O	18.604767732081143	0.2557398647758997	16.8048598393892
O	20.026566358321414	0.16269612197623995	14.89047730634639
O	20.7731097771091	-0.4943888088833408	17.996920390607805
O	21.466935284755547	-0.19072936184505918	19.320467690881287
O	22.287572971133002	0.7627213957453998	19.54549628134434
O	20.19116707910855	-0.15406837564755338	19.726709665601838
O	19.508743552305898	-1.2374639172009445	19.699351328853332
O	19.350759399623378	-2.20794353784494	18.703364002786984
O	18.272886988539085	-1.916431731579063	18.291299975446655
O	19.96778771416165	-2.933735740473957	17.76875382623554
O	22.947826242672114	0.4678510934669997	22.14136566868095
O	20.118139337265223	1.1968459986593578	18.996057436173242
O	21.316520420158355	3.3782515420666144	21.66018920441781
O	19.50288828301185	2.090267845673468	22.235244882579103
O	20.219465787172197	3.2070291954562604	22.450532458894767
O	22.44363087703369	1.0491342254320177	23.3336949469981
O	22.380468202520984	-2.8036384681908597	19.576897646731418
O	20.547886379162478	-2.5117273840961025	16.63581607870283
O	20.015379234423303	-2.1413922592284482	15.430715695041188
O	20.79109945728721	-2.785468882203938	14.438490447936905
O	21.642465490200625	0.18983388621062658	22.674238109699253
O	22.354574544251765	4.006642188264307	22.24994144281565
O	19.1139839778255	1.3505282786462212	23.288054477183834
