85

O	-4.684675991517391	2.043007682630436	0.2828135093043477
O	-3.1614359215173913	0.43587200663043585	0.6417003803043476
O	-5.448710461517392	1.7861669126304356	-0.8758002456956524
O	-2.387516601517391	-0.3417139654695642	-2.8523446006956523
O	1.3499256884826085	-2.861240097369564	-4.371168600695652
O	-5.291789791517392	0.3227022796304358	-1.0884225006956525
O	0.042945310482608856	1.0821152726304357	-0.35253392969565234
O	-2.6268137415173913	1.6963447826304356	0.8396597543043477
O	-2.8707366915173913	0.9117990726304357	-2.5595244706956524
O	-3.436072761517391	1.2863514826304359	-1.4239551206956524
O	-3.231867331517391	2.187864322630436	-0.40371699069565237
O	-2.424749491517391	1.8405317226304356	-3.2158227806956523
O	-1.0629837165173912	-0.8454753273695642	-2.7958941906956523
O	-0.2926367865173912	0.5793442096304358	-3.8970480606956523
O	-0.18486835051739114	0.3195150766304358	-2.6774121906956525
O	0.9292991584826088	2.260621892630436	-2.4053815406956525
O	-0.8548230144173912	-0.6277409213695642	-1.2622560506956524
O	2.570239658482609	1.6464297826304357	-0.5812857526956524
O	-1.5751857305173913	-1.6993295273695643	-0.9647853106956524
O	-5.161221651517391	-0.1141961033695642	0.18626888770434763
O	-2.8798651215173914	-1.8056961073695643	-1.1861958306956524
O	-0.9167999943173912	-2.866555197369564	-1.1450811506956522
O	-3.4442684715173915	-2.674449597369564	-0.25494671569565236
O	-1.426809237517391	-3.945634747369564	-0.5053648226956524
O	-2.7670527215173912	-3.863115387369564	-0.2814432516956524
O	-0.7572995125173911	0.9732657526304358	-1.4834420506956523
O	0.6391921284826089	0.2201286626304358	0.5086734653043476
O	0.10303600848260885	-0.5686411753695642	1.5016314393043477
O	1.9574482184826087	0.00228138863043581	-1.9372208206956523
O	2.700541998482609	0.07468477263043583	-3.0112225406956523
O	2.544024638482609	-0.9561239723695643	-3.8549815406956527
O	1.8715941984826086	-2.057489347369564	-3.4278290306956523
O	1.8712773684826085	-2.211982567369564	-2.0874636506956525
O	1.8936661484826085	-1.1253691803695642	-1.3042341606956525
O	0.44757256848260873	-2.002525067369564	1.3732566893043479
O	-1.1847024455173911	-0.6566290303695642	2.0886910893043478
O	2.4603436984826086	-3.235098637369564	-5.195529860695652
O	-4.3968259915173915	0.7545643726304359	0.9416567963043476
O	1.3869481084826085	1.4678630926304357	-1.2993736906956523
O	6.621476508482608	8.594357722630436	-6.446881790695652
O	6.720468888482609	6.616228122630435	-3.2338207506956524
O	6.340318908482609	8.136646272630436	0.25639004730434767
O	3.9722964684826083	6.0322117526304355	1.9504910093043475
O	2.6209621084826087	6.160622962630436	5.466531549304348
O	-1.3718084575173912	5.021821062630435	2.0125297193043474
O	-4.509025011517391	8.901607902630436	-0.23847488169565234
O	-2.2441453515173913	10.043664432630436	-2.9066266706956525
O	-2.783884291517391	8.067527012630437	-6.094703170695652
O	-11.12756673151739	3.315146012630436	-3.9406487006956525
O	-8.284668501517391	-2.522126397369564	-3.2564281406956526
O	-7.497997691517392	-6.171693317369565	-3.0954105806956527
O	-4.664245551517391	2.092293242630436	-11.976873580695653
O	-2.1866754315173913	2.190236892630436	-9.224588510695652
O	0.7087589584826087	-0.008714136369564196	-9.332802860695653
O	3.0745490084826086	2.993081992630436	-8.698857100695651
O	2.7009075584826086	6.568533872630436	-7.854998220695652
O	2.2079693184826086	7.197761662630436	-4.229926640695652
O	2.1616999384826086	10.023016532630436	-1.8662648206956525
O	-0.17642687551739122	9.133979612630437	0.9544185643043477
O	-0.9364841227173912	10.739322332630437	4.283190889304348
O	-0.1911935065173912	15.122927432630437	1.4324280693043479
O	-0.4950989455173912	-2.936255017369564	13.486339719304349
O	0.17706012848260888	-0.1319646193695642	10.954061319304348
O	3.6982264384826085	1.1965214326304356	10.389223219304348
O	3.7662190684826085	1.2365008726304358	6.556617089304348
O	6.754220768482608	2.741702802630436	4.708735849304348
O	4.924663998482608	-1.8769528673695643	2.3268113593043473
O	7.026265768482609	-6.828973187369565	3.4411961893043475
O	5.175104728482609	-7.384788877369565	6.745974709304348
O	1.1997221784826086	-14.113994367369564	-3.8258809406956527
O	1.2446919284826086	-10.487894167369564	-2.9572232306956523
O	-1.9894391115173913	-4.145207727369565	-5.412214260695652
O	-4.562737011517391	-1.8715209173695642	-6.775663360695652
O	-7.190156461517391	-4.4301726973695645	-7.347503120695652
O	-5.0490459615173915	-7.4929738973695645	-7.596228540695652
O	-3.3654845915173914	-10.202984867369564	-5.500781910695652
O	-3.9446116915173914	-12.431051167369564	-2.4859655106956526
O	-2.3826987815173912	-15.654988567369564	-1.3667212406956524
O	-5.644591581517392	-9.043648327369564	5.263648269304348
O	-7.894959941517391	-6.556960057369564	7.055411949304348
O	-4.945345061517391	-4.843192707369565	8.721830889304348
O	1.0652938184826088	-4.243991307369564	8.380323509304349
O	4.6199260684826084	-3.623617817369564	9.460878919304347
O	6.552421238482609	-3.161240507369564	6.184764119304348
O	10.10506686848261	-1.9608044173695642	5.633691579304348
