43

O	22.458953301641234	-0.3968147225294971	17.523303652251325
O	21.183087995564044	-0.30524885053966555	17.68768113167835
O	19.987374874600597	-3.6723050504401242	18.331645361186936
O	20.901685037262176	-5.334637849694558	14.991892379183847
O	22.665842418012836	-4.40330927908206	15.950672468373865
O	23.110380333679927	-1.3561101834949536	18.30287767390097
O	18.808501570776993	-5.2903280356299955	17.66543721595376
O	20.686104931009464	1.0306676108025248	17.726355453202196
O	18.91521055238044	-2.7481538884602768	18.341602516340792
O	20.36989612019724	-5.4650963780509	13.742172223537096
O	20.523770292453435	0.9536346735429269	19.149300798212842
O	19.13652838399385	-2.340890381813544	16.947854704242868
O	21.24103915160092	-6.413368151785008	13.046904136645265
O	19.260032664875347	-6.199009709672865	14.508657154788775
O	21.618787974425384	1.2502830245839855	19.814542833795947
O	18.86719071991198	-3.150569309906256	15.955894302138386
O	20.652424491205252	-7.761446322560834	13.271398124176173
O	19.58576820931746	0.2044648746909381	19.727657886175713
O	19.110719032046227	-1.1276366004729397	16.39809627006562
O	21.38914481543619	1.5837584396720974	21.119591364149446
O	19.549960663169244	-2.899715318673804	14.820746661253779
O	19.587201791277437	0.09257001787774954	21.108507940061614
O	20.027633075915563	-0.906447738883598	15.408956621512987
O	20.598985445570396	0.6944816098421973	21.778260470129027
O	20.56446392631319	-2.045384662320781	14.910916949948689
O	21.646204032625484	-2.270136408505187	15.572552128665993
O	21.257056349961132	-2.481041247628241	17.88806256064278
O	21.372251429662033	-1.4521492002199596	19.561120913859696
O	25.503962780662086	-1.8335334424203338	19.841746862845845
O	21.316616493905602	-3.580936463494082	18.405644850211658
O	23.740516818087716	-2.1120396055480817	17.659681181872397
O	23.80299455778654	-0.6896305366695095	21.390395421935725
O	20.472182264197503	-4.838401057100128	16.200003998699387
O	23.831124181321393	-0.7315512773269628	19.247315809826382
O	23.65557199278016	-2.98836525066672	20.242688451573905
O	22.249546658272976	-5.689295945271586	16.226911169148515
O	20.568546908003828	-7.349868528033852	15.922038913520515
O	20.65117151404242	-1.3541836207122508	18.52857782633598
O	19.8266862098437	-4.641526073408749	17.270766166880463
O	21.462190660461925	-6.615321644829333	15.457257011960598
O	22.40750298742774	-3.732704497735602	14.58612759418645
O	22.764565633187242	-2.2979387470002806	14.832499985660807
O	24.14439596472492	-1.6177507713125208	20.319644529190263
