39

O	21.752477231700336	1.2004215545274943	21.877862020465088
O	21.238392716410267	2.5488776459356135	22.20771363870843
O	23.115323551914788	1.074713001222409	22.575743193085916
O	20.949798314059585	0.41006718976649226	22.820072178476945
O	22.150820028912698	1.1694737402889481	20.59837972336632
O	21.670581035222025	1.1240055192969363	19.366921665356436
O	20.868756833548403	2.043996554841452	19.229761645329475
O	21.520512261291035	-0.05529359492700148	18.751965454586408
O	21.1079185583213	-0.3208140651238054	17.53378367035519
O	19.759270396020835	0.2102989123527419	17.78764860751612
O	19.478567289248552	-0.9423534460168592	18.771061234532553
O	19.74145527081296	-0.6752390043765366	20.0088279824419
O	19.194964325195404	-1.3820103014813323	21.006377668079054
O	18.732176175623227	-2.6168066637600567	20.674388721470578
O	18.065829120755538	-2.6148681792428414	19.49060029892489
O	18.63615466298642	-1.944758258182941	18.46526466880454
O	20.375224279875187	-1.382003757735495	16.798901200919513
O	20.57955970283696	-2.3994629292604124	17.546342661885994
O	21.007016841571232	-1.2600402316836703	15.602663617059699
O	22.336755321631458	-1.7812344498028843	15.975758588309251
O	22.927042143032843	-1.7339344706817437	17.159252622296048
O	23.01300139334512	-2.2531823608395722	18.420396405715557
O	23.95846249872622	-1.5623857959288672	19.207626406508307
O	23.81879803973261	-1.469559443649644	20.554038820111984
O	22.625617593861705	-1.9200007488464974	21.051418928946138
O	21.99868192442836	-2.9029490160831664	20.33813155264587
O	22.58650719565985	-3.2716799122082865	19.17134611454687
O	21.806166945131938	-3.1442921543368274	15.826350425879136
O	21.907513577491372	-3.4067675119988863	14.622283173191498
O	21.88559875055288	-4.169508320978405	16.729904695578874
O	21.20315787540711	-5.346812493708519	16.319163076982605
O	20.674383880698624	-5.022266830088938	14.93128581972315
O	21.052444527853716	-5.719773980781447	13.74804439840888
O	19.576717923294098	-4.105299895308328	15.105598533981096
O	20.162290029725135	-5.447271717359759	17.391368654128087
O	20.24207928354431	-5.1279012699928685	18.672633915531286
O	19.00530572662008	-5.575231465394193	19.308642887665105
O	18.20284671320718	-5.465604642681731	18.0410010760179
O	18.94541309047099	-4.736485085517001	17.17709455947576
