106

O	1.352032372149999	-0.6942868376153843	-0.035164207807691916
O	2.516036812149999	-0.8157206216153844	-0.0875699478076919
O	1.079305570149999	0.5829375813846156	-2.124025806807692
O	0.818780974149999	0.4949828983846156	-0.651481632807692
O	-0.531696021850001	0.7391456573846157	-0.6341724658076919
O	-0.9111528578500011	1.1413484973846155	0.693397172192308
O	-2.292228957850001	1.0861635673846157	0.651929132192308
O	-0.435182622850001	0.10971933938461564	1.5229357621923079
O	-1.2581960878500011	0.030400785384615603	2.5730802021923083
O	-0.614571234850001	-1.3610742646153844	1.102291132192308
O	0.26427521314999897	-2.7648196226153843	0.18308241219230803
O	0.670665815149999	-1.6203158826153845	0.8384366921923081
O	0.481547266149999	-0.7687023446153844	-2.361081487807692
O	1.5202485221499988	-1.5859621326153843	-1.9824812238076919
O	2.120538472149999	-2.686618582615384	-2.4949765978076917
O	1.1801519021499989	-3.367929072615384	-3.185184747807692
O	-0.015851662850001044	-2.7182163626153844	-3.306464777807692
O	-0.19972600985000102	-1.3638478576153843	-3.325374507807692
O	3.4606535521499993	-2.3003483526153845	-2.8570286278076917
O	4.120168432149999	-1.0189011636153844	-2.578540087807692
O	3.8936423421499993	-2.8234529526153844	-3.859590957807692
O	5.509444432149999	-1.1993006206153844	-2.507775807807692
O	6.4860334121499985	-1.0368408196153842	-1.664174016807692
O	7.518079052149998	-1.8452939426153843	-1.795985633807692
O	7.642859132149999	-2.3629103926153845	-3.023248287807692
O	6.253413382149999	-1.8031954326153845	-3.8579919978076918
O	-0.750393645850001	2.165462137384616	-0.9335654588076919
O	-1.1341494878500011	1.6055039673846156	-2.217300869807692
O	-2.257608157850001	0.9326041873846157	-2.3801968478076923
O	-2.822789877850001	0.8568828773846157	-3.6110520078076918
O	-2.8419266478500007	2.140893867384616	-4.1192742378076925
O	-1.7219789378500012	2.8617848873846157	-4.025158067807692
O	-0.704937013850001	2.2802499373846157	-3.2712386478076922
O	-1.657445197850001	-1.0084699006153843	0.2581061421923081
O	-1.7652040378500011	-1.9792544826153842	-0.7249646848076919
O	-1.8872223878500012	-3.2714394426153843	-0.5300065488076919
O	-2.138584667850001	-4.131597542615385	-1.533134996807692
O	-2.864249137850001	-3.591957442615384	-2.528903967807692
O	-3.271223897850001	-2.2974518126153844	-2.542284917807692
O	-2.6907868878500008	-1.5899362426153845	-1.584410292807692
O	0.926989516149999	-3.9443802026153842	0.47141666219230816
O	2.142745962149999	-3.501209282615384	0.737713722192308
O	3.166350232149999	-4.271287832615385	0.578294432192308
O	2.914704572149999	-5.578065452615384	0.13497617219230795
O	1.8784487121499989	-5.607236302615385	-0.825373399807692
O	0.778475464149999	-4.970481812615384	-0.400845410807692
O	4.2005970021499985	-3.376717962615384	0.13862445219230812
O	4.825974892149999	-3.5422565126153844	-0.9808293398076919
O	4.630006872149998	-2.3291775026153845	0.37891980219230814
O	5.738276302149998	-4.403628812615384	-1.490430326807692
O	6.185154752149999	-5.484588452615384	-0.910116922807692
O	5.714742212149998	-6.6913036426153845	-1.289549422007692
O	5.0716644521499985	-6.714664362615384	-2.5279515678076923
O	5.518342692149998	-5.107649052615384	-2.987760547807692
O	4.5808843121499985	12.035672167384615	1.8511098021923083
O	1.6860203421499989	9.801800967384615	2.858222962192308
O	1.3225329221499988	8.347509807384615	6.358486982192309
O	0.388805560149999	4.862428867384616	5.625536282192307
O	-0.378323499850001	2.322129897384616	8.398323052192307
O	2.795857062149999	-0.02424514661538435	4.656877182192307
O	7.916854562149998	0.03764076838461561	4.6674939421923085
O	8.91031023215	3.5302101073846157	3.902887302192308
O	9.40135374215	4.150175507384616	0.1732290521923081
O	9.66111288215	-5.716700632615384	-2.254831919807692
O	3.687294392149999	-5.592486952615384	-4.917709257807692
O	0.807383232149999	-6.151088462615384	-6.983872387807692
O	1.2201449421499988	-9.064402462615385	-9.160808307807692
O	9.60993867215	-5.014232832615384	-7.525332037807692
O	13.29215959215	-3.8831137626153844	-7.3091644178076915
O	8.90195792215	3.1220838473846158	-8.343054277807692
O	6.296408192149999	3.9469398373846154	-5.819038787807692
O	3.206132212149999	5.649844167384615	-6.887332777807693
O	3.746541842149999	8.257858767384615	-4.078301587807692
O	6.028623832149998	8.875423357384614	-1.202813071807692
O	4.946648012149999	6.717934727384616	1.7050102421923081
O	5.893034102149999	6.649329057384616	5.331804472192308
O	5.288337052149998	3.145072967384616	6.553864782192308
O	5.252094522149998	1.5211905273846158	9.960399092192308
O	9.00601802215	1.2791878373846157	10.341516392192307
O	9.14373847215	5.032199707384616	10.807120692192308
O	5.581164262149999	5.604953087384616	12.031118192192308
O	-8.86518356785	-6.897825902615384	8.255215212192308
O	-6.012413037850001	-4.301240292615384	8.147670322192308
O	-6.7338303478500015	-0.7322990606153843	9.160936292192307
O	-5.006293417850001	1.1322715973846158	6.3672527121923075
O	-4.602937557850002	4.885186097384616	6.243616152192308
O	-5.742908607850001	2.9235495873846156	1.315862412192308
O	-10.73333680785	2.5334357273846155	-0.750392189807692
O	-11.67422780785	-0.6737070776153844	1.0812405321923082
O	-10.75806430785	-3.897460222615384	-0.650630463807692
O	-9.01894908785	-1.6035897926153844	-11.752290107807692
O	-6.987833687850001	-0.6703573286153843	-8.709906777807692
O	0.19577364434999894	0.16598634438461568	-6.854943317807692
O	3.7363266021499992	-0.6094253146153844	-6.803984627807692
O	3.877933342149999	-3.5125597526153842	-9.238450547807693
O	0.732554032149999	-2.7561420226153843	-10.955853087807693
O	-3.011646467850001	-3.272241142615384	-10.878196517807693
O	-5.679102697850001	-5.831979702615384	-10.260692137807693
O	-9.25707867785	-6.172544932615384	-11.410258307807693
O	-6.267917207850001	-9.528561372615385	-2.6024077978076923
O	-4.171660427850001	-11.274165732615385	-0.00392564780769189
O	-5.514887597850001	-9.096814902615385	2.811907242192308
O	-8.873277907850001	-7.547662622615384	3.7658878821923083
O	-8.21931071785	-3.7582741726153843	3.779923372192308
O	-10.167788607850001	-1.1010518796153845	5.510020432192308
O	-9.43696646785	2.154158147384616	3.691657372192308
