117

O	0.22360134119655145	3.443584734155172	-0.42968438141431015
O	-0.5324759098034485	2.7945833041551724	0.47888180588568985
O	0.6283862241965514	0.7664659851551721	3.44399616788569
O	0.8965202091965515	-1.8961780458448279	1.0830034878856898
O	1.8463745061965515	1.214118649155172	-0.4388296842143101
O	0.14514177999655145	-0.9630320058448278	-2.6521625021143103
O	1.5793600161965515	2.311689594155172	-3.09093005211431
O	3.1414631661965515	-0.8646071858448279	-3.12451242211431
O	0.051126185896551435	2.275317344155172	1.65111320788569
O	1.0537503291965513	2.949099434155172	1.6240579778856898
O	-1.3112749338034486	1.7518880251551723	0.012187500885689873
O	0.7115486781965514	0.011345276155172113	4.56857047788569
O	1.9130652861965514	-2.505197815844828	1.8713088178856898
O	2.9242142561965516	1.6371287771551721	-0.33207556201431015
O	0.5776798301965514	-2.289038885844828	-2.78107340211431
O	1.0825384631965513	2.343402724155172	-4.46537577211431
O	2.9400155261965515	-1.982350365844828	-2.26290975211431
O	-1.2477643738034485	1.725229649155172	-1.4077412821143103
O	-0.17273881580344855	-1.1023338258448279	4.43718849788569
O	1.2331061661965514	0.26070094915517217	5.85811337788569
O	2.4479851761965516	-2.476725045844828	3.13359052788569
O	2.8859262561965515	0.4925944541551721	0.7391769478856899
O	0.46901878719655143	-2.920315905844828	-4.03356891211431
O	3.2885972661965517	-2.476038975844828	-1.01703636111431
O	-1.1960877338034486	3.0620148741551723	-1.9069130321143102
O	3.8612124361965514	-3.048558295844828	2.99114303788569
O	3.0682264461965514	1.176712445155172	1.8272834678856897
O	2.8263348461965516	-2.094751615844828	4.46388194788569
O	3.6225260261965513	-0.5075699258448279	0.8159287578856899
O	0.16301195559655143	-1.965521385844828	-5.09737555211431
O	3.9971933661965515	-1.206217055844828	-0.9116684891143102
O	4.734961376196551	-0.35121970584482787	-1.6934857721143102
O	3.4337694161965513	0.6841080171551721	3.01036376788569
O	4.671544596196551	-0.614342575844828	1.58766125788569
O	-0.8478432298034485	4.130276804155172	-2.68379621211431
O	-1.0363872238034486	-1.6745140458448278	-5.19195521211431
O	0.7901618781965515	-2.2060589058448277	-6.29549478211431
O	-0.05698232680344856	5.047730354155172	-3.06260076211431
O	4.457298236196551	-0.10801810084482788	2.79381083788569
O	0.031224971996551443	5.311522204155173	-4.47932248211431
O	1.1710452961965514	5.4824970241551725	-2.52118743211431
O	0.4928821261965515	0.09818357915517206	2.20843070788569
O	0.34897807819655147	1.8434822421551722	2.90122871788569
O	-0.46011049080344857	0.31670775415517216	1.4425534378856897
O	0.9513304441965514	-0.7368876158448279	0.21206077088568986
O	0.5306642041965515	-1.2016194958448279	2.26356769788569
O	-0.10178525880344855	0.24497874415517207	-1.2544031771143103
O	1.0971004711965515	0.3772088681551721	-1.1391171781143101
O	1.5812521861965514	0.2853498511551721	0.4995740408856898
O	0.09863471959655144	0.7493688141551721	-4.2152830621143105
O	0.5082988601965515	0.16094158715517215	-3.25219205211431
O	0.6168098771965514	-0.9410682858448278	-1.29376039111431
O	3.4296760861965514	1.7857724361551721	-3.37800959211431
O	2.4497320661965514	1.1848356901551722	-3.57698068211431
O	0.5947182681965515	1.477883191155172	-2.63546700211431
O	3.4591156461965515	-2.256881735844828	-4.82356148211431
O	3.2505429161965513	-1.067645325844828	-4.52987068211431
O	2.5496576761965515	0.1337603211551721	-2.82363310211431
O	2.8574978161965516	-0.09570155684482784	-5.43344741211431
O	-11.534044723803449	1.802712364155172	5.2501357578856895
O	-9.076977903803447	-1.0685798258448278	5.33793163788569
O	-9.320435133803448	-4.1627792658448275	3.15025003788569
O	-5.842974713803449	-4.4061476058448275	1.8520075378856902
O	-4.849449003803449	-7.283614655844827	-0.40130427608431013
O	-2.8711090138034487	-2.553692175844828	-1.8749589221143101
O	-5.297187203803449	0.4869118761551721	-5.81690350211431
O	-7.946866423803448	1.9981556141551722	-3.72394355211431
O	-6.912033183803449	5.281657384155173	-2.2026253621143104
O	-1.9654688838034486	10.552333694155173	-11.10758580211431
O	1.3569289361965515	9.600701104155172	-9.56184310211431
O	1.3830119461965515	6.408263974155172	-7.33819397211431
O	5.116093896196551	5.080111554155172	-2.26425109211431
O	7.934866756196551	4.749347324155172	-0.11317654311431014
O	11.004079576196553	6.5796327241551715	-1.2947168121143102
O	9.202609156196552	7.7944095241551725	-4.33632722211431
O	6.039098426196551	8.630631854155173	-6.06658661211431
O	3.1533939861965514	10.596283374155172	-4.66450569211431
O	0.5485353001965514	12.854954874155172	-6.42979383211431
O	-3.0546752838034483	11.841035374155172	-6.06296434211431
O	-4.563377283803449	11.733830274155173	-1.6954302721143102
O	-2.1614386138034485	11.635433974155173	1.2622213078856896
O	-2.6631453438034485	8.133815394155173	2.34301435788569
O	-1.9289801538034483	6.971703494155172	5.90585669788569
O	-5.488451923803449	5.408882514155172	5.9903022478856895
O	-8.358123153803447	4.746774134155173	3.58931143788569
O	-7.494844613803449	1.5581198561551721	1.6935827178856901
O	-9.609463013803449	-0.6471383858448279	-0.43759350151431015
O	-7.211000533803449	-2.265171465844828	-2.7861703821143102
O	-7.552252013803449	-5.095377995844828	-5.21535137211431
O	-9.259545283803448	-3.113246165844828	-7.95175918211431
O	-12.441128423803448	-3.028264485844828	-5.88094309211431
O	-11.785733523803447	-6.124887475844828	-3.75308853211431
O	-0.9379338338034486	-9.373938825844828	-6.55522202211431
O	-1.3689101138034485	-12.356024125844828	-4.21086067211431
O	2.1500819461965515	-13.697908625844827	-4.62562008211431
O	2.9988150661965514	-17.170547025844826	-3.25121912211431
O	2.8400491561965513	-11.046894625844827	-1.11007328611431
O	0.040115658796551434	-12.064065225844827	1.2655323178856897
O	-0.8745584298034486	-8.601356995844828	2.52964721788569
O	-3.894569063803449	-8.075021185844827	4.7682397778856895
O	0.24701544619655144	-5.193374995844827	6.50998055788569
O	4.011524106196552	-6.563595485844829	10.11507109788569
O	6.048181256196551	-8.946210215844827	7.87922317788569
O	11.175617176196551	2.892054224155172	11.19987779788569
O	8.175159466196552	1.8416310691551723	9.18521795788569
O	3.4962197161965514	4.596831354155173	4.03531555788569
O	2.4265329661965516	6.778492214155172	1.23211234788569
O	5.524196136196551	8.548026274155172	0.5807489838856899
O	7.289178496196551	8.272931044155172	3.83927868788569
O	9.409701296196552	5.930526304155173	5.94107404788569
O	12.288151776196552	3.5119602341551723	5.71500766788569
O	11.766427776196553	-3.1376968358448276	0.4594411828856898
O	11.130188776196553	-4.117201905844828	-3.10473231211431
O	8.793192126196551	-6.969647935844828	-2.06357742211431
O	5.445979066196551	-8.962358505844827	2.4246359578856898
O	3.6333089561965513	-11.431631725844827	4.66604060788569
O	1.6364224461965515	-9.361781225844828	7.18026320788569
