35

O	21.037606619197874	-4.550405473836639	13.719224563240097
O	22.9604931416025	-4.843359147250538	17.112009890617518
O	23.051782826088328	-5.089144673213335	14.719744489658254
O	22.0268875516476	-0.6581179471874414	16.8111447508047
O	22.77400560031508	-4.246112521276956	12.47945427935726
O	21.59122193979068	-1.873496751594347	15.800463170477418
O	21.178633956999942	-5.214707538549464	15.826449660746736
O	22.434384606877806	-5.388408897031851	15.891918638811905
O	22.488268526667667	-0.647240747108105	22.613579130516833
O	24.482072918432134	-2.993577788283445	17.06675713758528
O	22.50309471116622	-4.031155629230961	13.896817574355143
O	23.497204040125805	-0.5907324227393731	16.36421360098372
O	22.477436122109943	-3.6750591168084252	17.816699286243885
O	21.402266340085816	0.5330580558222111	16.403908819714072
O	23.254652633655326	-2.5761491256388966	17.226945525962034
O	21.498239408021604	-5.894539000999485	13.549784815963001
O	21.21768801282932	-3.4501509339578016	16.91998493885102
O	20.342916173940708	-3.3757576595048384	17.98560368056323
O	20.50945042318465	-2.886410393593211	19.219122677472598
O	19.223309931816672	-4.084857733415304	17.77253060118558
O	19.391624662542075	-2.32353059683662	19.80807992149739
O	18.11518142085393	-3.8335440162886334	18.499441502540215
O	18.356795812505897	-3.2547669394366667	19.713452800745475
O	22.793648782291744	-2.602525280290503	15.731464802006442
O	20.67684278242582	-1.5501304274340986	14.892537329269144
O	19.400126370841104	-1.310202319259663	15.561862955047953
O	22.33318830507391	-0.681062951616985	18.42046363951068
O	23.514302909008038	-0.7735858349537588	19.097656455372416
O	23.58380217522721	-1.0125283892835462	20.476744435739317
O	22.522239326604705	-0.487974038962639	21.205330142627503
O	21.50048069005267	0.19169447211877166	20.55266997084031
O	21.58087703663756	0.19686243247244395	19.14619077140292
O	18.56251408818888	-2.517847672714347	15.429490208728813
O	19.288134831768883	-0.7533814532532712	16.900372553583246
O	22.433672207956967	-5.701722768421899	12.57656289136412
