94

O	0.8502169886187757	-2.572180617142857	1.2193666372510212
O	-0.03389190638122436	-1.396426637142857	1.0533183422510213
O	-1.6195122113812244	-0.624330546142857	-0.3906593927489788
O	0.5831852086187758	-0.566209048142857	1.7908865172510213
O	0.9351545686187758	-1.4384658971428568	-1.7504596227489788
O	1.3662515886187756	-1.0605057331428571	2.8992769972510213
O	1.3085552486187755	-2.314120797142857	3.2903647672510212
O	1.9940462086187756	-2.697875647142857	4.368606267251021
O	2.3213977786187754	-1.7447673071428569	5.293377427251022
O	1.4913325886187754	-0.631752800142857	5.2188871772510215
O	1.4554829686187758	-0.20258883854285697	3.9301107772510213
O	-0.6235172463812243	-1.5145225371428568	-0.2891337557489788
O	0.6377797186187756	-1.0619456751428569	-0.6246540287489788
O	2.8033205686187754	-1.5682973771428568	-0.12969826874897883
O	2.6779879586187754	-3.792838967142857	-0.9462244927489788
O	4.003001488618776	-2.317412497142857	-0.38657242674897885
O	4.828831848618775	-1.786637547142857	0.6551223742510212
O	6.054077898618775	-1.232109337142857	0.7803069472510212
O	6.751240768618776	-1.5252882971428567	1.9459089372510212
O	3.4904699486187756	-3.6021788871428573	0.0995263194510212
O	4.082165808618775	-2.100602537142857	1.7319711472510213
O	4.636024458618776	-1.6584348171428571	2.930721837251021
O	5.957034668618776	-1.4756792671428571	3.0544328872510214
O	3.531193908618776	-3.504195337142857	1.4784185172510214
O	-4.836425671381225	-1.9506106571428568	2.9255423572510213
O	-0.02744342538122435	-3.673883307142857	-0.35330660274897885
O	-3.7919964513812245	-1.986350207142857	3.912447997251021
O	-1.2417849583812244	-2.5079324471428572	1.8126907172510214
O	-2.5673401513812246	-1.753387817142857	3.2330808172510213
O	-1.6132881013812241	-0.9845982281428569	3.990142237251021
O	-3.0669406713812246	-3.728898397142857	0.3988135812510212
O	-2.496989511381224	-2.001380997142857	1.8626461072510212
O	-3.4890079113812242	-2.917858877142857	1.5012794772510214
O	-4.6187675113812245	-3.203341537142857	2.3205405772510215
O	0.25622081461877566	-3.715879857142857	0.8574596582510212
O	-1.0680093003812243	-3.849232447142857	1.5438293972510213
O	-0.20984015238122433	0.864047217857143	0.5124262662510212
O	0.7202170186187756	0.36882448185714306	-0.4524326497489788
O	4.243601378618775	0.03187965685714306	-0.13821320374897883
O	0.9732204186187757	1.804302192857143	1.4841566172510212
O	2.4497922686187756	1.356337992857143	0.8318356382510211
O	3.4957455886187754	2.0258747628571427	0.05184664095102119
O	3.4587460086187756	0.918772072857143	1.7286064372510213
O	2.0206338786187756	0.6889629828571431	-0.3746910127489788
O	3.0680335186187757	-0.30310139514285694	-0.3423976907489788
O	-6.612581791381224	-5.078470977142857	-9.669878732748979
O	-5.741653601381224	-1.8927060571428571	-7.785762122748979
O	-3.7088862113812247	0.880116212857143	-9.273030312748979
O	-1.3572743463812245	1.6875636028571432	-6.6106038327489784
O	1.1347804386187756	4.487345972857143	-6.847064232748979
O	3.3176445186187755	0.21022068785714304	-5.0712958127489784
O	5.914864328618775	-3.863681307142857	-7.631846212748979
O	2.9809164886187753	-5.596044667142857	-9.06829275274898
O	1.6824681486187756	-8.469039667142857	-6.888893652748979
O	8.896312798618776	-9.231003687142858	0.01038535695102119
O	5.398637968618775	-6.389051627142857	4.983331727251021
O	3.9296727886187757	-5.113612957142857	8.215257897251021
O	-0.40893925338122433	-13.490813687142857	-0.06330187974897881
O	-1.3504305673812245	-10.085147487142857	-1.0665649427489787
O	-4.437248831381225	-8.653441717142858	0.30003785725102117
O	-5.597585241381225	-7.684437387142857	-3.2852061727489787
O	-4.166306191381224	-7.642034287142857	-6.690713072748979
O	-2.054910121381224	-4.621604107142857	-7.196123412748979
O	-0.5256433824812243	-2.929383827142857	-10.127326152748978
O	2.5310469286187756	-1.124339669142857	-8.890167862748978
O	4.828680478618775	1.4781335128571431	-10.514897652748978
O	3.878036978618775	-1.4881112571428567	-14.72668985274898
O	2.1188395486187757	1.8508660328571431	-14.050818352748978
O	5.016610838618775	12.320520412857142	2.289198057251021
O	4.073741008618776	9.729240872857144	-0.4187915717489788
O	1.0846926986187757	10.226022812857144	-2.696017062748979
O	-0.5035355710012244	6.785059072857143	-2.5396372627489785
O	-3.4825443913812246	5.773849052857143	-4.5857339827489785
O	-4.012236991381224	3.999613762857143	0.3185176022510212
O	-6.6734332513812245	6.766786992857143	4.4215180572510215
O	-3.7608882513812243	8.981175512857144	5.325700457251021
O	-1.2526941653812242	7.658345572857143	7.860891507251021
O	-5.950195801381224	-1.220843587142857	13.52001874725102
O	-4.752783871381224	-0.940359217142857	9.987493927251021
O	-1.2776988693812243	-5.510488057142857	4.800606947251021
O	0.9276527986187756	-7.904837187142857	3.331396987251021
O	2.2498879286187754	-9.161114497142856	6.623000847251022
O	-0.4192767230812243	-8.035261647142857	8.99176902725102
O	-1.6323120513812244	-5.043258287142857	11.018121647251021
O	-0.4604123392812243	-2.1663023171428573	13.171003247251022
O	-2.1328598513812245	-0.08626840014285696	15.829757647251022
O	4.825032998618775	3.818568062857143	10.070862447251022
O	8.108891558618776	4.286881712857143	8.34893814725102
O	6.626354618618776	6.691850262857143	5.778744717251021
O	4.102591878618775	9.496371252857143	5.766199177251021
O	1.2344644486187755	8.537920832857143	3.4406234772510214
O	-1.2679735683812243	10.593764812857144	1.6978942272510213
O	-4.146151651381224	8.275067072857142	0.8905288732510211
O	-7.175365301381224	8.886373472857143	-1.2931417127489788
