41

O	20.98096304530077	-3.323505095360927	22.108282960159773
O	21.817509825995494	-2.631516290401075	21.34204606607916
O	19.62353632758205	-3.2967390262066516	20.96712796597481
O	21.76572322318488	-3.0690662112089626	20.050638213839456
O	20.463487771080093	-3.084185407419608	19.518843440642236
O	20.38006489346749	-2.9066992576627557	18.17224144785552
O	21.411767693443213	-2.4951807334239575	17.260693578677337
O	22.407609758814434	-3.2797544968369094	17.671895685679235
O	22.655838080293226	-3.325709626628246	19.049644614246887
O	21.20455001750243	-1.6141263944306887	15.826380422163197
O	21.857462134215112	-0.43167145433373366	15.351652116730538
O	21.42533308868753	-2.380880285458052	14.537999300058106
O	19.43623394702694	-1.5360012565905676	15.849346166010257
O	19.341615290386965	-2.914923221197951	16.032616365262808
O	20.373792538645993	-3.9656243248396357	15.759422716227597
O	19.37691941508706	-5.067229907624819	16.136554856952937
O	20.211958920569085	-4.5160828117142415	14.29327479070282
O	19.021484180528265	-1.2646825218675997	17.280895140526376
O	20.174111875172546	-0.5785146799005598	17.758225200598293
O	20.408783019113717	-5.969922369952101	14.09178243564887
O	20.254901490100238	0.41279255837967055	16.874846984981943
O	21.2337766767324	-0.35237516920244705	18.434689085542207
O	21.21359065589291	-0.048965642066743476	19.765596955558575
O	20.076748944358453	0.3676584909555982	20.239780830921973
O	20.395902582964368	1.5832248735275627	20.956443186510874
O	19.192487666460575	-0.39611201407495633	20.551391225747658
O	21.042829022450604	2.589680354717729	20.111105112312767
O	18.759118894269054	1.8071047130823925	19.17134536048515
O	19.967123689976535	2.5926120422109133	19.027534828711524
O	19.522967049867887	3.674922800614539	20.013397056896032
O	21.283643785422715	0.14478494631008498	22.851228392753885
O	21.294292580681024	1.2634139393012216	22.021900843140596
O	20.14417763865633	-0.3473339052560198	22.95423798619348
O	22.419479323573146	-0.0685394793912395	23.760191219253674
O	22.154963434449506	0.6649097434599187	17.89218513130454
O	23.32409744498669	0.7715893563414471	19.857876744771453
O	24.11045846808287	0.29963487806855427	20.855626138652287
O	24.55259708547017	-1.005215899493153	20.631927153097852
O	24.929530626213605	-1.1609750187567456	19.326766751003156
O	23.97394692137212	-0.7756948562612884	18.392788641650352
O	23.006532913701935	-0.026492284094744356	18.837669699955256
