48

O	21.876890431203964	1.2282771491508702	23.00353896117012
O	22.702534773495426	0.39862457142560226	22.01592145347728
O	22.134186856731418	0.9966431237132651	20.793393434529705
O	22.61283941573875	1.8585680494872605	20.037149944978246
O	20.956905863165357	0.5377158816668981	20.172506967867832
O	21.059422567135623	0.5085713892673036	18.791621040140406
O	22.362958695671455	-0.060496128053442844	18.688881870776882
O	23.204667249208466	-0.5129472671309392	19.562351432089855
O	20.34212641572146	1.4942660926173206	18.197049830993784
O	18.96278027384222	0.9440431142120413	18.633128501370457
O	20.26899861041982	2.6378960943997596	19.234448577289335
O	22.76961966481794	-0.5016257046334907	17.468192468272683
O	22.13693417519342	-1.723932592971126	17.482908760294738
O	20.874057511445827	-1.3753837497721264	18.049421421917003
O	20.61210040248513	-2.069267206871369	19.23183303926318
O	21.60679889264815	-2.6341767382105736	19.92233161271315
O	19.393040314914547	-2.1635547556347885	19.785946923071528
O	21.569957612701458	-2.523879040210792	21.267654415856505
O	19.314988341356454	-2.0156326245304537	21.1270223954028
O	20.445477467013408	-2.046255340110319	21.88390602485408
O	22.81071491475226	-2.7459465393396565	17.879634233891785
O	21.830257333373485	-3.612534486643548	17.449028045385273
O	24.073379863596564	-2.5664665727968288	17.47463172348694
O	20.454905921609296	-1.6006227057409648	23.181099943580058
O	20.711835707127335	-2.975079767696853	16.855854322245616
O	19.566844552125946	-3.6372835773839984	17.07697775213563
O	18.395590067787424	-3.001530362766354	16.95081950155237
O	18.866746131222587	-2.1096078677408143	15.828140511597882
O	19.521923210645557	-2.7539869894021756	14.890633485968435
O	20.579019126113966	-2.3934951658603953	14.261617152295267
O	19.45340510759228	-0.9612256379498003	16.162507771781243
O	20.498558162184818	-0.4448466070665955	15.48969822861893
O	21.212291581989316	-1.3147346517907295	14.740854909261811
O	22.462418191294155	-1.6560502862853368	14.965363598703277
O	23.147816690845968	-2.657526712073372	14.469061234036868
O	20.103743872013567	-4.931507105859263	16.950450707036154
O	20.43331599973678	-5.082387720621352	18.18697971896775
O	20.906855734950113	-4.767321100880633	15.883254545941078
O	20.993805704693756	-5.419107966756226	14.633473963310735
O	21.38871265304059	-6.781525663702345	15.136472807286403
O	20.63456954336866	-7.128841931076558	16.034890401645022
O	19.778069887462543	-5.597930707765476	13.990466436355693
O	20.09330017638754	-6.737687432736762	13.10573268735246
O	18.95254691344283	-5.88015515937315	15.199978345795884
O	19.354515985859734	-7.864903756213013	13.772922525497625
O	22.563062143708752	-6.084527517523408	15.4567343370541
O	22.96890044391685	-4.7506605440186185	15.265678666352342
O	22.36856960016494	-3.8526697861880654	14.136064247184738
