38

O	21.03448282558161	0.091134675098	20.809636233240894
O	21.287036894041304	0.26830232408090193	19.387935305405637
O	22.437133993267466	0.6476345722622727	18.768082275562705
O	22.720482069941294	0.17702650862826008	17.446528678732967
O	21.993062384800222	-0.5089322904858231	16.579882566912644
O	20.74743903859775	-0.19772785036537144	16.96974370158297
O	20.381003622438662	0.094711276399845	18.329928882749996
O	22.492528919661854	-1.6099879348306718	15.293603065130734
O	23.865293389351734	-2.0495931334247337	15.256985889979502
O	22.517588960363426	-1.0373441773278251	13.922563943429836
O	21.241021505619532	-2.623984334745351	14.856830745324562
O	20.290324762895604	-1.5549466912310015	15.102561708339609
O	19.077324780610745	-2.172806398737211	15.324445784481156
O	18.911443960461263	-3.3257440654603894	14.334883143835487
O	18.8243213241591	-2.889983765638643	16.507458268788817
O	20.67318261291236	-3.720673128304864	15.346428730461387
O	20.834938176927405	-5.072575777257628	15.323848476008669
O	20.23412460939343	-5.915768937134368	16.075297296335712
O	22.21139359376592	-5.2853199612569295	14.764913018596719
O	22.598467823863082	-6.027336488017173	15.748172598537412
O	22.805695242231145	-5.193933217279365	16.940084286114423
O	23.752210369167788	-4.440038497393349	16.67558605553421
O	21.753590705669872	-4.504795708316127	17.55942891975829
O	21.858252435894894	-3.2182024138299066	17.863608161773747
O	20.58721441523511	-2.8333442899902614	18.370279720691205
O	20.86510053359798	-2.8627968702175677	19.71397415788831
O	22.114886360089073	-2.4656889348787137	19.342807048312817
O	23.013651429128977	-2.0913970361752865	20.247164324705455
O	24.160138451035955	-1.8900073187352038	19.552033132960506
O	24.04374548225908	-2.475435545413034	18.213094317388105
O	22.983739899877396	-3.4743138320803864	18.748400170755893
O	22.219299968318026	-4.2443645591179	13.758479649652848
O	22.32511087310406	-5.754703302382534	12.148964405771554
O	21.92770945743713	-6.805520890308226	11.38531161809776
O	21.394434549967183	-7.779917824806032	12.233492887599853
O	20.300445297145032	-7.282803936383089	12.888416281398278
O	20.444109218970066	-6.043526936744412	13.370589332174827
O	21.375065708735544	-5.173357050047221	12.909329559781336
