101

O	5.495276171096154	1.9832608324980767	5.383319462323077
O	0.41497030409615365	-2.304546841501923	-3.230573967676923
O	0.6807810240961537	-0.10570882150192329	-4.173643347676923
O	-1.7438612989038462	-3.2613980715019233	2.790933022323077
O	-2.1328369389038464	-1.9797477315019232	2.610160692323077
O	-0.9977580339038463	-3.855739591501923	1.823715172323077
O	-1.527077598903846	-1.330686741501923	1.6037172723230768
O	-0.6156329979038463	-3.1261684615019236	0.7376998913230768
O	0.3219362710961537	1.6044300564980767	1.7730388923230769
O	1.3148985710961538	2.364767468498077	2.471784562323077
O	2.044105811096154	1.0820744280980767	0.6865112053230769
O	1.3085291710961537	0.7881165114980768	5.2400171923230765
O	-0.028704179803846278	0.9739554298980768	4.7813126023230765
O	-0.7561651939038463	-0.9517195715019233	5.572177692323076
O	1.0984819710961538	-2.927517851501923	3.949430532323077
O	0.22992606809615368	-1.565974471501923	-0.19960534467692315
O	-1.0726250449038461	-0.6817766415019233	-2.357386377676923
O	0.9911427810961536	0.06600817449807672	-1.9399290776769231
O	3.631242701096154	2.0162490514980766	3.429910812323077
O	2.043727571096154	-3.2849992115019235	1.9923085623230767
O	-0.7601477799038463	1.8207707914980769	-1.6666923276769232
O	-1.9354030889038463	0.7663730034980768	-0.06529642367692318
O	2.824881411096154	-0.6404950915019232	-2.111875037676923
O	2.2226907610961537	0.8982050454980768	6.330992282323076
O	1.8753987810961539	-2.129578331501923	1.7126387823230769
O	-0.3637548589038463	-1.8104711515019232	1.0766627293230768
O	0.6972373120961537	1.0758463252980768	0.6402061283230769
O	4.156878601096154	0.7433331534980767	3.609409522323077
O	2.558341581096154	1.8546511534980767	2.711576262323077
O	2.8962500710961536	0.9496723127980767	1.7901315823230768
O	-0.21751961090384628	-1.0186612015019234	-3.509238537676923
O	2.0361046010961537	-0.40703859150192323	-1.0927684276769232
O	1.6003241410961537	-1.7126900215019232	-0.5191837836769231
O	6.944009615371394e-05	-0.9327316115019233	4.3824377023230765
O	1.784421761096154	-1.6577450815019232	3.866223462323077
O	0.7440171160961537	-2.3054291315019233	5.967963972323076
O	1.3982895710961538	-1.2068426915019232	5.112310882323077
O	5.167040791096154	0.8091588134980767	4.620344442323076
O	2.4751914810961537	-1.8436228015019234	0.5144039033230768
O	-0.21308772690384628	-0.39394306150192326	-1.3833976176769232
O	0.04230979309615372	0.07473607649807679	3.699791112323077
O	-0.4675016199038463	-2.313828871501923	5.326895392323077
O	1.4848341410961539	-3.267018931501923	5.212942912323077
O	1.3805798510961538	-1.266427101501923	2.695248192323077
O	3.757982961096154	0.21451611849807672	2.488996592323077
O	-0.5596626379038463	0.9976926973980768	-0.49686014067692313
O	3.300953251096154	0.04101176249807681	6.528856512323077
O	1.5602905210961537	0.4656285444980768	7.407889072323076
O	2.653525311096154	2.1208351884980767	6.157958602323077
O	-2.599516078903846	12.095004258498077	-5.299283277676923
O	-4.029048718903846	8.585204338498077	-5.289069547676924
O	-7.181508988903846	7.570951258498077	-3.3999958076769228
O	-6.166385958903846	4.433322028498077	-1.751306777676923
O	-8.632533458903847	2.383303818498077	0.30174358242307686
O	-3.9374653289038464	2.6041277884980767	2.960367452323077
O	-2.573892418903846	6.5130272484980765	6.423752202323077
O	-2.0597935289038465	9.445925518498077	4.154938472323077
O	1.5645184310961537	9.818214758498076	2.960887972323077
O	8.162627651096154	4.651180678498077	11.710208742323077
O	5.566546931096154	3.1134500984980766	9.533788742323077
O	6.633703871096154	-1.6382371915019234	4.590084662323076
O	7.639747761096154	-4.261582241501923	2.413172312323077
O	10.330373101096153	-6.1342748715019235	4.143990212323077
O	10.518166401096154	3.047638608498077	7.189491482323077
O	11.058248401096154	6.539614278498076	8.708158722323077
O	9.592096761096153	7.927999528498077	0.7315335093230768
O	6.372333221096154	6.840736478498076	-0.7700609076769231
O	6.167921481096154	5.634351788498077	-4.354082367676924
O	3.3217999810961536	8.140700468498077	-4.946672707676924
O	1.2052377310961537	10.661769178498076	-3.0571600776769228
O	-1.5645756689038461	8.729892228498077	-1.3307545476769231
O	-4.7317074789038465	9.616260798498077	0.47090023532307684
O	-5.4696085989038465	6.805818618498077	2.908298562323077
O	-8.484560388903846	5.957615548498077	5.030842132323077
O	-7.829154838903846	8.529498658498078	7.7112311623230765
O	-10.960401998903846	9.207936538498076	3.0140471823230772
O	-9.567230988903846	-10.129451041501923	1.1063384123230768
O	-9.149273988903847	-6.293162361501923	1.148750771323077
O	-10.755143498903847	-4.153202241501924	-1.5341451476769232
O	-7.866428328903846	-1.8906010915019231	-2.424317337676923
O	-8.123945678903846	0.9694369985980767	-4.818213577676923
O	-3.6770810189038463	-1.793011131501923	-5.110435387676923
O	-2.8616153389038463	-5.639029731501923	-9.159031057676923
O	-4.390879948903846	-8.413017351501923	-7.062718227676924
O	-2.0175671989038464	-10.215620541501924	-4.762136177676924
O	6.233286921096154	-5.988456351501923	-6.9685181576769235
O	6.074661951096154	-0.21052835150192317	-2.288159117676923
O	7.432423261096154	1.7667424064980768	0.40062943632307685
O	10.089431001096154	-0.3526505815019232	1.9394513223230767
O	10.792238501096154	-2.237370981501923	-1.077745217676923
O	9.806968051096154	-5.252628511501923	-3.102203637676923
O	8.858506801096153	-8.869765441501924	-2.854172647676923
O	9.020295241096154	-11.712079841501923	-5.346275067676923
O	4.501872531096153	-13.696458841501924	0.8267672653230769
O	1.927451411096154	-11.177858241501923	1.3174482123230769
O	0.2824928140961537	-10.879243241501923	4.689335372323076
O	-3.1009119289038463	-10.014559241501923	3.132063592323077
O	-5.200187278903846	-11.046166041501923	0.21938826542307685
O	-5.501465948903846	-7.804098141501923	-1.8363378676769233
O	-8.074766458903847	-7.195736091501923	-4.443508847676924
O	-6.6462991489038465	-4.590934221501923	-6.751306497676923
