89

O	-4.385918528901961	0.3454808064705869	-0.9901184533529411
O	-3.5481824889019613	1.468864321470587	-1.3346138373529413
O	-2.893251918901961	1.5199451894705869	-2.5734226573529413
O	-1.478315453901961	1.6560418164705868	-2.6444465673529414
O	-0.853656323901961	1.647893950470587	-1.447486497352941
O	-1.552169135901961	2.5260655864705868	-0.7175585593529411
O	-2.935005478901961	2.427515816470587	-0.5765948313529412
O	0.505938291098039	0.8723882824705869	-0.8698763643529411
O	1.644570671098039	1.7190521364705869	-1.0270191113529412
O	0.694269801098039	-0.2991434635294131	-1.6815355473529412
O	0.681150091098039	0.19988153947058684	0.6572099106470588
O	1.4091063710980392	1.0057641624705869	1.3418215626470589
O	1.3289063410980388	2.3945254064705868	1.1218276026470588
O	0.43786078109803905	3.420315416470587	0.7725584666470589
O	1.407382921098039	2.3677975864705867	2.671618412647059
O	-0.12342265890196091	-0.8637679635294132	0.7767237136470588
O	-1.410347279901961	-0.4298124535294131	0.1972602286470588
O	-1.632107945901961	-0.9255188435294132	-0.9080058153529411
O	-2.244106078901961	-0.17695228352941317	1.3399554526470587
O	-2.0103982599019607	-0.8956594535294132	2.548813762647059
O	-1.144430340901961	-1.956079913529413	2.5986203026470585
O	-1.436986644901961	-2.955895713529413	1.9857124426470587
O	0.004716591098039125	-1.8959448135294132	3.2732807426470587
O	1.2132976310980392	-2.532728423529413	3.133427792647059
O	2.196683141098039	-1.398248943529413	3.094928092647059
O	1.5674489610980389	-0.5471757835294132	4.020196682647059
O	1.5229092510980389	-1.439643443529413	5.052034612647059
O	0.3251465210980391	-1.1061566535294132	5.632346202647059
O	-0.671238207901961	-1.9915135635294132	5.396247482647059
O	0.07825140109803908	-3.2362997735294132	5.112366202647059
O	1.405488271098039	-2.843352693529413	4.651128432647059
O	-1.2256798162019609	0.8857166934705869	1.4955670426470589
O	-1.339764998101961	0.8479291854705868	3.8690000526470585
O	-1.449484869901961	1.5118404754705868	5.047479322647059
O	-1.697702502901961	2.850839466470587	4.924375862647059
O	-1.536535782901961	3.528456076470587	3.7155654126470585
O	-1.9232104579019609	2.744321326470587	2.6294232726470588
O	-1.490775974901961	1.4799849394705868	2.7077575326470584
O	-0.414227214901961	-6.031296863529413	-11.422461767352942
O	1.5552100510980391	-3.283335203529413	-9.717855127352943
O	5.088956691098039	-3.6573924935294126	-8.355077947352942
O	4.810247511098039	-2.185050473529413	-4.996820657352941
O	7.813027141098039	-1.878383303529413	-2.6520750473529415
O	3.540390031098039	-3.6654258235294126	0.0923690986470588
O	2.3163301810980395	-8.834190663529414	0.8395135866470589
O	1.042834041098039	-9.791142093529414	-2.569826907352941
O	-2.748209178901961	-9.286845193529414	-2.9101233073529413
O	-4.659777518901961	-7.9044820935294124	6.801086522647059
O	-5.60382649890196	-1.529941023529413	6.336714602647059
O	-6.839605218901961	2.086302256470587	6.572690892647059
O	-8.873037218901962	2.5545925964705867	9.564332252647057
O	-9.676771888901962	-6.481429403529413	6.3493364526470595
O	-10.49719100890196	-10.155558593529413	5.602300012647059
O	-10.736622078901961	-6.315933223529413	-1.7608571573529412
O	-7.63033154890196	-4.553406673529413	-2.9129630773529414
O	-7.946858698901961	-1.439208383529413	-5.002288867352941
O	-5.592734458901961	-3.092953343529413	-7.619372397352941
O	-3.549133188901961	-6.265684893529413	-8.033455637352942
O	-0.27866578890196103	-5.773043123529413	-6.163372837352941
O	2.9847981410980395	-7.613544063529413	-6.049800587352941
O	4.533374411098039	-7.002158663529413	-2.6613313973529413
O	7.94023065109804	-7.655328793529413	-1.185722047352941
O	7.367277101098039	-11.334652393529414	-0.4995569313529412
O	7.51565529109804	-12.019784693529413	-4.211950767352941
O	9.590370311098038	-8.993920403529414	-5.258681977352941
O	10.555769211098038	7.266761826470587	5.507424682647059
O	9.62039661109804	4.301063226470586	3.2396412426470587
O	10.502640211098038	4.321144256470586	-0.44289780835294124
O	7.169938101098039	3.159160116470587	-1.908648107352941
O	6.879231511098038	2.474014966470587	-5.695918977352941
O	2.5481789410980387	5.005185866470587	-3.5620560273529414
O	1.812967191098039	10.429865606470585	-3.7478725773529415
O	3.999286991098039	11.178367806470586	-0.7410048633529411
O	2.268311671098039	11.099347106470587	2.6068459926470586
O	-6.6630862089019605	9.323025926470587	0.0412726266470588
O	-6.776259968901961	2.014255826470587	0.2999069486470588
O	-7.583789398901961	-1.469021043529413	1.3929419926470588
O	-9.761077238901962	-0.6116076035294132	4.318323842647059
O	-10.830111518901962	2.796912136470587	3.2535345226470587
O	-9.780356488901962	6.467993246470587	3.2701172626470587
O	-8.22991576890196	9.136532926470586	5.421052972647059
O	-8.302283808901961	12.890500106470586	5.262865112647059
O	-0.451126898901961	8.133119486470587	8.818124332647058
O	1.6374268910980392	5.683380296470587	10.840309332647058
O	4.538228471098039	5.881396796470587	8.368123702647058
O	6.267194121098039	8.519528896470586	6.307218872647059
O	5.8703245110980395	7.453868046470587	2.6457950126470586
O	7.88929967109804	8.596545216470586	-0.2837079613529412
O	5.7671031510980395	8.051855986470587	-3.3861411073529415
