91

O	0.3396737395725493	-0.6571459117254911	-1.8010842393725488
O	-0.12896453942745068	0.5495924230745088	-1.2459674583725486
O	1.0109205485725494	1.0914971182745088	-0.6126028903725487
O	1.5800297685725493	1.462041031274509	-1.8251544093725487
O	2.7669648385725494	2.0055431282745086	-1.8510483423725486
O	3.1716764785725493	2.628308958274509	-0.7173350843725487
O	2.1453862085725492	2.798865878274509	0.16815021262745133
O	1.2385623485725494	1.8707433782745087	0.37660344262745127
O	4.207029548572549	2.372886568274509	0.07888622262745126
O	4.204110058572549	2.760196508274509	1.4078640926274515
O	3.1765728185725495	2.058601218274509	2.1079005826274515
O	3.7343566585725494	0.7413186042745088	1.7887172826274513
O	4.349001878572549	0.38216345127450885	0.6156732526274514
O	5.627031768572549	0.44864612327450887	0.5328967126274514
O	3.7833001785725497	-0.4306423817254911	-0.2889851383725487
O	2.5165034685725494	-0.8478994117254911	0.1366687826274514
O	2.364009518572549	-1.0054177517254912	1.4839293026274514
O	1.7002640885725493	-0.5431080217254912	2.5902572326274513
O	2.693847738572549	-2.411507181725491	1.5158001826274514
O	2.1366982085725494	-1.7151114917254908	-0.8921870776725487
O	2.9571204585725495	-2.682106341725491	-1.0240332991725487
O	1.6839718785725493	-0.7744106817254911	-1.8156290323725486
O	-0.42234415142745063	-1.7874606517254912	-1.7744402053725485
O	-1.3464205914274507	-2.345003521725491	-2.5345417673725485
O	-1.2283551454274506	-1.4259461717254913	-0.6559457763725487
O	-0.45131913342745067	-0.8024180317254911	0.4382896626274514
O	-0.6393710104274507	-2.007672931725491	1.2577315526274515
O	-0.04871546742745067	-2.725792961725491	0.16518766262745144
O	-0.2607281397274507	-3.9917260617254913	-0.0771169123725487
O	-1.6601816614274507	-4.460307991725491	-0.2475402063725487
O	0.03750931157254936	-4.325346091725491	1.3908143826274513
O	-1.5400284314274506	0.22137724127450886	1.1669479526274515
O	-1.7358142314274507	1.571384918274509	0.7892692426274514
O	-1.0263090794274508	0.3180492302745089	2.4737284626274514
O	-2.8587283014274507	-0.5647200317254911	0.4277323826274514
O	-2.9555484014274507	-1.8609419017254911	0.7626329726274513
O	-4.135435811427451	-2.472459871725491	0.2979075426274512
O	-4.193206621427451	-2.589629571725491	-1.0916875583725487
O	-4.088051441427451	-1.2271041817254913	-1.4144201423725486
O	-3.1463418614274508	-0.39689541872549117	-0.8718053294725486
O	-10.085468971427451	6.541072418274509	-6.028357697372549
O	-9.296863571427451	4.893582858274509	-2.690383467372549
O	-8.64117777142745	6.728417868274509	0.5753786526274512
O	-5.5495812014274515	5.084198878274509	1.8446513426274516
O	-3.9726696814274507	6.075057988274509	5.204306602627452
O	-0.26146559962745064	5.340985358274509	1.4904907826274516
O	1.6429380885725493	9.315504328274509	-1.7537645013725487
O	-1.1780339054274507	9.807707538274508	-4.148284297372549
O	-0.7794121954274507	7.567255998274509	-7.227697627372549
O	8.78867209857255	4.788282268274509	-5.704396367372548
O	7.177937578572549	-1.368510081725491	-4.147024887372549
O	6.867902158572549	-5.157634571725491	-3.5279782173725485
O	10.066350088572548	-6.769994931725491	-4.343216757372549
O	8.946469898572548	1.1457246752745087	-9.70882521737255
O	9.101126548572548	4.096947288274508	-12.143242897372549
O	1.2996374685725494	1.197293032274509	-12.67710959737255
O	-0.7258335074274507	1.2294019532745089	-9.532122977372548
O	-3.1988512214274505	-1.4985523817254909	-8.849996707372549
O	-5.8395623514274515	1.2785815612745088	-8.248858367372549
O	-6.1619185114274515	5.036085818274509	-7.977186557372549
O	-5.0905917814274515	5.936723488274509	-4.443558287372549
O	-5.314149901427451	9.074777358274508	-2.4042922973725487
O	-2.4684196414274506	8.933834338274508	0.07784304262745134
O	-1.5638569114274505	11.069976538274508	3.0993287526274518
O	-0.12861188142745067	13.948962738274508	1.1497141526274515
O	-5.567321591427451	13.298056638274508	2.8925617626274516
O	1.9310492285725496	-1.255992281725491	13.549079302627451
O	0.4355693745725494	1.049580316274509	10.842708102627451
O	-3.2929411514274505	1.7369821582745089	10.79731450262745
O	-3.980029111427451	1.303889319274509	7.109809762627451
O	-7.435978021427451	2.0522051782745088	5.586579082627451
O	-4.965980221427451	-2.323600601725491	3.739212072627452
O	-6.114476391427451	-7.509446441725491	5.311282232627452
O	-3.6944444314274505	-7.345174971725491	8.235606312627452
O	-0.13569310342745067	-8.423145991725493	7.570499012627451
O	-0.6477488434274506	-11.023624061725492	-1.7471590033725488
O	0.7764052085725495	-4.403756871725491	-5.045553247372548
O	2.7888736785725494	-1.9339798017254912	-7.005316237372549
O	5.7972645385725485	-3.997225781725491	-7.817729547372549
O	4.282663948572549	-7.395811901725491	-7.4781765573725485
O	3.5284676085725493	-10.148334661725492	-4.9388762873725485
O	4.888297868572549	-11.981622361725492	-1.9025315293725487
O	4.123323618572549	-15.315915761725492	-0.2910474293725487
O	8.322803778572549	-10.813881661725492	4.789924562627451
O	6.855875868572549	-7.47747305172549	5.211030042627452
O	8.871927038572549	-4.506817451725491	6.414676612627451
O	5.941762578572549	-3.112405201725491	8.430091012627452
O	3.2001430285725494	-4.511550571725491	10.65354220262745
O	-0.08976932842745067	-3.457242571725491	8.93866176262745
O	-3.4581666914274507	-3.250445261725491	10.522935802627451
O	-5.996443801427451	-3.5489486717254914	7.745459092627451
