87

O	3.0250452406938773	-4.904967882714286	3.2140718673061226
O	1.7679495206938776	-4.437084632714286	2.8293416073061226
O	0.6182710606938775	-4.093976082714286	3.5958480073061225
O	-0.1480377033061226	-2.9196359827142855	3.2011049573061228
O	-0.5041229743961226	-2.7110509127142857	1.9644839673061227
O	0.49837525069387745	-3.2586972927142854	1.2728367973061228
O	1.3126339606938773	-4.384920302714286	1.5163756073061228
O	-1.0599203803061226	-1.1661562927142857	1.4262668073061227
O	-1.6282837093061227	-0.07890149971428573	2.0921517973061228
O	-1.6257724093061225	-0.9211211327142859	0.13281101530612271
O	0.4605771036938774	-0.4067601987142858	1.4466896373061227
O	0.8345816206938774	-0.8139348027142859	2.702626367306123
O	2.0271025706938772	-1.3920324327142857	2.826977057306123
O	2.3423431006938773	-1.4306139327142857	4.289110977306123
O	3.288197300693877	-1.8684414227142858	2.5112836273061228
O	0.9472585206938773	-1.3506133527142858	0.5278365703061227
O	2.3010461406938774	-1.6558446527142856	0.2424168463061227
O	2.4679044306938773	-2.4990424727142857	-0.8012977406938773
O	2.6942900906938774	-0.3153412107142858	-0.09517328469387729
O	2.3567310806938773	-0.22406179571428575	-1.4636491026938774
O	1.0378913506938774	-0.5517473127142858	-1.6931110226938773
O	0.4855376636938774	-1.6260726627142856	-1.7393649326938774
O	0.4438699056938774	0.43347923928571425	-2.4531395626938775
O	-0.5503765202061226	1.0269603782857142	-1.7522584526938774
O	-0.9386692193061226	2.439473427285714	-2.210579222693877
O	0.42579119969387735	2.867077817285714	-2.4546080126938774
O	1.1271575606938773	2.253274347285714	-1.5062942726938773
O	1.3464054406938775	3.351336887285714	-0.6988626696938773
O	-0.019521766306122623	3.531370467285714	-0.4279190596938773
O	-0.7422812623061226	2.3675883472857144	0.14550418530612275
O	0.12772274769387737	1.5798446972857143	-0.6249768706938772
O	1.7636201806938776	0.6250621643857143	0.5589746613061226
O	3.5247274306938774	1.2692085722857143	1.7704008873061228
O	3.9231631606938775	1.308711067285714	3.0878387373061225
O	3.0161187906938776	1.8292488472857142	3.9440464273061226
O	2.2446070106938776	2.837642297285714	3.3712600473061225
O	1.6112601206938773	2.4239673072857144	2.2697496873061227
O	2.2607146106938774	1.5751782672857142	1.4795449573061226
O	-5.095974909306123	-0.6597760127142858	-11.980481152693878
O	-5.930227409306123	0.6416780502857142	-8.509276142693878
O	-8.477409599306123	-0.8970453627142858	-6.1621881726938765
O	-6.721718149306122	-1.1211947927142858	-2.9586351826938775
O	-8.293999249306122	-2.400251062714286	0.25124791130612273
O	-3.2668346393061225	-4.164892342714286	-0.5115155826938773
O	-1.9495783793061225	-8.856683572714285	-2.6847428926938774
O	-2.4007762793061227	-8.022311982714285	-6.257009822693877
O	0.8063827506938774	-6.816436182714286	-7.875398712693877
O	7.126448050693877	-9.742016902714285	-0.4877923426938773
O	8.155245260693878	-3.4004033227142854	1.4802691473061227
O	9.389714760693877	-0.01262586071428573	2.8219520473061226
O	12.610655210693878	-0.45790415671428575	4.5103370173061235
O	11.504286410693876	-7.140353352714286	-2.4744161426938773
O	8.541208990693878	-3.318175522714286	-9.063028522693878
O	5.363332440693878	-1.849689962714286	-7.874912222693877
O	4.719987650693877	1.8512087072857142	-7.980767472693877
O	1.4024921906938774	1.1101442882857142	-9.806143532693877
O	-0.7584038773061226	-1.8081216227142856	-10.791563752693877
O	-2.8056284593061225	-2.7760239627142855	-7.779618382693877
O	-5.699183799306122	-5.025539912714286	-7.163372822693877
O	-5.475461469306123	-6.170524932714286	-3.619481422693877
O	-7.899873609306122	-8.119027432714285	-1.3893492626938773
O	-8.971742189306124	-10.558325602714286	-5.914684192693877
O	-11.228694389306124	-7.830636512714286	-4.461143852693877
O	-6.372897799306123	1.5381400162857142	12.071359747306122
O	-6.713409629306122	0.08294716028571425	8.533607087306121
O	-9.203806419306122	1.5331152442857143	6.090613747306123
O	-7.081062429306122	1.8045018672857143	2.9775350473061226
O	-8.527291259306121	2.923323187285714	-0.39413034269387726
O	-3.6431659793061226	4.774306127285714	0.8150350873061227
O	-2.8573508793061224	9.950489677285715	2.6863175873061227
O	-3.4013582993061227	8.966470897285715	6.314230927306123
O	-0.3368115613061226	7.828422627285714	8.180287697306122
O	6.380046050693878	9.033499467285715	1.5425200273061226
O	6.0900812806938776	2.5998612172857145	-2.1035771026938774
O	7.384917430693878	-0.8478543427142857	-3.0251298126938773
O	10.769499310693877	-0.9241228627142857	-1.3989197726938774
O	11.234725610693879	2.745989857285714	-1.0158312446938773
O	10.484269210693878	5.788599597285714	1.1742658173061227
O	10.296145110693878	6.902144327285714	4.797084087306123
O	10.440356010693879	10.294066987285715	6.444354067306123
O	4.952584870693878	3.033959227285714	10.331081847306121
O	3.9575393206938774	-0.41824901471428577	11.577178947306122
O	0.21033461669387743	0.24147501128571425	11.023573847306123
O	-2.1921570293061228	3.1378577472857145	11.465081647306123
O	-3.5769456493061225	3.841646477285714	7.943666497306123
O	-6.665644909306122	5.718878277285714	7.100338097306123
O	-6.272844289306122	6.995460547285714	3.5511719273061226
