38

O	21.95581011640538	-8.35208730114294	15.413113928267194
O	21.71989983827506	-7.055018348754983	14.930990542817995
O	22.258383665891305	-6.8052952237600755	13.642442173363182
O	22.43540040043237	-5.457926850436573	13.202761756142312
O	21.759365650978218	-4.4402764531017205	13.76417129793449
O	20.647685407405053	-4.981030594319424	14.235032942638757
O	20.54824081492884	-6.27105939557709	14.859328089095952
O	22.454289986637047	-2.95419733263084	13.533185605472772
O	22.164370355154432	-2.764862906102663	12.18435196505899
O	23.967670373178787	-3.1457354102321866	13.438422577291327
O	22.4742737266909	-1.9791184452138382	14.81796535789746
O	21.894044976350408	-0.8000954754844429	14.719148669021228
O	20.471892888511658	-0.822315617569704	14.59178165873684
O	20.21116787531795	-2.0350227059480015	13.840095838054674
O	19.471999919357835	-0.5261677291524987	15.572044521047859
O	23.29981626426227	-2.5814039010095153	15.740242427391344
O	22.950682624145724	-4.067650109494099	15.62567351319656
O	23.612725898985158	-5.055517918733403	16.123837617804355
O	22.12759680560922	-4.096816658292751	16.74533872849831
O	22.748504324515586	-3.6854467342568653	17.916431279160435
O	23.438914254685596	-2.5143690222577275	18.064205494959186
O	24.594119484057746	-2.4434696634361748	17.78644457658585
O	22.7395302771746	-1.372341732034617	18.15280253612225
O	22.87465163338852	-0.09343596745302807	17.762141907011433
O	21.602404260835982	0.4848132395738729	17.448482253863066
O	20.822461737125572	-0.25484033680286244	18.313868338360113
O	21.386955337693337	0.09405544976593716	19.393511014788416
O	21.417379204354525	-0.8794384186020905	20.3217490024623
O	22.592480630295473	-1.5245886966603448	20.37338614894162
O	23.656293650465987	-0.6898589526699848	19.736131486148928
O	22.825828918345707	0.45039179771185167	19.292873972358663
O	21.544040654159023	-2.72016339430271	16.32674036489522
O	19.535709637757716	-3.6717949490775896	16.593557539691574
O	18.34695805099779	-3.6939252958198443	17.19664557489163
O	18.395487701970627	-3.47938291413561	18.533172991083827
O	19.459744682527127	-2.9400325850593854	19.142964373872676
O	20.580356107990408	-3.167919720961219	18.41511555365465
O	20.50017942297904	-2.8786745499624833	17.107781238377555
