44

O	18.64818791038361	0.089120665216877	20.559364967541853
O	21.150294442719975	-0.5146167589006647	18.430749091568174
O	18.321063105502017	-4.359599674967037	17.80832482204177
O	19.78381789540528	-2.436875726045305	17.705972325654475
O	19.004286593776456	-1.169665832738708	24.096069198394755
O	18.509851544472383	-0.35900149988930474	25.10242305244577
O	19.08593267139711	0.8649423839740673	25.306958555395646
O	19.62074777931441	1.4647740435467118	24.202458436155037
O	20.088486603875797	0.6065688002860976	23.252902349017212
O	19.350605204634007	-0.5003168787439787	22.997606279700726
O	21.734941251201228	-2.2085352482739475	15.121678289690887
O	19.077896077769857	-0.7844742192313694	21.580644296515622
O	21.149228506893266	-1.77614768405194	13.975075571254518
O	20.38976937968566	-0.6612023001221745	14.08104223584865
O	19.089567584531743	0.1599867449972332	19.229106377148184
O	20.51888281089005	0.00792406982451288	19.46864997071762
O	19.180168211061023	1.209990492436221	18.299253143883483
O	20.3911067406453	2.013589177164898	18.056653189253574
O	18.46604282280373	1.2297974037782748	17.045152205196782
O	20.717779607327827	0.24123519432176632	15.048649013609204
O	21.364547729209463	-0.20256995107440412	16.15212945256996
O	21.762793524389345	-1.7283529848853207	18.581397276078576
O	21.665931203200135	-2.2261572952556645	19.80291017331782
O	22.408271435781916	-2.013837513702118	17.38576156203359
O	21.702358403414927	-1.4763637174554942	16.241647296339465
O	20.6291895067807	-3.2638760208827997	20.08497344949643
O	17.289235733187855	-3.480039631739559	15.40078013322102
O	20.00365795707148	-3.2606696968180695	18.763366991183677
O	17.107914120171788	-4.542668801952313	14.519870342139926
O	18.17920368592521	-5.131633699599082	13.851734548068748
O	18.566339810034734	-2.004306050281481	17.381621454048513
O	17.6701387715859	-3.0473896649855154	17.917154661350025
O	18.358792628036234	-1.7198925889333223	16.05096183645953
O	18.574486684782066	-3.063519172359188	15.539450601991172
O	19.426702380628537	-4.692139943437247	14.166408697783206
O	19.46155644763297	-4.052083618505862	15.36922712643898
O	17.577866066051406	-5.234638006379402	18.246842269697073
O	16.97626606021829	-5.013381789610344	19.565516277875066
O	17.811266458051225	-4.782081466989654	20.729034139930366
O	18.262422033628436	-1.7157756560725221	21.511159474874965
O	21.12710322271702	0.012113949829707149	20.547202198529494
O	22.085236938672054	-2.1312217517625878	21.12752277149453
O	20.723963428979996	-3.9772255406124035	18.04382808236016
O	17.861926368655844	-2.7287922857469717	19.136930485567767
