87

O	-0.8051737600625	6.037426529333333	-1.4513729133645832
O	-0.4240058700625	4.985107049333333	-2.0799779503645834
O	-0.6146656600625	5.302165159333333	0.1278472696354166
O	0.4595821899374999	4.133690359333333	-1.4993513233645834
O	0.27034631993750025	3.844989259333333	-0.14500887436458332
O	0.6966858199374999	2.5989772553333332	0.3268909396354166
O	0.8583444199374999	1.428433702333333	-0.26972431736458335
O	1.7247125299375001	1.944828595333333	-1.2877459273645833
O	1.4869646599375	3.222611889333333	-1.8335621123645833
O	1.0744927099375	-0.18039759066666683	0.18531176963541662
O	0.8869175199374999	-0.3314092506666668	1.6266957296354168
O	2.1846730699374994	-0.9774241506666668	-0.2892840133645833
O	-0.3978829800624999	-0.7499536006666667	-0.4764261323645833
O	-1.2794315020624998	-0.2659409306666669	0.44011761963541673
O	-0.9763216060625	0.9303938793333331	1.1262809396354165
O	-2.2620601490625	0.40876306933333306	1.9154575196354164
O	-0.9159565690624999	1.922805135333333	2.1241110096354165
O	-0.35439729006249987	-0.2085655906666668	-1.7398452753645834
O	-0.8082673800625	1.1476906173333332	-1.7994144963645833
O	-2.1189442200624997	2.844178506333333	1.8437766996354168
O	-0.7525684700624999	1.573228285333333	-3.0260806203645836
O	-1.9295133181625	1.202605349333333	-1.0491027953645833
O	-2.1921496620625	2.506358200333333	-0.8009218252645833
O	-2.8711010000624997	2.960327942333333	-1.7756685093645834
O	-3.5403747500625	4.099520689333334	-1.2292236513645833
O	-2.8090472420625	2.536854973333333	-2.9242542403645833
O	-3.9696001300625	4.601284029333334	-0.10230869936458331
O	-5.1667682800625	5.234055469333333	-0.10413912136458325
O	-5.9593135000625	5.236045339333334	-1.2108774503645834
O	-5.2493486000625	5.397810089333333	-2.3970493703645834
O	-4.0204237400625	4.758168949333333	-2.369282440364583
O	-6.0329533500625	5.691822939333333	-3.4825370303645835
O	-3.1974363300624997	0.48190578933333317	-1.1775316493645833
O	-5.2849755800625	1.447020964333333	-1.4947020983645833
O	-6.5028072800625	1.925197490333333	-1.1811766763645832
O	-6.7317910700625	2.2825507233333333	0.10731065263541673
O	-5.7845631200625	2.038790630333333	1.0412253896354167
O	-4.6967807700624995	1.369194018333333	0.6462658296354168
O	-4.2389518800625	1.411783042333333	-0.6033009643645832
O	3.8974496299374994	-10.313355350666667	-7.1637723403645825
O	3.3779201199374995	-9.046405750666667	-3.6141023703645834
O	0.6578373499374999	-10.458249850666668	-1.3697285113645834
O	-0.7671426200625	-7.368868660666667	0.07645563163541669
O	-3.4735269000624998	-7.555828020666667	2.7608122896354166
O	-4.5675693800625	-3.9007288106666667	-0.8530528888645833
O	-7.3778963000625	-4.4715675306666665	-5.511661290364583
O	-4.9705936500625	-6.4272581806666675	-7.575582760364583
O	-2.7554451580625	-4.113697650666667	-9.687411600364584
O	-7.7380395300625	4.632520199333333	-8.667374700364583
O	-2.7357248710624997	7.413158839333333	-4.757914520364583
O	-0.3655908200625	9.462008969333333	-2.6824865003645835
O	-3.9393258400624998	7.7776775193333325	-10.942646320364585
O	1.8961984699375003	2.431943691333333	-12.724261820364584
O	2.1940039599374996	0.4425007793333331	-9.552560670364583
O	5.5177018699375	0.2585872893333332	-7.776957580364583
O	5.2606040599375	-3.5065009506666667	-7.764465870364583
O	2.8321210699375	-6.203692460666668	-8.909368220364584
O	0.3400488299375002	-6.641206390666667	-6.095635750364583
O	-2.2346130910624997	-9.205976750666668	-5.249702810364583
O	-4.9245785300625	-7.519243060666668	-3.2126374103645836
O	-7.8265473400625005	-8.815328450666668	-1.1533429523645833
O	-6.4856253800625	-13.114366250666667	-1.7269459113645833
O	-4.7368728500624995	-0.0026081606666670254	12.787948579635415
O	-4.5750630100625	-2.128140960666667	9.573423779635416
O	-2.4804665180625	-5.265405370666667	9.408548279635417
O	-0.6955967500625	-4.730930050666666	6.090754329635417
O	1.5846755199375002	-7.309352890666668	4.561665239635417
O	3.6577744699374994	-2.3780040406666667	3.8917612396354166
O	7.2377856399375	-0.23711152066666674	7.3738055096354165
O	4.7237741399374995	0.827737369333333	10.048263479635416
O	3.1939903399375	4.243392489333333	9.549040579635417
O	7.837771979937499	7.045059769333333	1.7795190896354165
O	4.0777861999375	4.381701159333334	-3.8492968603645834
O	1.3597892399375	4.661590959333333	-6.648459180364583
O	1.0406473899375002	8.361818309333334	-6.942764920364583
O	4.1060008499375	9.441788319333334	-5.217800710364583
O	5.6059340899375	10.147610419333333	-1.8032472923645833
O	4.9377873799375	11.758687729333333	1.5371624496354164
O	7.229626209937499	13.115383349333333	4.195141309635417
O	-0.1573858900624998	12.495490049333332	7.062833909635417
O	-1.5306495460625	9.135388119333333	6.455979939635417
O	-5.2437059600625	8.533630989333332	6.553495579635417
O	-4.7964545900625	5.110366289333333	8.225967739635417
O	-2.6221823930625	3.593379629333333	10.949124779635417
O	-0.5619321600625	0.777128849333333	9.333194079635415
O	1.1659957699374999	-2.1335079206666667	10.865752879635416
O	3.8293044999375	-3.2012160506666665	8.372531069635416
