39

O	23.608220773119804	-1.6960493481104848	21.511182243880846
O	23.65752701745862	-0.8358705059819704	22.68660864818162
O	22.21981087504564	-2.3175676620957875	21.793152987795075
O	24.72220967181184	-2.59860907252019	21.93116686513403
O	23.64447608271136	-1.4546264557369664	20.149514936491435
O	22.937646506838888	-2.238487623313252	19.260627578102152
O	21.93706545047736	-2.7456823672000956	19.874161523695438
O	22.383026383355958	-2.667709777289045	18.00693502060286
O	21.228027816091267	-1.9757931181482598	17.568903570140794
O	21.0565012051328	-2.2937478887733462	16.085368545326833
O	20.62504764594575	-3.649531371616211	16.21993112508316
O	19.590314880322428	-3.9584752644807164	16.974785987386053
O	18.6372340550182	-4.824190425199541	16.56181160425853
O	19.24817201778935	-5.915815213078348	15.948600932655179
O	20.29428064011191	-5.706853226892651	15.112529648359969
O	20.973197878014208	-4.540861344114749	15.26879014078721
O	22.12351157782102	-0.848199706736219	17.202334168676128
O	23.27103545912039	-0.5406953118311388	17.861305262811214
O	21.18549237163814	0.005238985661981221	16.72568814306177
O	20.203478322969268	0.3413198004703921	17.673087471429273
O	19.29943222192666	-0.7090685158231202	17.649481060321357
O	18.833785301978864	-1.4824719971809943	18.754996536184876
O	19.036147646531745	-1.9387457572066835	20.009862219660516
O	18.85474264390102	-3.2726764313468957	20.178642670377663
O	17.688901670466013	-3.7311911214520768	19.654168764760083
O	16.966591051640243	-2.9819119585803424	18.76994214591519
O	17.620885385702337	-1.8965379137733502	18.297685714805358
O	21.078224640421688	0.5476498518418995	18.825174688197677
O	22.00522123924072	1.3411844366443522	18.766940902530937
O	20.882441940970935	-0.08912808155086438	20.00376274312397
O	21.047199262787565	0.6600890834458053	21.15192740734896
O	19.990511140080557	1.7603359268754113	20.835357027244047
O	19.937161438704077	2.4144015027190093	19.529590288160364
O	18.760747877107402	1.0445097245879513	20.449586368206422
O	22.264357468882682	1.4683453166532912	21.27940708326226
O	22.368811007357674	2.102499254053458	22.41084558959651
O	23.70332781535615	2.5603135075140386	22.65683925701217
O	24.417694522118147	2.065224544137732	21.467319920954697
O	23.529513687228196	1.5545295958927394	20.706547738239138
