59

O	18.59936695461566	-5.978080328023623	17.315411697661354
O	18.51478352409919	-5.865007572264149	16.044640267126944
O	20.629305440819945	-3.5382875910711387	14.862127647861492
O	21.285652121088468	-1.424959182104948	17.159314550237095
O	19.838113494170596	-4.060931660423988	18.77545249909155
O	17.951009628326215	-2.1992700203216815	16.19663172164537
O	17.081069068766265	-0.10462794261437125	18.87403584864828
O	19.72582350799566	-0.3681489315353834	20.78926365556807
O	19.68769627515163	-5.476469714807868	15.366333908137484
O	19.430367754953796	-6.152143118476291	14.302740295084424
O	17.49181062104667	-5.154919078523388	15.44504479871911
O	21.73388129687913	-4.058825264387034	14.300031541539338
O	22.214985091179187	-0.5727011247134437	17.684342546492672
O	19.964649746590617	-3.652876560806126	20.127823766100732
O	18.779538696611354	-1.230798088257615	15.609186800382524
O	16.298511749181635	-1.0994249573934316	19.544878068886234
O	20.638648247005978	0.7109496165106379	20.0602700380204
O	16.713885583170903	-4.614042926962841	16.418068954742054
O	22.84210257645987	-3.5471870034056385	15.242940185464848
O	21.837181545844953	-5.498888260812633	14.469730480159695
O	22.64047486929867	-1.3411623864860034	18.85285931560172
O	18.64729829708698	-3.0524846206595826	20.27346037892525
O	18.79595808459265	-0.035824116892243296	16.30875115023772
O	21.42010086398406	0.42988631891534235	21.228617052328335
O	16.518954779763884	-5.54802512836767	17.512374508997464
O	23.291503033517547	-2.4519048721653363	18.185108293151103
O	17.70830061135072	-4.093914067875062	20.154771439789116
O	23.57964730762688	-0.8061186660086143	19.807159898205825
O	18.397241810561336	-2.4106465367985717	21.360629486287205
O	19.85145911504908	0.8477305652260951	16.411442440421407
O	21.076015480009325	-0.6769497001866309	22.257269887415976
O	21.377180653353356	-2.041192811759358	21.9721415630189
O	16.57905186841795	-4.0872464600620955	20.896627358786873
O	17.425904851744235	-2.409475615101991	22.277158908315965
O	15.507379844169328	-5.760779369221096	18.42640252951976
O	20.63845415191841	0.6321746540419713	15.469016453370044
O	20.224908291861688	1.7366905513688047	17.33548259232892
O	15.609646262158556	-6.7162368007661915	19.27229339456022
O	16.68436562335701	-3.5252054706960116	22.11226224600183
O	14.656906959553593	-6.630414423969151	20.347076264758492
O	16.87923499895432	-7.248468186862947	19.678229989012237
O	21.010789782281638	-3.454418172501409	16.3713383112961
O	19.571114233101127	-4.2094363520583755	15.186139308933654
O	21.312374499711275	-4.499703040354503	16.755149697686388
O	20.393213152153578	-1.950893227920601	18.09509221785868
O	21.288340767822096	-2.145093161873714	16.05308625360736
O	18.606951625896553	-2.361318384013029	18.669662405679542
O	18.550594628846703	-3.492645085040862	18.26948572645845
O	20.714520915935875	-2.982785489752766	18.572526065737208
O	16.410385535323186	-2.5175223782335756	18.06947207037292
O	17.177204689793204	-1.8111420920411616	17.329136676166257
O	18.728615576867675	-2.872731365227863	17.07992884710196
O	17.65601956383587	0.6005958351866769	20.6694336081121
O	18.177509608441593	0.5829846404535273	19.496580493896122
O	17.61868481170497	-0.631468299247024	17.759754869483434
O	18.769851431199843	0.1995776720402982	23.016628158601286
O	19.144873853412086	0.5415157007295144	21.866327867713686
O	19.295952138857206	-0.1622211623136569	19.44656030977767
O	19.708551304432874	1.8270593688115282	21.754290492308396
