45

O	20.558341267249954	1.4979802933301007	17.781980806263544
O	21.578745562473475	2.2050709749862816	18.04052314202546
O	21.973829272913285	2.332173644882983	19.384304132382773
O	21.375221278587162	1.7493797672458204	20.434394638861782
O	20.155756084890527	2.3233108680165953	19.907916872156527
O	19.827992764225062	2.370756085803574	18.542070649100825
O	20.82229606185218	0.5311663134591216	16.460545088932708
O	22.24245781665994	0.22389499087429332	16.218696965914248
O	20.95923551589384	1.3555547501082859	15.260530483690175
O	19.85887044084813	-0.5559715974630157	15.941604788440522
O	19.48252913333999	-1.3843101780890787	14.995107719290347
O	20.4251629496122	-2.020080951979039	14.193691841592166
O	20.504516663551897	-3.337652319680445	13.64858085800446
O	21.694418742147324	-1.445017957999972	14.523630278780878
O	21.465565076277343	1.8135511374001863	21.88207376759996
O	18.700035285375012	0.13191723735052063	16.288752461952818
O	18.693933117237922	0.29629838210422954	17.664576833698693
O	19.519431364760177	-0.28080484689312435	18.652571175706484
O	19.456758330689556	-0.2978631481027709	20.050019912376836
O	20.4457057132226	-0.9084442349354918	20.90482758708408
O	21.18317062974027	-1.2146182789460693	19.802603264360204
O	18.730972765422415	1.131263063064096	15.193436563171392
O	19.00287780755659	2.302242794192561	15.806323974672605
O	21.00773961748843	-3.5049880660775274	16.691728417514536
O	22.051312776972654	-4.079540440192979	16.340291453505696
O	21.951168286914545	-5.2965191723430145	15.77262050938151
O	20.872132362757117	-6.046419416006904	16.010282080151473
O	19.711946013658537	-5.384642785647602	15.962888738301752
O	19.82075701731341	-4.235223609741529	16.559666006743832
O	21.04755314127198	-2.171532571048847	17.330074624752548
O	19.800544492015725	-2.523523547069859	18.009882216946423
O	18.603572869874803	-2.9410975080233865	17.2912982760201
O	17.585785786472265	-2.703503590458265	18.059356646210112
O	17.790647513885286	-2.818594445004501	19.38618075364242
O	18.89698295854685	-3.4551921195093565	19.791711341007765
O	19.847184230462677	-3.591294687025644	18.842952312959554
O	22.047814150310714	-2.543922684648083	18.27832070094992
O	23.15611225464251	-1.8844376719749627	18.21282106134403
O	21.55932745608798	-2.520800465513045	19.6174806970486
O	22.38010135890518	-2.757635506740604	20.47448918318281
O	23.063066842957458	-0.6017897482036724	18.792001730544563
O	24.380797590309786	0.0005625372065249934	18.72215058428234
O	23.412117923795872	-0.694861094964365	20.012808052522374
O	24.276921082103847	1.354115291872378	18.762583212672855
O	22.70944847867849	1.152434294992923	22.001873069249434
