95

O	1.91748326893617	1.628821419564681	-2.7370689321276593
O	2.36323494893617	1.0148985087446811	-1.5804613331276596
O	-0.6566656480638298	3.114086451744681	-4.36983311212766
O	0.39322287893617014	1.9994622407446812	-2.7960073621276598
O	1.33399016893617	2.503465386744681	-5.06202972212766
O	-2.4176643710638297	3.080673441744681	-1.3944064360276596
O	0.21839212893617022	2.355256614744681	-4.13136687212766
O	0.1443076489361702	1.0746591407446813	-1.9291278201276596
O	-2.5393490610638296	0.1556067117446811	0.5096947678723405
O	1.1425007889361702	3.2940521917446812	-6.228865542127659
O	-1.2390374890638298	1.565520097544681	0.30919025787234045
O	-0.7074484050638298	3.381684541744681	1.5640320478723406
O	1.11547589893617	2.696274961744681	-7.60417060212766
O	0.30625095893617027	3.931989291744681	-0.9117892411276596
O	-0.21399137406382984	4.011565001744682	-6.264635412127659
O	2.09201793893617	4.3928328317446805	-6.701128772127659
O	0.8626998589361702	0.03179735174468101	-1.4933437421276596
O	2.05433735893617	-0.25162524825531896	-1.0920215311276595
O	-0.8472348625638298	1.834631660744681	-2.0994755751276597
O	-2.0120241610638296	2.372636326744681	-2.44521005212766
O	-2.13594953106383	0.9253250697446811	-2.7327275221276595
O	-1.76898740306383	-0.04265655825531889	-1.6801353951276596
O	-1.0152820740638298	-1.2305976982553188	-2.0431266221276596
O	-0.4151515510638298	-1.049776608255319	-3.3665914621276594
O	-1.2601073150638298	-0.505886428255319	-4.24798541212766
O	-0.9835024401638298	-0.13458339825531884	-5.504103202127659
O	0.27968620893617013	-0.253074798255319	-5.96329948212766
O	1.26431725893617	-0.42012352825531885	-5.046024222127659
O	0.8073244189361702	-0.9838377182553191	-3.9176541521276596
O	-1.8566327430638299	0.5947079317446811	-0.3959186541276596
O	-0.05219924606382975	1.2106312867446811	1.0096438778723404
O	-0.3123682520638298	2.182478245744681	2.0003468878723405
O	-1.5345761880638298	1.456995652744681	2.5552804578723407
O	-0.8019556528638299	0.10212393174468115	2.5814746478723407
O	-1.2185437240638297	-0.8463281382553189	3.460055857872341
O	-1.2802189950638299	-2.091518798255319	2.992301967872341
O	-1.04300479206383	-2.275177138255319	1.6623680678723403
O	-0.1764953960638298	-1.458419928255319	1.0464849878723406
O	-0.13883082706382976	-0.16712211825531886	1.4444221078723405
O	1.83959796893617	1.898322191744681	-0.5236554321276595
O	-0.4607127940638298	6.344135641744681	-3.6210045021276596
O	-0.7298836310638298	5.625192621744681	-2.4528187421276595
O	0.19781938893617024	4.892349751744681	-1.7974732941276597
O	1.3260140889361702	4.708386291744681	-2.5811818421276596
O	1.56956044893617	5.334816041744681	-3.7628756421276597
O	0.6487661189361701	6.1547881817446815	-4.34328920212766
O	1.2894542289361701	3.144651781744681	-1.0154077081276596
O	2.00157013893617	3.6767976817446812	-2.0370674191276597
O	-1.3899035640638298	-11.32223427825532	1.2288917478723402
O	2.19402132893617	-11.44658857825532	-0.004733352127659574
O	2.98632017893617	-7.884839478255318	-0.7696708491276596
O	6.48231510893617	-6.85449447825532	-1.8935713031276595
O	2.6191373789361703	-4.373751618255319	-4.325912072127659
O	0.5572164589361702	-6.358548998255319	-9.35914590212766
O	-1.64929095506383	-9.043397178255319	-8.05469504212766
O	-4.97304194106383	1.465915826744681	-11.514662942127659
O	-4.69577677106383	4.688212451744681	-5.558174702127659
O	-4.78213799106383	6.860607981744681	-2.3853165921276593
O	-6.09859905106383	10.26814709174468	-3.3955402321276598
O	-9.30345089106383	3.522155811744681	-9.440788232127659
O	-11.96778815106383	-2.7846991782553188	-4.944681562127659
O	-8.82400878106383	-3.7979061282553186	-3.1770383421276596
O	-8.89048373106383	-3.778502838255319	0.5364908678723403
O	-7.67969864106383	-7.447911378255319	0.5292261478723403
O	-6.48425695106383	-10.066765978255319	-1.9156247081276594
O	-2.83752205106383	-9.324155278255319	-2.6592788321276597
O	-0.08587624406382977	-11.176152778255318	-4.427749862127659
O	2.29882462893617	-8.640625278255317	-5.894797612127659
O	5.749810758936171	-8.78251967825532	-7.467494272127659
O	12.77839164893617	3.409848511744681	1.5177594378723402
O	10.77167964893617	0.43794441174468113	0.15505591787234052
O	10.76047134893617	-2.829947298255319	2.05087535787234
O	6.98864085893617	-3.512490858255319	1.9496018278723406
O	5.801981568936171	-6.8724851382553185	3.3873776078723408
O	2.76460666893617	-2.695921928255319	4.7037032378723405
O	3.09721653893617	-0.07889028825531885	9.679235157872341
O	5.954712998936171	2.1154457667446813	8.49992187787234
O	5.075426918936171	5.371905791744681	6.85225272787234
O	-5.98004702106383	7.8634359017446815	9.15906315787234
O	-4.5452780210638295	5.178090051744681	6.9659555378723415
O	-5.896218461063829	1.556704013744681	0.6445027778723402
O	-7.1826348310638295	1.2229147887446812	-2.6957630721276598
O	-8.63657249106383	4.646611151744681	-3.3248136421276593
O	-9.11401830106383	5.7250865017446815	0.18304613787234048
O	-7.181842341063829	7.254662311744681	3.0038779978723404
O	-4.75318328106383	9.897068701744683	4.034346237872341
O	-4.21137825106383	11.68237362174468	7.349247627872341
O	1.8661329089361702	13.002138921744681	2.6762822078723403
O	3.27183248893617	9.879577331744681	1.5676369978723403
O	5.374054068936171	9.82137516174468	-1.5888865761276596
O	7.468969948936171	6.797315231744681	-0.6378916441276595
O	9.09975874893617	5.8791579417446815	2.5008039878723407
O	7.59557545893617	2.5023174407446813	3.392343207872341
O	9.203326448936169	0.10690023174468122	5.790441057872341
O	6.402584598936171	-2.083084318255319	7.07829249787234
