84

O	-4.732120058065218	-1.054303580321739	-3.365422114782609
O	-3.8205610180652174	-1.359543800321739	-2.3331280047826084
O	-4.145938098065217	-2.1959188803217393	-1.2465839567826085
O	-3.3412756880652177	-2.2723466603217393	-0.050145463782608424
O	-2.1991096580652174	-1.587739750321739	0.0067457282173915
O	-1.7093196310652177	-1.638906890321739	-1.1977174097826084
O	-2.4379117180652177	-1.545438870321739	-2.4152520647826083
O	-1.7340905680652177	-0.9851828803217391	1.4775736452173913
O	-2.8717092080652176	-0.3915068603217391	2.168970265217392
O	-1.4024713220652176	-2.138413370321739	2.1829456752173915
O	-0.9856159640652176	0.4923376166782608	1.5485425252173914
O	0.15216577193478242	0.5033430686782608	2.1976157352173917
O	1.1681295419347826	0.052738279678260946	1.3249163052173916
O	2.266660411934782	0.8695448626782609	1.1977371252173914
O	0.5858501619347825	-1.135182200321739	0.8687254352173914
O	-1.1664629483652176	0.6208924786782608	0.25086944521739163
O	-2.4258784680652177	1.2989279816782608	0.4687037352173915
O	-3.4125035380652173	0.7318456756782609	-0.058599073782608424
O	-1.9121894060652176	2.659971679678261	0.5953543952173914
O	-1.8811753110652174	3.1545368196782606	-0.6769732207826085
O	-1.9223170060652177	2.156373248678261	-1.7227690607826085
O	-2.9542945980652178	1.5235719476782608	-1.5702117307826085
O	-1.1983551466352176	1.097452921678261	-2.286299224782608
O	-0.12763059806521748	0.8303393086782609	-1.5844994637826084
O	0.8248492019347824	-0.12153567032173918	-1.4264459697826086
O	1.7282690319347827	0.7049280296782608	-1.9432966247826085
O	1.5347016919347822	1.8574763296782608	-1.3486147127826085
O	2.0170056519347828	3.015926199678261	-1.5582554537826083
O	1.1965774719347826	3.906401189678261	-2.199601344782608
O	-0.0007920080652175088	3.108624869678261	-2.1356849147826082
O	0.5500671019347825	1.8512440566782609	-2.5621960547826084
O	-0.5361120020652176	2.572525759678261	1.1077061452173915
O	-0.3494026560652176	4.702982109678261	0.5950931752173916
O	0.3147466619347825	5.833227029678261	0.2548895252173915
O	1.6757446119347825	5.951285119678261	0.24252848521739145
O	2.3514911419347824	4.930984669678261	0.7977352952173915
O	1.6341178619347823	3.861972989678261	1.2012770452173915
O	0.3566333919347824	3.598927229678261	0.9272702752173916
O	-9.457972148065217	-2.215464790321739	8.64003391521739
O	-6.127319168065218	-3.5318143803217388	7.450137115217392
O	-2.9353553980652176	-3.5952491103217388	9.482883405217391
O	-0.42024661506521754	-2.1484645103217392	7.198437255217391
O	3.254060161934782	-1.8570423103217393	8.10047472521739
O	1.3716286019347825	2.378358469678261	5.4050955352173915
O	-0.6016605630652175	6.9320508196782615	8.272036265217391
O	-3.956268208065217	5.683482729678261	9.05639031521739
O	-6.559791218065218	6.445016999678261	6.347041215217391
O	-1.4897377390652176	12.78362489967826	0.3415929952173915
O	-0.6135716900652176	8.131952709678261	-4.6013864847826085
O	-0.022227888065217583	6.0532673296782615	-7.622983204782608
O	-10.558468338065216	7.854857869678261	-1.2900629737826086
O	-8.601569198065217	4.9757625696782615	0.023228163217391518
O	-9.116499988065218	1.6149765886782608	-1.5015811197826086
O	-9.625355178065217	0.1882995216782608	2.017184605217391
O	-9.446705988065217	1.2767861416782609	5.599595575217392
O	-5.916320928065217	1.0956251054782609	6.839391675217391
O	-4.125616478065218	1.2679276966782609	10.069224305217391
O	-0.6649140210652176	2.611081909678261	9.364401405217391
O	2.3996056719347827	2.875943639678261	11.604413105217391
O	13.215782821934782	-3.1376755903217393	0.5612356152173916
O	10.197302321934783	-2.447933640321739	2.795051295217392
O	8.446079821934783	-5.226293120321738	4.663435245217392
O	4.821655411934782	-4.49694286032174	3.924464195217392
O	1.9806923719347826	-6.438317190321738	5.5659364652173915
O	1.0687561019347827	-5.462020110321738	0.18563245521739158
O	2.260369261934782	-9.034488000321739	-3.7465945447826083
O	5.922042031934782	-8.055052600321739	-3.9348101747826085
O	6.797845931934782	-5.218268130321739	-6.236564464782608
O	-1.9680071470652176	-3.9165440003217395	-13.54335519478261
O	-1.7821712500652176	-3.180331030321739	-9.824579314782609
O	-4.010362378065218	1.9910686216782607	-5.007593194782609
O	-5.011186468065217	5.400804289678261	-3.8632412947826085
O	-4.450683538065218	7.352496599678261	-7.000955954782608
O	-4.796690908065218	4.555545209678261	-9.45531935478261
O	-2.8170749580652172	1.7960510366782607	-11.15764059478261
O	0.5230306019347823	1.015116387678261	-12.718107294782609
O	1.6041402519347823	-1.5305766403217391	-15.267946694782609
O	7.770846371934781	1.821891319678261	-8.234810894782608
O	9.751135221934783	4.165313029678261	-6.030553914782608
O	10.306614121934784	1.4941561916782609	-3.3713162447826086
O	8.155367341934783	-3.821748560321739	-1.5080309257826086
O	8.106426851934783	-7.219194600321739	0.10181628221739147
O	4.4163215119347825	-8.18522031032174	0.2549676152173914
O	2.706074611934782	-11.04281620032174	2.0533330952173916
