89

O	-1.8327555898529408	-4.004359048333334	0.9429048657843133
O	-2.689140175852941	-2.883258768333334	1.2110010657843133
O	-2.675369105852941	-2.217321518333334	2.4503883057843137
O	-2.383550115852941	-0.818587908333334	2.518469925784313
O	-2.158544828852941	-0.11775191233333404	1.3679172557843133
O	-3.096074115852941	-0.637957881333334	0.5403331657843136
O	-3.3497885558529408	-2.016209188333334	0.38816301578431345
O	-0.8427996298529409	0.757774717666666	0.7731719457843134
O	-0.8992728298529409	2.208435331666666	0.7175946657843133
O	0.25418410414705916	0.5852047526666659	1.7260090957843135
O	-0.052084655852940864	0.351091615186666	-0.6293214082156865
O	-0.006283955852940837	1.3990708516666661	-1.4595349212156865
O	-1.3034187878529409	1.9641525916666658	-1.6077531861156866
O	-2.592464875852941	1.5802932816666662	-1.1971923252156866
O	-1.0915805704529409	1.8091579016666661	-3.0824320342156866
O	0.9605637141470593	-0.49873357633333404	-0.6474680682156866
O	0.6032266641470592	-1.8826308983333342	-0.24896414421568647
O	-0.07166170585294096	-1.640615238333334	0.8090576757843133
O	-0.24991899685294094	-2.352972548333334	-1.3573784522156864
O	0.5627163741470591	-2.235235068333334	-2.5283423222156864
O	1.8127390641470593	-1.615780388333334	-2.5434557882156863
O	2.648447384147059	-2.2373866783333343	-1.8945308962156866
O	1.886871804147059	-0.385790745333334	-3.1303501842156862
O	3.0614110441470594	0.372869095766666	-2.8584200242156865
O	2.5800698441470593	1.7425298816666661	-3.1350861042156866
O	1.7887611341470593	1.501922851666666	-4.220682604215686
O	2.599019514147059	0.7384211196666659	-4.995325304215687
O	1.6373435641470593	-0.26744002733333405	-5.259026894215687
O	2.188662584147059	-1.4904994683333341	-5.275884254215686
O	3.3813907641470595	-1.383766368333334	-4.403022774215686
O	3.6886230941470592	0.06253620366666596	-4.256341894215686
O	-1.1240510802529409	-1.176654528333334	-1.3885456632156865
O	-3.005873385852941	-1.0246666683333339	-2.7681450042156865
O	-3.517988745852941	-0.32756160333333406	-3.826148664215687
O	-2.7499483658529407	-0.439970318333334	-4.976718834215687
O	-1.4905385068529409	-0.9585975083333341	-5.010794364215687
O	-0.9871829178529409	-1.3790349183333341	-3.825904714215686
O	-1.674939047852941	-1.184223488333334	-2.683844324215687
O	4.392567754147059	-1.554428618333334	12.053612645784312
O	2.512245154147059	1.023143404666666	10.023700745784312
O	4.006242694147058	4.251030101666666	8.672181545784314
O	2.892410334147059	4.250994311666666	5.168879785784314
O	3.6901343141470595	7.113659111666665	2.764374685784313
O	4.445320674147059	2.3765050116666657	0.33161805578431336
O	9.13467076414706	-0.24072783533333397	0.16789935578431336
O	9.34827256414706	-1.5802565583333341	3.6857992157843134
O	7.77308988414706	-5.064266708333334	4.017893455784313
O	6.97864936414706	-6.973351708333334	-5.760419194215687
O	0.5913793041470592	-6.078919328333334	-6.047671514215687
O	-3.175679305852941	-6.2513668083333345	-6.690937994215687
O	-3.866490325852941	-8.242837048333334	-9.690502414215686
O	4.1593953141470585	-11.375288208333334	-5.410496294215687
O	7.35428199414706	-13.135694308333333	-4.223381794215687
O	2.840411724147059	-11.968636108333333	2.6258056557843137
O	1.906366714147059	-8.448557458333333	3.520224455784313
O	-1.378981439852941	-7.771948298333334	5.207508005784313
O	0.5584476741470592	-5.875596648333334	7.988182635784312
O	4.102788724147059	-4.771704778333334	8.759551145784313
O	4.74286936414706	-1.580024278333334	6.793427535784314
O	7.434622334147059	1.035404170666666	6.862372865784312
O	7.64875716414706	2.546061491666666	3.4075645257843137
O	9.39063016414706	5.568523891666666	1.9811954357843133
O	12.80942896414706	3.962476691666666	1.7246527957843136
O	13.10827996414706	4.084742531666666	5.489926285784313
O	10.69138266414706	6.960073971666666	6.161387175784313
O	-3.412233145852941	11.884979591666667	-6.449286094215687
O	-1.0752867262529409	10.284958741666667	-3.847312764215687
O	-1.2383162236529408	11.290910791666667	-0.20679967421568657
O	-1.216925013152941	7.847619821666666	1.4373098157843136
O	-1.0553577538529408	7.558875061666666	5.285609935784313
O	-4.438824405852941	4.026882361666666	2.902357995784313
O	-9.85899919585294	4.804712061666666	2.4866281157843133
O	-9.61689733585294	6.930850911666666	-0.6245715592156865
O	-9.63374337585294	5.081490181666666	-3.9048410342156865
O	-10.76300647585294	-3.845253398333334	-1.0518708282156866
O	-3.7472653158529408	-5.9620538183333345	-0.46014991421568663
O	-0.5489043918529409	-7.744722428333334	-1.1307982312156866
O	-1.6626499338529408	-9.719356308333333	-4.110896274215687
O	-5.325737195852941	-9.752282008333333	-3.4262190642156867
O	-8.536735735852941	-7.752965048333334	-3.8847541942156862
O	-10.418085825852941	-5.629550988333334	-6.354327504215687
O	-14.044736535852941	-4.669516578333334	-6.640097644215687
O	-6.922908775852941	1.402243131666666	-9.695489014215687
O	-3.794584615852941	2.650106061666666	-11.451582184215686
O	-3.454308385852941	5.617839061666666	-9.070972974215687
O	-5.69712514585294	8.065669801666667	-7.328060564215686
O	-5.167290605852941	7.528477491666666	-3.569969744215687
O	-6.01874689585294	9.922131451666667	-0.8372085632156865
O	-6.442825485852941	7.918944061666666	2.3489531557843133
