42

O	24.248379975379855	-3.0227028368497275	17.803042302873298
O	24.315189666923594	-1.8388293701311405	17.138106888684145
O	23.819846817554275	-1.7145500413177506	15.850661062721512
O	23.261734324531268	-2.6380917577828273	15.117275248264823
O	23.749127159750337	-3.7796102732929713	15.674749428794449
O	23.9122603842077	-4.041315229107348	16.99453998681193
O	22.667010794828272	-3.0226561101443354	13.57394606652651
O	22.308724218070132	-2.0739710190307767	12.594032342179514
O	23.381476386624712	-4.088429250344183	12.823355166332561
O	21.239350051561033	-3.6729746245118164	14.09820753013461
O	20.227688400522954	-2.9743512256041527	13.973852130790693
O	20.105724991815304	-1.6578799254432868	14.312071187745135
O	18.97622159861797	-1.3675815463949443	15.1835925687351
O	21.147405064542827	-0.7824985284408852	14.466352888206993
O	21.718557978260243	-4.405772987037602	15.212158351222143
O	22.215862402263834	-5.634566569490698	14.65785796091549
O	22.441646492175277	-6.659307786206312	15.457688990617678
O	20.85479240936406	-5.657391085121069	14.205005416942708
O	20.250982508177664	-6.257208308326397	15.278723230259496
O	19.71341286735569	-5.348212071795983	16.20800383864197
O	18.6802443903705	-4.933022419022102	15.568014250580157
O	19.927068566109888	-4.318600956343721	16.987344866297448
O	19.617637290128727	-3.0430287971366172	17.133144388573573
O	19.564751799832855	-2.2525240075155413	18.3201250394611
O	19.78569424014313	-3.4598696465041145	19.07530940678277
O	21.12474635064744	-3.5045241669322325	18.49237543578308
O	21.433407740889944	-2.417888820750438	19.330346875753442
O	21.76322692974837	-1.5652382652517383	18.39051992614619
O	21.341823012342136	-1.342193729186331	17.06560527605827
O	21.046801138324135	-2.7297287934037087	17.214836078196587
O	20.81407954325527	-5.483979346884726	12.790685169033502
O	22.410843218706226	-7.175882917043963	12.774277125879072
O	22.603188199545897	-8.552187353084705	12.580807367346292
O	21.990202833417847	-9.28189658018316	13.593981456126537
O	20.72069297727105	-8.959529656538654	13.882268226956434
O	20.347453273159132	-7.709661907115892	13.509818533627593
O	21.104000370827286	-6.931754455013102	12.618687860310304
O	24.204713416823306	-3.1904523745541393	19.15632111794346
O	24.458667404979053	-2.309793699968754	20.17942968372265
O	22.270067482448994	-0.513862697830201	19.146953735316945
O	21.00612869954026	-0.048133093760757806	19.253372139587235
O	20.620780777441077	-0.21686960670336264	17.76184691296389
