85

O	0.70781043254	-1.1666657886460012	-3.5853472655200003
O	3.08771591954	-0.8276013686460011	0.08918901247999989
O	2.87602667954	-1.1914213086460013	-2.48040129552
O	-1.2453983504600001	0.3513207668539989	0.3226912744799999
O	2.44409944954	-0.3332789366460011	-4.40235883552
O	0.33938567753999993	0.2357203436539989	-0.23965385952000007
O	4.38668178954	-1.539924448646001	-1.45681597252
O	3.3832885295399997	-0.9403482986460012	-1.2591475605200002
O	0.2691161015399999	0.4389114903539989	5.86428061448
O	0.15674428853999992	-1.4553314786460012	1.81576853448
O	1.94019165954	-0.4855894686460011	-3.09230641552
O	-1.8174668504600002	-0.9447661286460012	0.18333734347999986
O	2.07572170954	-1.547804358646001	0.64248046448
O	-1.9195931004600002	1.259245482353999	-0.56526080452
O	1.3209730495399998	-0.8410934786460011	1.6479599244799998
O	1.5286329395399998	-2.3241867486460013	-3.89685165552
O	0.9441646195399999	-1.3804927686460011	-0.4428158415200001
O	1.1337940695399997	-2.704689138646001	-0.8176413986200001
O	0.24332705753999992	-3.403478228646001	-0.06657799452000013
O	2.17380823954	-3.462860628646001	-1.1650558865200003
O	0.13693321253999993	-4.735777678646001	-0.34070937152000014
O	1.9319125395399999	-4.634082978646001	-1.8083293955200002
O	1.1176356495399997	-5.381254108646001	-1.00499732052
O	1.1529960495399998	0.4177633743539989	0.9615712644799999
O	0.47128164653999993	1.286392361353999	-1.0860674025200001
O	1.4194939295399998	2.122367751353999	-0.4849764665200001
O	-1.1506139134600002	0.915289581353999	1.8898778644799998
O	-0.10014890046000009	1.600959951353999	2.36141238448
O	0.53483157054	1.427988631353999	3.6079166844799997
O	-0.012139823460000088	0.4509210123539989	4.43265263448
O	-1.3609346704600003	0.3615147972539989	4.176617504479999
O	-1.91578033046	0.6129365103539989	2.91162848448
O	2.13655433954	2.221874581353999	0.7549680644799999
O	2.58108818954	1.8409637013539988	-1.3716097295200003
O	2.5704927395399997	-1.873772068646001	-4.622808705520001
O	-12.09754245046	-4.970125208646001	2.98165733448
O	-10.48958505046	-1.767709758646001	1.76605362448
O	-10.693120650460001	-0.41322323464600114	-1.78962499552
O	-7.13099828046	0.39095154365399887	-2.53046559552
O	-6.059382730459999	1.9525764413539988	-5.86714376552
O	-2.75230474046	-1.8478611486460013	-4.30379317552
O	-3.13429342046	-7.023632308646001	-5.97161098552
O	-6.0079547804599995	-8.240778978646	-3.83733171552
O	-4.78345397046	-9.704092208646001	-0.4929882405200001
O	5.1603137095400005	-10.125362008646	-3.05092736552
O	6.89700296954	-5.237283318646001	0.8202512544799998
O	8.50162268954	-2.657300308646001	3.1083471444799997
O	12.05715054954	-3.530517488646001	3.60171007448
O	6.8949625795400005	-11.513229608646	1.85801836448
O	0.1285720875399999	-11.313668408646	6.50516302448
O	-1.49392283046	-8.172138498646	5.25324669448
O	-2.2428696604600002	-5.430206288646001	7.649100414480001
O	-5.89025281046	-5.421340728646001	6.3839797444799995
O	-8.024914410460001	-7.034311768646001	3.73486643448
O	-7.47337848046	-5.105111498646001	0.54054255448
O	-9.10084071046	-5.067283768646001	-2.84070541552
O	-6.45313157046	-4.038558378646001	-5.341572065519999
O	-6.55015700046	-3.051782708646001	-8.99302485552
O	-6.777178290459999	-6.539643418646001	-10.34601859552
O	-11.139276650460001	-3.033093838646001	-8.97236390552
O	2.93375975954	10.408089491354	-8.10290582552
O	0.3809890135399999	7.5931698413539985	-7.51195544552
O	-3.18211864046	8.392637721354	-6.536727215520001
O	-3.6676426604600003	5.915487361353999	-3.69058967552
O	-7.12984354046	5.527778461353999	-1.9928441055200001
O	-2.8380129104600003	5.368743021353999	1.20307345448
O	-1.2547524004600001	9.744237621354	4.318010924479999
O	0.87516500954	11.209431091354	1.5357318744799997
O	4.457812259540001	10.031934561354	1.36089291448
O	4.84439389954	4.219854551353999	8.99430416448
O	2.8990465195399997	-2.411602668646001	5.6717224344799995
O	3.22903890954	-5.791046608646001	4.544690064479999
O	6.84642192954	-6.329319008646001	5.393385504479999
O	7.155284609540001	-3.721644268646001	8.01746726448
O	7.87518266954	-0.0711267426460011	8.70101827448
O	10.063552849539999	2.8003871113539986	7.61933779448
O	11.11224694954	6.010053851353999	9.288118774480001
O	12.871532949539999	6.303464801353999	1.49672567448
O	9.95109444954	5.348500491353999	-0.5525814045200002
O	10.278701049539999	4.092121141353999	-4.11573893552
O	7.150489099540001	5.971826141353999	-5.211302655520001
O	5.54726039954	9.342362421354	-4.54920844552
O	2.11982522954	8.568688041354	-2.99111399552
O	-0.86002966946	10.803437691354	-2.8094225555200003
O	-3.00446383046	9.567260781354	0.05454515447999986
