83

O	-3.462692750555555	4.171843620711111	3.518363118511111
O	-2.7464019605555556	2.9967230607111106	3.2392106285111106
O	-1.3676344175555553	2.7271806107111107	3.1205006285111114
O	-0.9770072955555553	1.3679940737111107	2.8636885885111107
O	-1.8144288705555554	0.36305989871111066	2.664784118511111
O	-2.8079675105555553	0.5586538197111106	3.5476646985111113
O	-3.1565676105555553	1.8694880057111107	3.995562378511111
O	-1.9017605845555554	-1.0841478592888893	1.864904348511111
O	-3.3747875305555555	-1.4587778492888892	1.711468758511111
O	-1.5563182043555552	-1.9563518592888893	2.9007713285111114
O	-1.5499804993555553	-1.0558876492888893	0.2915523885111111
O	-0.5503469705555553	-1.7905791692888895	-0.14781226948888893
O	0.7539272794444445	-1.4209638092888894	0.3010200485111112
O	1.7943541494444446	-0.7444503292888893	-0.4116300134888889
O	0.5251872094444447	-0.9125126892888893	1.635016528511111
O	-2.5371571655555556	-0.28956417928888945	-0.2886023954888889
O	-2.7555962105555554	0.8598951197111107	0.7071558185111111
O	-3.7588148805555552	1.6578375457111107	0.740453358511111
O	-2.0345600975555556	1.8385232957111106	0.02283078951111106
O	-2.4597243305555554	2.058266364711111	-1.282008658488889
O	-2.648401470555555	1.0624864655111106	-2.204747851488889
O	-3.684500490555555	0.48164334971111067	-2.2765964314888887
O	-1.5763559475555553	0.4851537107111107	-2.7729833514888886
O	-1.1947416565555553	-0.7334022292888893	-3.1818652514888885
O	0.1980747494444446	-0.9733456492888892	-2.9586156514888886
O	0.6458638394444445	0.32399100471111064	-3.054095761488889
O	0.26661085944444474	0.5592326377111106	-4.239526191488889
O	-0.1385389905555554	1.8248830687111106	-4.433301031488889
O	-1.4714725115555554	1.9706397247111105	-4.409802201488889
O	-2.1141185615555553	0.6440299937111107	-4.670935921488889
O	-0.9164206815555553	-0.20918976928888933	-4.698086741488889
O	-0.9836270945555553	0.7227437997111106	-0.27081432848888887
O	-0.22444737055555541	2.5854140007111104	-1.448924614488889
O	0.9076583894444448	3.1953604007111105	-1.8859490414888889
O	1.6717761094444445	3.552608930711111	-0.8458733005888889
O	1.6375552794444448	2.896922640711111	0.3385295385111111
O	0.5435608594444448	2.1582311007111104	0.5245046085111111
O	-0.0498086105555553	1.6022985117111106	-0.5501058784888888
O	-10.136741840555555	-6.6949800692888894	4.267848518511111
O	-6.376613470555556	-6.5715246392888895	4.550463798511111
O	-4.002359590555555	-9.260773249288889	3.2189630085111105
O	-1.4719454025555554	-7.311921059288889	1.4346487585111112
O	1.5714509494444449	-8.72529127928889	-0.3364584774888889
O	-0.7733592245555554	-4.72241498928889	-3.1733205914888885
O	-4.412203760555555	-5.870143449288889	-7.1419112614888896
O	-7.415507940555555	-6.40961655928889	-5.015182451488889
O	-9.220903780555556	-3.1244078892888894	-4.449333091488889
O	-4.7352223605555555	2.6071866407111104	-11.191244661488888
O	-1.5247535885555554	6.13401525071111	-6.622256591488889
O	0.34186041944444456	8.715044120711111	-4.658499641488889
O	-11.430358200555554	5.08986360071111	-3.572213521488889
O	-9.163183100555555	2.8766777407111106	-1.627188545488889
O	-8.318227550555555	3.753966370711111	1.8672197785111113
O	-9.395479570555555	0.17060572671111063	2.953700478511111
O	-10.317598230555555	-3.04650345928889	1.4082422985111112
O	-7.369075190555556	-5.00736267928889	0.25024742851111115
O	-6.644099500555555	-8.384280769288889	-1.0000252714888889
O	-3.6745525005555555	-8.100445009288888	-3.274896301488889
O	-1.4966428515555554	-10.65914194928889	-5.010836491488889
O	13.046835529444445	-3.8691716992888896	-1.629547955488889
O	9.466362829444446	-5.228960769288889	-1.4983356264888887
O	8.287481609444445	-7.306639199288889	1.454081028511111
O	4.919251979444445	-5.67286803928889	2.1347939385111108
O	2.4784089594444443	-7.06698033928889	4.715871308511111
O	2.790811809444445	-1.4910305092888894	4.6340315585111105
O	6.040634659444445	1.2534746477111107	8.179732818511111
O	9.240600429444445	0.8410108777111107	6.123030388511111
O	3.2287372694444447	12.639045350711111	6.098300408511111
O	2.1134091894444444	9.245808840711112	4.937721828511111
O	-2.831821460555555	6.172212800711111	0.3449083285111112
O	-4.9607086505555555	5.87664923071111	-2.801783881488889
O	-4.206520800555555	9.156636710711112	-4.387200901488889
O	-3.0289388705555553	11.024990140711111	-1.3758384654888889
O	0.022739609444444753	11.808627650711111	0.7794817585111111
O	3.7565956194444445	12.43049535071111	0.5562430985111111
O	6.252107579444445	14.010995650711111	2.8746279785111115
O	8.980879129444444	6.65879744071111	-3.3247982914888885
O	9.343596029444445	4.55763725071111	-6.486305511488889
O	9.916016429444445	1.3741108687111105	-4.5002346514888885
O	9.191092429444446	-1.0279912792888892	1.016153518511111
O	9.777642129444445	-3.2690903592888896	3.9810788185111106
O	6.6514041694444455	-2.8077124992888898	6.138686038511111
O	5.4888986794444445	-4.768600519288889	9.157335298511112
