49

O	21.283408832439097	-0.8345833206303617	18.582579272801194
O	22.582132209534514	-0.5614614141594281	18.26398671692294
O	23.02461005436108	-0.9983048198880744	17.019365222726304
O	22.275368645469076	-1.7943998070974096	16.27775364968919
O	21.058890546053373	-1.2587036316241105	16.330286166157137
O	20.547476716045352	-0.7161529584382111	17.44071527333742
O	22.88462095989471	-2.6840232297472313	15.00118123404989
O	24.26178684664209	-2.866315205041343	15.201287936544484
O	23.215020110210293	-2.202158043215449	13.587804567242596
O	21.619117833453753	-2.875023856892142	14.00554277795949
O	20.521005534430362	-2.184973928768013	14.474216725900748
O	19.473950993987472	-3.054483502788524	14.750768004092572
O	18.463016354680892	-2.660076781670369	15.662057840525978
O	19.0872028801387	-4.183636232661022	13.88907464071725
O	21.216148033708347	-4.020858307086332	13.499629745714302
O	21.8196679341718	-4.803347625159153	14.538768628778017
O	23.206587703627694	-4.711111382254705	14.301132829801203
O	21.730543925149217	-6.075430500607943	13.873937737335693
O	22.656821615545784	-6.817619016374687	14.483211825892244
O	23.523097158588072	-6.510275685580693	15.532506749257685
O	23.410791576042165	-7.699552259442845	15.915387693409523
O	22.16755353867275	-5.684973270791475	12.426791580201865
O	22.44258728839638	-8.029081861049416	12.569058184440841
O	22.064755467589016	-9.252025422376182	12.104598431236116
O	20.71666987698218	-9.406632059161737	12.00864954898512
O	20.040204156245466	-8.353840791413067	11.492070935565303
O	20.562387318568184	-7.115008241561334	11.716464591867037
O	21.8777778471073	-7.005513251230047	11.918383161250853
O	20.793556171871437	-0.3112055744924205	19.744234574360163
O	21.26039029395097	0.945210217576514	20.129011295657172
O	23.56152758997619	-5.768878896840333	16.804713598756145
O	24.31942286048255	-4.838017393791708	17.336317482401363
O	24.116574623181968	-4.113372260867688	18.517182749261913
O	22.75875072946219	-3.7933282301659856	18.686377779492247
O	21.84784430240847	-4.431699379691882	17.958566426724904
O	22.34943710005885	-5.392454776723476	17.159398987988652
O	24.922591775705097	-2.8143223772591064	18.478252944744906
O	20.498655102774393	-4.344255579410383	17.498158661990047
O	19.869420205045568	-3.611532127115032	18.147555593663988
O	20.129536554438353	-5.32935000724386	16.489683839466167
O	18.743952477333444	-5.609399927231799	16.44034263888441
O	20.54049032453804	-6.641144890741993	16.99854575656863
O	20.498909250170318	-7.899160788902645	16.370419552152427
O	20.814633890927357	-9.073306191413797	17.061770558952475
O	21.18832016491301	-10.015452681541616	16.204123778221327
O	21.168070671602365	-9.417060790278672	15.059622591575438
O	20.304683793347035	-8.46471077831787	15.155708381308333
O	19.380911538815987	-7.52339611429033	14.421647023373541
O	21.98686043885837	-11.246328527239255	16.504522199223747
