105

O	-2.110058313232142	0.36878152419107135	-2.2246793010214287
O	-1.6749063787321419	1.2068778041910713	-1.3334790810214288
O	1.051091703767858	0.6627978231910714	0.22223617897857129
O	-1.4600549222321417	0.3716809381910713	-3.371368411021429
O	-1.898172304232142	1.2820994501910714	-4.043513611021429
O	-1.2776605042321418	2.3690658321910716	-1.6138132860214287
O	1.1070731037678583	1.5362228421910713	1.330531418978571
O	0.09007802376785823	2.4073525921910712	-1.8166771970214288
O	-0.27859801623214175	2.0020920121910715	1.4570768989785714
O	-4.466112286232142	0.41324174889107135	-0.5673487700214287
O	-1.4548864112321418	1.7256344721910712	1.9067529989785714
O	-0.2002212062321418	3.2808154221910715	1.0653347989785713
O	0.7662787137678582	1.5088701921910712	-2.5473699510214285
O	0.8728905637678583	3.1030268421910714	-1.2134489390214287
O	-2.585657017232142	2.3513985421910713	1.652853898978571
O	-1.2806102162321418	4.024567862191072	0.7720787189785713
O	-2.494749696232142	3.4552017821910717	0.9243049189785714
O	0.058049323767858096	-0.4917672528089287	1.6421409489785712
O	-0.5049457162321418	0.2660024231910713	-1.1725487080214287
O	-2.6976651662321416	-1.0371912278089288	-4.532025781021429
O	0.1133282637678581	-0.2452701908089287	-2.082932351021429
O	-1.5074399502321418	-0.8927210878089287	-4.061822791021428
O	-0.2478475462321419	0.9330063641910713	-0.18036468502142866
O	1.003654263767858	-1.4138640078089286	-0.44569728302142864
O	-0.8760448232321418	-1.9114726678089287	-3.5643970710214288
O	-1.959379111232142	-2.7203772578089285	-0.5784521500214287
O	-3.359966146232142	0.27120269019107135	0.21205712897857143
O	-3.358400686232142	-0.8323597378089287	1.760119908978571
O	-1.4918732972321418	-3.0823617778089285	-3.4157980110214288
O	-2.8393115362321417	-3.0142738378089287	-3.4682971210214286
O	-3.6880732062321417	-3.969590587808929	-3.138954141021429
O	-5.033231526232142	-3.817514377808928	-3.071125461021429
O	-5.4802393862321415	-2.6642519778089286	-3.6321960210214286
O	-2.013753076232142	-2.6099436778089284	0.9167211689785714
O	-4.618863576232142	-2.2391711478089285	-4.648443211021428
O	-3.351980616232142	-2.1342597378089283	-4.304805141021428
O	0.6508099437678581	-0.6947354178089287	0.4690184089785713
O	-4.4858854562321415	-0.09469818380892864	-2.022343311021429
O	-1.1354615892321418	-0.5911823778089287	1.3575514289785713
O	-1.5483113020321417	-1.1734945278089288	0.33377798897857136
O	-4.547363136232142	1.8313680721910712	-1.0022264648214287
O	-0.8719363742321419	-2.2802134078089287	-0.23275817302142865
O	-5.712161776232142	-0.3884641928089287	-0.3931865170214287
O	-3.1189330962321415	-2.2206121978089284	-1.1600696570214286
O	-4.135623406232142	-2.8072012978089287	-0.16976734202142862
O	-3.6207567762321418	-4.067052837808928	0.0751622089785714
O	-2.544432799232142	-3.7932129778089285	1.136497168978571
O	-1.3122819252321418	-1.9374100578089288	1.9737322989785713
O	-2.874250286232142	-0.8603753878089286	0.6353196089785714
O	12.620135923767858	0.4580505914910713	-3.935715921021429
O	10.699362323767858	0.7774217031910713	-0.6853324160214287
O	10.482962223767858	-1.9796791878089286	1.9019864389785712
O	6.820584653767858	-2.0114503378089283	2.6536261289785714
O	5.399305983767858	-4.335887727808928	5.300891998978572
O	2.329517183767858	-4.384473397808929	0.9035793889785714
O	2.8144892237678585	-7.666809527808929	-3.3360135810214286
O	5.727341013767858	-6.326794487808929	-4.912777771021428
O	4.8728609737678585	-3.7754582178089287	-7.572956101021428
O	-5.882426096232142	-6.472375767808929	-11.788433311021429
O	-4.730918876232142	-5.250328097808929	-8.326897321021429
O	-6.139388346232142	0.3361122141910713	-5.429046131021428
O	-7.652797286232142	3.3805467021910713	-3.9922409210214287
O	-11.160309546232142	3.8520677621910715	-5.360303311021428
O	-10.933539226232142	0.7650948481910713	-7.487348271021428
O	-8.847251626232142	-1.7911701178089288	-9.359743991021428
O	-5.757602056232142	-1.1286870578089288	-11.45813761102143
O	-4.210249606232142	-3.1288848778089284	-14.386955411021429
O	1.4355088937678582	2.5055991821910717	-12.13467901102143
O	2.752410793767859	2.4494920521910712	-8.72619490102143
O	3.6409071437678584	5.681158922191072	-6.903988501021428
O	7.032433163767859	4.091144502191071	-6.056821761021428
O	8.715830823767858	0.7205426961910713	-6.447539361021429
O	7.599146213767858	-1.3661118878089287	-3.5276730310214286
O	8.918894723767858	-4.582859097808928	-2.1396110910214285
O	5.973834043767859	-6.232180657808929	-0.4467588170214287
O	5.7646001637678586	-9.205294327808929	1.8369771489785713
O	6.066977103767859	-11.824826267808929	-0.8898061178214287
O	9.734814223767858	-11.02492706780893	-1.2333574360214286
O	10.313083423767859	-9.573186767808929	2.2501865289785714
O	-0.10148485623214176	-8.93393724780893	7.339051228978572
O	1.532263453767858	-7.502860067808928	10.499995288978571
O	-4.099967346232142	-2.0918759578089285	13.182798488978571
O	-1.4236267742321418	-2.8750977578089287	10.507034088978571
O	2.176080863767858	-1.9894353678089287	11.198028888978572
O	3.0966066237678582	-0.47188628780892866	7.873072848978572
O	6.668358223767859	0.6317421181910713	7.046827768978572
O	2.748642483767858	3.9778870721910713	5.119070188978571
O	1.202456733767858	8.453682652191072	7.824733208978572
O	-1.163255195232142	6.769863592191071	10.265681888978571
O	-4.662637466232142	6.405930052191072	8.89512678897857
O	-3.9592393662321417	10.91605603219107	0.6188154489785712
O	-1.7716128742321418	5.519128272191072	-3.6759751310214286
O	-2.1977118522321417	3.1439139921910715	-6.711882361021428
O	-5.558964696232142	4.0965544521910715	-8.006462811021429
O	-5.753822326232141	7.483580862191071	-6.610788321021428
O	-6.720009256232141	9.34199276219107	-3.5269340410214287
O	-9.191881336232141	9.59712665219107	-0.7408299410214287
O	-10.280946316232141	12.492628032191071	1.426049088978571
O	-10.039711596232141	3.4393332021910714	4.850818288978572
O	-10.799862396232141	-0.23159276280892865	5.128599998978571
O	-7.884795486232141	-0.7827324778089286	7.664219008978571
O	-6.296997636232142	0.9379598261910713	10.60537448897857
O	-2.7091369162321417	1.6970472321910712	9.46768388897857
O	0.15149438376785818	2.5421073421910716	11.786577388978571
O	2.639243373767858	4.477037482191071	9.664398788978572
