90

O	2.19569971812766	1.457588844319149	-1.7185219267425533
O	1.5154058181276597	0.448269046319149	-2.1447968367425534
O	-1.97429861787234	1.444253656319149	-2.0377227697425533
O	-2.38196626187234	1.9719405733191488	1.7449504912574467
O	-0.73161867387234	3.1962893263191487	0.9226327912574466
O	1.6990652581276597	2.718916450319149	-2.057265927742553
O	-3.87907610187234	1.1331759623191489	-1.1852983774425532
O	2.3048947581276598	-0.6256842736808512	-2.6512473687425535
O	-1.84518955887234	0.11708292631914885	-2.5127380887425534
O	-2.63988356187234	1.2204525703191489	2.854168141257447
O	1.97435186812766	-0.26360186368085103	-3.9990966887425534
O	-1.21727491787234	-0.35972288368085104	-1.2734812415425534
O	-2.81995517187234	2.183000904319149	3.9416340812574466
O	-3.96611748187234	0.961123115319149	2.124937971257447
O	2.76254986812766	0.664206606319149	-4.496616828742553
O	-1.90505956487234	-0.46943764368085117	-0.16577047874255335
O	-4.2762697718723395	2.483859289319149	3.9946580512574466
O	0.7577876381276598	-0.438100203680851	-4.513996698742553
O	-0.18355059387234007	-1.182322303680851	-1.1013492784425534
O	2.73969646812766	0.723004286319149	-5.861576188742553
O	-1.1698715998723401	-0.416540933680851	0.9631065212574466
O	0.49846083812765984	0.05883522631914895	-5.780911918742553
O	0.64443631812766	-0.881673823680851	-0.05631277874255325
O	1.4850437881276597	0.763973925319149	-6.384240748742553
O	0.09359660812766002	-0.023643233680850972	0.8346234212574466
O	0.45300005812765987	1.162243528319149	0.48399846125744683
O	-0.22597439787234008	1.6963726004191488	-1.7094474927425534
O	0.4666781181276598	1.7861437931191488	-3.548791568742553
O	2.5012055681276597	5.356395106319149	-2.9090672787425533
O	-1.1446643908723402	2.4769413273191487	-1.8765686537425532
O	1.52944542812766	3.406904416319149	-1.1191269831425532
O	2.25711861812766	3.903699956319149	-5.013875458742553
O	-2.37630096187234	1.756933054019149	0.3870120012574467
O	2.50274325812766	3.268125256319149	-2.9813764587425533
O	0.4545892781276599	4.611939226319149	-3.3190506587425537
O	-2.04493253187234	3.618391606319149	0.9428333012574466
O	-4.31743929187234	3.044822276319149	1.3705479312574467
O	0.25785738812766	0.8348895303191489	-2.7442992087425533
O	-2.72010174187234	1.4815864033191488	-0.7995552247425532
O	-3.15217861187234	3.227647566319149	1.7741850912574468
O	-0.17035331187234004	2.211253607319149	1.9681559012574465
O	1.1649617581276601	1.830825742519149	1.4033956412574466
O	1.83466544812766	4.315702856319149	-3.681112728742553
O	6.1831637881276595	6.904000486319148	9.564466151257447
O	4.939636808127659	3.4522879163191487	8.516266061257445
O	7.2116996281276595	0.5326038263191488	7.8449174012574465
O	5.78777309812766	-0.7565394836808512	4.695343161257447
O	7.29771229812766	-3.8673109336808515	3.053569021257447
O	6.04857103812766	-0.03579441368085101	-0.2788929927425533
O	9.972613068127659	3.775655946319149	-2.1664112447425534
O	9.921747268127659	5.999949716319149	0.7924376312574468
O	7.31774714812766	8.81924499631915	0.5111949112574468
O	4.70184774812766	7.868677066319148	-9.518608268742554
O	-1.46067824587234	4.985909886319149	-7.833826838742553
O	-4.909809141872341	3.634878786319149	-7.584476678742553
O	0.14714451812765983	13.41820079631915	-1.6874497777425532
O	0.6926453581276599	10.27146987631915	0.19310100125744678
O	-1.84173435087234	9.37794474631915	2.5067028412574466
O	0.9592446681276598	8.898766226319148	5.220660541257447
O	4.58320726812766	8.86031627631915	5.684336841257447
O	5.92987350812766	5.555592536319149	4.568463431257447
O	9.24759376812766	3.9186390163191493	4.749422151257447
O	9.48399796812766	1.635461762319149	1.7945609212574467
O	12.059552268127659	-1.020119913680851	0.8916456112574467
O	1.24338148812766	-12.846782803680851	-3.3406656387425535
O	3.1065242681276595	-9.88718370368085	-1.6937543697425532
O	3.79762803812766	-9.90492080368085	2.003313151257447
O	2.8517137181276597	-6.439945143680851	2.975396181257447
O	3.31734094812766	-4.910678043680852	6.414858491257447
O	-1.3675170288723402	-3.6508660636808514	4.393673471257447
O	-6.24870073187234	-6.332752623680851	5.008450461257447
O	-5.56900003187234	-8.89732970368085	2.408874221257447
O	-6.701953851872339	-8.062303883680851	-1.0964212587425533
O	-14.35808683187234	0.602715166319149	-1.2418402221425533
O	-10.666486061872341	0.536606506319149	-0.5378550457425533
O	-4.56016718187234	5.165041686319149	-1.6191699577425531
O	-2.35658456187234	7.432314206319148	-3.195300008742553
O	-4.420229401872341	8.04662201631915	-6.230767528742553
O	-7.821634101872339	7.186544316319149	-4.915103498742553
O	-10.18886377187234	4.213627796319149	-4.386631968742553
O	-11.36653363187234	0.9590330733191489	-5.907985158742553
O	-14.44702113187234	-1.2002932136808513	-5.458053938742553
O	-6.0214004118723405	-5.256789033680851	-7.909572048742553
O	-2.97838111187234	-5.978542853680851	-9.945464018742554
O	-1.3057558698723402	-7.810460463680852	-7.053864698742553
O	-2.3503366718723404	-10.29208810368085	-4.471886218742553
O	-1.60501552287234	-8.681699303680851	-1.1243651584425534
O	-1.16517179987234	-10.43417970368085	2.1323263112574464
O	-1.86839265987234	-7.811927303680851	4.775462121257447
O	-1.22290556887234	-7.973597133680852	8.498924451257446
