47

O	22.015910855511553	-7.3685372170170345	12.725084464902471
O	21.75709525296961	-6.379031454289485	11.830272866056632
O	22.16793594109741	-5.139097657022239	12.105087786790062
O	22.888857669129482	-5.0836194186263155	13.257898758593937
O	23.752778527337153	-6.013399528403054	13.41591210741354
O	23.183650917181097	-7.17672734648971	13.291497445172709
O	23.276849859766514	-3.6418594386222134	13.97073780225233
O	24.598165360529627	-3.6467470244528117	14.436368487999724
O	23.24573754062477	-2.8709014675399103	12.783497202681287
O	21.912560735676408	-3.1140553002373164	14.690099941084075
O	22.077687450042426	-1.810737402042654	14.92906706107359
O	20.95742899512511	-1.4149279135684554	15.661159362270155
O	19.98582895320847	-1.5808591658626079	14.593101115428116
O	20.6675850638055	-0.31291013444336135	16.47426347372589
O	20.90127329547996	-3.5228065280003804	13.795829695254014
O	21.11313494584715	-4.870753374200648	14.400427338180817
O	20.098230830628616	-5.695626653280737	13.851579253035098
O	20.626765689889382	-4.840147068370426	15.614780418984598
O	20.02488803252887	-5.965614645858169	16.1770872385222
O	20.326207132367532	-7.132396796958057	15.592666451207892
O	19.787080801269962	-7.805856668973343	14.86487671629366
O	19.34882626286229	-4.247609840279248	15.317250769339983
O	18.647203206684665	-2.8711132837081776	16.96362234198748
O	18.02660358736839	-2.4762007884233648	18.094205781023064
O	18.15413208062665	-3.317574753270719	19.152184043713046
O	18.65270733922566	-4.535443151123355	18.8792605194884
O	19.054802311246057	-4.854259645865339	17.628602762734236
O	19.377931120524128	-3.9347873962705484	16.72780583349111
O	21.485298534911195	-8.674540021480679	12.393188598715966
O	21.988171475148985	-9.351457696088147	13.483211719175456
O	21.576911346540395	-7.565522116118191	16.113615627447988
O	22.183623075487418	-8.683703422422324	16.28379162061237
O	23.512613631552142	-8.508513163943434	16.20687169902041
O	24.104581664263463	-7.32050194290584	16.53111147043719
O	23.530188445592618	-6.11983533195983	16.417289763383373
O	22.24170963339804	-6.3615191893372565	16.40592520800415
O	23.8002344567399	-4.786821710973427	16.744624048608514
O	24.823458949448877	-4.47701722927947	17.273057772710857
O	23.025312333091804	-3.7027577645465994	17.02660754713966
O	23.56044467022803	-2.4065325390481984	17.41221509674009
O	22.197976673203364	-4.3312204833839	17.91407367769862
O	21.816167275903418	-3.401292047538091	18.991650869832753
O	22.72393636464737	-2.5681846294451782	19.415965437097597
O	22.084717980576276	-1.356600372712907	19.777394581468354
O	20.842071613491473	-1.4181793257531456	19.049382665894772
O	21.091924306550297	-2.494283052445357	18.357512357315763
O	22.496638968548293	-0.08680357983197506	19.469680829430096
