104

O	1.0731879394150945	-0.930415250113207	2.0524511853622647
O	-0.004808685584905548	-0.6824195741132071	1.2692182453622647
O	1.8649056594150943	-1.6558181181132072	-0.9447563142377355
O	1.6342343394150944	1.324366711886793	-3.0355013246377354
O	0.2903804794150944	-1.680629408113207	-4.4011456846377355
O	1.1619654894150946	-2.202981168113207	2.3591443153622644
O	3.465547269415094	-0.5984669571132071	-2.3247254446377354
O	-1.0620663465849056	-0.447821655513207	2.1795274453622646
O	0.5426424894150945	-1.7998371281132068	-0.8098500546377355
O	0.3408231894150944	1.6816329018867928	-2.5631007446377354
O	-0.6754395265849056	-1.030199001113207	-3.6305755646377356
O	-1.1102579915849056	-1.912618328113207	2.5318664953622645
O	-0.13701096458490558	-2.951006928113207	-0.9183285011377356
O	-1.0658967145849056	1.686795601886793	-2.4066541646377355
O	-1.4407359755849056	-1.085660869113207	-2.5117608646377354
O	-1.5283033035849056	1.784797381886793	-3.8151858946377355
O	-1.1691458905849057	-2.482498158113207	3.7502648553622646
O	0.4614157894150943	-3.489346478113207	-1.9751115906377354
O	-2.0628070605849054	-0.40496868231320704	-1.5406145646377354
O	-2.012574500584906	-2.430892788113207	1.7212539953622645
O	-1.0003854075849057	-3.7312635881132072	-0.45057941363773546
O	-2.3154881905849054	-1.8988394981132068	-3.0273257546377357
O	-1.3215193555849056	-3.833163428113207	3.778582615362265
O	-0.2687087755849056	-4.248305008113207	-2.8313613246377356
O	-2.7703995205849057	-1.026372202113207	-0.6327495796377355
O	-2.5124994105849057	-3.685298208113207	1.7947910653622645
O	-1.6057502795849055	-4.768735468113207	-1.0047278724677355
O	-3.2712522305849054	-2.515337468113207	-2.320588914637735
O	-2.3645102705849057	1.049323621886793	-4.364162284637736
O	-0.6527801005849057	2.273645161886793	-4.743345004637735
O	-1.9474419805849057	-4.427955488113207	2.7377883053622645
O	-1.3072418995849056	-4.904967728113207	-2.3115367046377355
O	-3.3946501005849057	-2.167249728113207	-1.0337768764377355
O	1.8145319894150944	0.22269404688679295	0.0956350653622644
O	0.28585595941509445	-5.623920928113207	1.4327068853622644
O	2.2730520594150945	-1.064959969113207	0.23515784536226447
O	1.3620803494150944	-2.334343348113207	3.5556917253622644
O	2.1914304394150945	-4.482548378113207	0.6326787553622646
O	1.7195610694150942	0.532615072886793	-1.8682462806377353
O	0.8820721294150944	-3.341674528113207	1.7864047253622646
O	1.5990820694150942	-4.814775208113208	3.2178724953622644
O	1.3280609994150945	-0.9531446531132071	-3.8133022246377357
O	1.8534800994150946	0.6647180818867929	-5.157793164637736
O	0.36162986941509434	-0.060852684113207045	0.09332370536226442
O	1.6613797794150944	-1.6445141181132072	-6.384766474637736
O	-0.29233120558490555	-0.382345627113207	-6.166200224637736
O	2.2413770894150944	-0.718017272113207	-1.9770752656377355
O	1.1591239294150943	0.42157662488679293	-4.087943364637736
O	0.41175164941509435	-1.343646801113207	-5.822395204637736
O	1.2587039994150944	-4.565694328113207	1.7951890353622644
O	-0.1524003795849056	1.0642745718867928	0.5068411353622646
O	3.1597076394150947	7.543007961886793	10.177897815362265
O	0.0353234124150944	5.9137755518867925	8.796660005362265
O	-2.668978670584906	7.744844461886793	6.871112265362264
O	-3.1994974005849057	5.5682111918867925	3.958976815362264
O	-5.787474610584905	6.366427581886793	1.2682600853622645
O	-1.3610928005849057	4.833402371886793	-1.0149900972377355
O	2.6842673094150946	8.020041021886794	-2.5102912946377356
O	4.252556729415094	9.094238161886794	0.7215569353622644
O	7.164562419415095	6.8018636618867925	1.6998659853622646
O	11.120331989415094	2.4600805518867928	-8.930418964637736
O	7.708911489415096	1.898021121886793	-7.157362174637736
O	5.053324359415095	-3.477831738113207	-4.932246894637736
O	4.019926319415095	-6.995047368113207	-4.259267264637735
O	5.398146499415095	-9.152790298113207	-6.864752784637735
O	9.053096209415095	-3.121183308113207	-8.364724214637736
O	11.257284189415095	-1.7092053081132068	-5.618051264637735
O	14.061139189415094	0.967124421886793	-5.707765544637736
O	12.150569789415094	-0.279393754113207	2.3583333053622644
O	8.703950299415094	0.3893981918867929	3.4511331653622643
O	7.140889599415095	-1.7211063681132068	6.1314546853622645
O	6.000775979415094	1.5159103818867932	7.974849025362264
O	5.9174094794150935	5.175367461886792	7.296469275362265
O	2.9666808594150944	5.9755739218867925	5.109294025362264
O	1.3270157494150943	9.217450791886794	4.187245665362264
O	-0.22978021558490558	8.644026331886794	0.8194756053622645
O	-2.6153417805849055	10.591053271886794	-1.3246595486377355
O	-0.09078683058490555	13.109829071886793	-2.6366570946377355
O	0.08344490941509441	14.726710871886795	0.7794758253622645
O	-3.3353607305849056	13.651092771886793	2.0658262953622644
O	-13.081646610584905	-1.417709042113207	-5.244279074637735
O	-10.650283080584906	1.020971641886793	-3.4920083046377357
O	-11.533080810584906	2.4096407818867926	-0.05150550463773551
O	-8.202082330584906	1.931442891886793	1.7077622553622644
O	-7.580383540584906	3.2613978518867928	5.234508105362265
O	-5.622340000584906	-1.581112168113207	4.403705845362264
O	-7.956763270584906	-6.385446298113207	5.767876125362264
O	-9.977723720584905	-6.509958738113207	2.5843828453622644
O	-8.335692340584906	-8.162314058113207	-0.33659445763773554
O	-0.23268220458490563	-11.424982828113206	3.2457708753622643
O	4.461514449415095	-5.135982208113207	1.5611694753622647
O	6.637475899415094	-3.245724058113207	-0.09409307263773548
O	7.982666539415096	-5.901720098113207	-2.3381320046377354
O	6.996250329415094	-8.941433468113207	-0.5467805866377355
O	4.145958419415095	-11.448024728113205	-0.056860795637735495
O	1.3497333094150945	-13.274852128113206	-1.8003387306377356
O	-0.7277416735849056	-16.324007828113206	-0.9119541082377355
O	-4.3798721005849055	-8.842266378113207	-6.338936854637735
O	-4.652279460584905	-6.313474438113207	-9.089942154637734
O	-7.245889250584906	-4.227425008113207	-7.258721264637735
O	-10.241405500584905	-4.966392298113207	-5.030725624637736
O	-9.399470960584905	-3.398646238113207	-1.6233265986377354
O	-11.794768810584905	-2.475396128113207	1.0420013253622646
O	-9.930494660584905	-2.397478018113207	4.320322645362264
