95

O	-1.2271275260599992	2.8035006084400003	0.2796623481599999
O	0.45878960994000084	3.18757453844	5.968233644160001
O	-0.7974260770599992	4.20525619844	3.3125424941599997
O	-1.3252456540599993	0.1512077084400001	4.57374149416
O	-3.0016202290599994	4.145429158440001	3.16489383416
O	-1.628493859059999	2.42434542744	6.228423594160001
O	-2.1990162790599994	1.48147779484	1.66270532416
O	-1.5994566690599992	2.74215996844	1.57622897416
O	0.7326078609400009	-0.11272364155999992	5.23018585416
O	-0.30382845705999917	0.8471105214400001	5.23738701416
O	0.7542778209400007	1.8644521844400002	-1.30937880584
O	-0.47631476095999914	2.15869636244	5.7243023841600005
O	-0.15561418305999913	-0.38514343155999997	-1.40937419584
O	-1.7357593590599991	3.76587020844	2.56451091416
O	0.4979556959400009	-1.56471641156	1.67620173416
O	-0.5063662217899991	-0.09027622155999993	-2.8729586958400004
O	1.5202920509400006	-2.39659099156	1.26517082416
O	1.4517532309400007	2.85523795844	-1.9888381458400002
O	1.2428719009400009	2.65924559844	-3.3166244758400003
O	2.7164239009400006	2.87031418844	-1.56058355584
O	-0.9881335040599992	1.66330256644	-0.5619752148400001
O	-0.9211388770599991	-0.7243706315599998	3.47997880416
O	-1.7643135190599992	0.35861420844000014	0.8291570361599999
O	1.0526352509400008	-0.9110732615599999	4.01092520416
O	2.645645670940001	0.6908171584400001	-0.38794361984000014
O	2.082292330940001	-0.5407819115599999	0.01901696345999991
O	1.316336620940001	1.27457781544	-0.39966353084000017
O	1.0103476609400008	0.9266574724400001	0.8104193591599999
O	2.183106600940001	0.1582557184400002	1.35847224416
O	-1.1509125220599992	0.38324603844000005	-0.2781873278400001
O	0.0580650159400008	-1.5524428915599997	3.39010635416
O	1.1995824409400009	0.5755443034400001	-1.68168019584
O	2.173150010940001	3.29187495844	-4.13383045584
O	3.730682470940001	3.1116782684400004	-2.41011816584
O	3.4307691409400007	2.84794475844	-3.7556438358400004
O	0.6182299109400009	0.01113030844000007	1.48972164416
O	0.6553364509400008	0.8739269364400001	2.7007273341599998
O	1.5307439409400008	2.01412618044	2.6920123441599997
O	2.4723030609400007	2.01240751044	3.64749151416
O	3.7537269209400006	2.36386475744	3.31999273416
O	4.07645469094	2.60661185844	1.97647811416
O	1.730459830940001	2.96162482844	1.73494941416
O	3.0221956309400007	3.38270951844	1.50269594416
O	-0.5553515475599992	-2.40309919156	1.14657965416
O	0.20162966394000081	-1.73254650156	-1.42296238584
O	-9.44360962906	-1.7602240715599997	-8.829954045840001
O	-6.12291133906	-3.2782619715599997	-7.778785055839999
O	-5.78923675906	-6.644806771559999	-6.02270648584
O	-3.413474629059999	-5.82338979156	-3.27688601584
O	-2.151109769059999	-8.471222811559999	-0.8428683368400001
O	-3.476801889059999	-3.9177632615599998	1.75499370416
O	-8.095405549059999	-2.6691586615599996	3.86030263416
O	-10.17883525906	-2.02221074156	0.8564161731599998
O	-10.161064739059999	1.7021573594400001	-0.03898480484000008
O	-5.757525919059999	5.00711129844	8.48148049416
O	-0.10871551805999918	6.35434671844	5.62338299416
O	3.2214734909400007	7.8196940684400005	4.57147773416
O	4.42603246094	10.21713134844	6.96550021416
O	-5.10842709906	10.02024204844	6.881114714160001
O	-8.87100062906	10.54005619844	7.352720504160001
O	-7.723030549059999	9.86821097844	-0.7305830818400001
O	-6.22936581906	6.81134332844	-2.15791932584
O	-3.968503069059999	6.84938946844	-5.09711972584
O	-6.03773293906	4.01324543844	-6.6665292658399995
O	-8.97014747906	1.8217946814400001	-5.9202563358399996
O	-7.6906513490599995	-1.1360721915599998	-3.97170296584
O	-9.07235110906	-4.42444087156	-2.88053164584
O	-7.352414099059999	-5.446978211559999	0.2927547691599999
O	-7.191608049059999	-8.58827607156	2.37412585416
O	-12.24998403906	-8.76524677156	0.8857896081599999
O	-9.543108649059999	-10.86263137156	-0.8384514378400001
O	9.281596740940001	-9.39552327156	4.39247635416
O	5.685700950940001	-8.91027727156	3.09879011416
O	4.669995780940001	-10.388574971559999	-0.2600904878400001
O	2.8203045909400006	-7.45100401156	-1.78355255584
O	0.9863479209400008	-7.669164781559999	-5.1230194958399995
O	3.5714629009400007	-3.1330209115599996	-4.25003469584
O	8.638200000940001	-2.20746242156	-6.49418056584
O	10.498453360940001	-3.7940477615600003	-3.62039584584
O	11.38772366094	-1.56709921156	-0.7024364848400001
O	8.38465146094	7.024310698440001	-3.6625413858400004
O	0.9841236809400009	6.87544578844	-1.46008945584
O	-1.8119509990599991	7.56084883844	0.8626018541599999
O	-0.2738200270599992	10.17548283844	3.0366234941599997
O	2.504869500940001	11.246377518440001	0.7451047631599998
O	6.101391120940001	10.422631928440001	-0.26648377584000005
O	9.426602120940002	9.26203631844	1.16064593416
O	12.990247560940002	9.44656049844	-0.0665047418400001
O	10.278704860940001	2.0215380624400003	5.699460874160001
O	8.708840460940001	0.20456801844000005	8.63549526416
O	8.35641200094	-3.06730676156	6.69235010416
O	10.380420860940001	-5.0010996815599995	4.15223929416
O	8.142154690940002	-5.1770479815599995	1.01698727416
O	8.501988870940002	-7.61209895156	-1.8080777858400001
O	6.845087850940001	-6.080111881560001	-4.84214891584
