40

O	18.531275408049435	-2.833849699954256	19.813467882341378
O	21.076302961888068	-4.543880207438109	13.765359853032145
O	21.16065957165126	-3.618446706176245	12.691324341787833
O	21.205915236795644	-2.347491110045383	13.201555364516413
O	21.6972084512583	-2.202779273365136	14.451952351261927
O	22.548619776859848	-3.178433529911225	14.820063466245838
O	22.061813600854272	-4.489301933111163	14.65428024059518
O	21.130458383109808	-0.8516834411303067	15.386127897938557
O	22.563912032818926	-0.45190685528173913	15.476861004884087
O	20.523546965098912	0.11098277848910221	14.536044016919673
O	19.974119760695928	-1.6233483263867026	16.248823699758272
O	19.21633522792497	-1.9897717735640552	17.285204105836613
O	19.162237657795387	-4.149091836033301	20.709012231804607
O	20.148735271092676	-4.4608644446130095	19.845809906479964
O	19.54972864426769	-2.834649571090122	18.48534321623722
O	20.70166051897579	-2.9084611429101166	16.521866428381557
O	21.786027057878133	-2.4680768173798073	17.353945769789362
O	19.923252456251287	-4.122925903712165	18.507373844533454
O	23.08787166692428	-2.7374821293624865	17.22748662312548
O	21.56785602212193	-1.1266236367293003	17.712150060789543
O	22.142064388264636	-5.295038078179221	15.758522337961564
O	20.896131145946494	-6.0190043437060465	15.884225468354453
O	22.674929214204496	-0.7341753439219096	18.53824783350492
O	22.639447954596505	-1.4999144286356882	19.632439486144765
O	22.074769356131064	-1.0586732917966388	20.867119160240595
O	22.585954242685492	-2.706156726918157	19.45757443867964
O	21.090201607114125	-1.7531506587948689	21.54798529177788
O	20.189125078221977	-1.0828942012299365	22.32926952856121
O	20.612715862251783	0.11122701659488388	22.8413178249475
O	21.659034282409596	0.7427867301973499	22.172843287039683
O	22.587700706619245	-0.11897519797924705	21.683745380163423
O	23.958341063276727	0.2930072405968389	21.55441429425436
O	20.834469266167158	0.069765919432204	17.548878634502596
O	21.32947275336103	1.747248796825637	19.164803198412038
O	20.636668478597525	2.7294757547083295	19.81045776561574
O	19.55786485147544	2.346786092029622	20.521759041432546
O	18.985027804530706	1.1489193698884708	20.243723014678622
O	19.552177189046645	0.31731113199489314	19.37896681830132
O	20.751163839095014	0.5700088295312584	18.9102353627446
O	21.867833815017374	2.0230454266678577	22.4949168358174
