47

O	21.717546902072193	-3.176284003547468	15.655375258721152
O	22.491372737057215	-1.6728558572410264	15.592850122343679
O	21.558269405710973	-1.1390903258834024	16.653806237779104
O	20.28350166225236	-1.030558380952006	16.17605675511663
O	20.49299437127625	-0.742003603175568	14.80112244162841
O	20.474951752088298	-1.9059158082978347	14.13219544705254
O	20.52958155279845	-3.0871579323202085	15.01077546424449
O	21.90153047776925	-3.993262941925574	16.740344546615223
O	20.689694818460886	-4.51855136087583	17.335812119292505
O	20.134452771600134	-4.222926514391906	18.582409416742095
O	19.005123209838327	-3.5204668606238814	18.69345844774223
O	18.428647449891262	-3.163987733648985	17.56105158987547
O	18.514476811018945	-4.137809296444937	16.626390424758235
O	19.654408404208308	-4.839401647429561	16.660028795936455
O	23.85495486797625	-1.7346074233468358	15.683731017949347
O	20.524251448409018	0.6794479498386092	17.75788863760303
O	20.307522132170572	0.13695981694831927	18.966674133558836
O	20.47498861051226	0.9293364569746654	20.0317826932311
O	20.74238965830487	0.5597657563816534	21.320188575245197
O	20.131751000184092	-0.5991566436254852	21.70057867105596
O	19.404467930724643	-1.26998099884891	20.7608185305048
O	19.38980885209782	-0.7030106923945053	19.49841855215918
O	21.2507791283025	-1.9454787468690105	17.685318604661724
O	22.108588708839214	-2.4891494756679373	18.71073296646919
O	22.270294615451	-2.173566958943702	19.99484914693084
O	23.09468569512124	-1.0327486668375494	20.05032078262917
O	23.496502898872716	-0.6461702550956436	18.718501204459855
O	24.241571468703643	-1.7906037328206004	18.53120710629621
O	23.362475414048294	-2.8560266179937046	18.304402857193256
O	21.018997956116742	0.46338561255692756	14.87131497552112
O	20.857052723497127	-2.052593195078246	12.84892301861162
O	22.04635096792525	-3.1265213225952615	14.514619647274074
O	21.81305842015848	-3.7727608938800943	13.38820729775805
O	21.566879679635772	-4.923465076221735	14.054055599697854
O	20.29267933479604	-5.244314139546262	14.136987522427297
O	19.859209835937865	-6.459730941519027	14.6328877921113
O	20.78149476261658	-7.4032930343018	14.797945050550231
O	21.93236641087148	-6.901084407849802	15.283922854718927
O	22.347079142458984	-5.719575569974225	14.785392761285477
O	22.61010017892274	-1.1350066305256399	14.164132403839206
O	19.947068785330817	-0.068760789597202	16.937746829341254
O	23.453005690097847	0.7151178924999861	18.499631719515744
O	23.07686051148579	1.6166283890644761	19.406885329740163
O	22.969860585683126	1.0022743575690907	17.421688659960857
O	22.42257366694015	2.810358546734971	19.585735414893083
O	17.584226448137727	-2.0742590964965335	17.202121820539904
O	17.752351335598892	-1.9263602230949417	15.849641147037461
