115

O	0.6678253922321424	3.0703678169535715	-0.36599842525535725
O	1.4036542522321425	2.2787515249535715	-0.2807784962553572
O	2.5769863022321426	1.0885767619535716	2.3372925657446424
O	0.4011214872321425	-0.9243508630464283	3.1857758257446425
O	-0.8756897647678574	1.9852591249535716	1.8767010257446428
O	-0.7853412747678574	-0.5386818530464283	-0.2248667582553572
O	-1.4407831077678575	2.9724749969535713	-1.1226643442553572
O	-1.1690311357678576	-0.002693543046428326	-3.2554216342553572
O	1.9620674122321424	1.2144464069535716	0.23102650974464278
O	3.1614705722321426	1.0574002169535717	-0.038111036555357226
O	1.5919019122321423	1.3358040939535716	-1.159973844255357
O	2.6458555222321425	0.3991257869535716	3.4644835257446425
O	0.6667695222321424	-0.7720363530464283	4.601548365744643
O	-1.6791173677678575	2.4395304489535716	2.7549633857446425
O	0.3158978432321425	-1.1281403830464283	-0.38582842525535727
O	-2.6005844577678574	3.1413927369535717	-0.33431134825535724
O	-1.9474294077678576	0.9160759359535716	-4.154271674255357
O	0.8662182422321425	1.5546464239535716	-2.1512550742553573
O	3.6402786922321426	1.0665531459535715	4.131565585744643
O	3.0646557822321423	-0.9899558130464283	3.289995295744643
O	1.2698585322321425	-0.1968034230464284	5.746746885744643
O	-0.2411023417678575	2.4186133859535714	3.0523602357446427
O	1.1037858922321424	-1.4718407530464284	-1.3122518442553572
O	-1.1684318317678575	2.189652759953572	-4.274310734255357
O	1.3991470422321424	2.8175107269535715	-2.4537059042553575
O	1.5630838922321424	0.9630102009535716	6.5582921857446435
O	0.23108729723214255	2.3605062519535718	4.243097805744643
O	2.5557508922321426	-0.5820581330464283	6.452098425744643
O	0.24736545123214254	3.514193256953572	2.3989405057446427
O	1.9137682422321425	-0.8677658830464285	-2.2774563942553576
O	-1.2323015377678574	3.6479165869535715	-4.215210704255357
O	-0.4866621664678575	4.792589566953572	-4.301269454255357
O	1.2749197222321424	3.0724728569535715	4.7006280757446435
O	1.4728274822321425	4.065817116953571	2.6438929557446427
O	2.8262914122321425	2.8730987169535718	-2.4599179542553573
O	3.0792025322321424	-0.7322833830464284	-1.8986417242553573
O	1.6797985822321424	-0.3589756630464285	-3.5333754942553575
O	3.4400213422321424	3.8442519469535714	-1.9193693242553571
O	2.0380698822321426	3.715879736953571	3.823993875744643
O	4.093275082232143	3.984991286953572	-0.6825782322553572
O	2.8901947222321422	5.095585326953572	-2.4010568142553574
O	1.8273040722321423	0.05794333695357157	1.7451546057446428
O	2.2356344722321424	1.8730961379535715	1.3566840257446429
O	2.6598336522321424	-0.5877936630464282	1.1517977257446428
O	-0.1456955037678575	0.17482543695357156	2.6442294757446425
O	1.1417812022321425	-1.0637730530464282	2.1327667557446426
O	-1.9618230477678575	0.1086321269535715	1.7597913557446427
O	-1.1787677597678574	0.9034239499535716	1.2087827957446429
O	0.2573313872321425	1.3308073929535715	2.5161028357446424
O	-2.6378050277678575	1.1964916799535716	-0.06795281525535721
O	-1.4643444877678575	0.8080025569535716	-0.19502044925535722
O	-0.37635336946785747	-0.14378128304642845	0.7917320557446428
O	-2.8086901677678577	1.9032699959535715	-2.5128228542553575
O	-1.6963296377678576	1.9748847279535715	-2.1169321142553574
O	-1.0151336057678575	2.1207635409535714	-0.1534270242553572
O	-2.0187543577678575	-1.4495760130464286	-1.519785154255357
O	-2.0051205677678574	-0.6048213530464286	-2.4979880042553573
O	-0.8062552417678575	0.9968765619535715	-2.3031159242553576
O	-2.5256471677678576	-0.07054527304642844	-1.4979588742553571
O	-12.812391947767857	-0.3218203530464283	-1.5682246542553573
O	-9.610954587767857	-2.292898753046428	-1.9113557142553572
O	-8.852992537767857	-5.387183903046429	0.008451565044642777
O	-5.293988187767857	-4.548019673046428	0.9929844317446428
O	-3.3684013977678577	-6.962598533046429	2.9454681857446428
O	-3.2279759177678575	-2.1462996430464285	3.9948191457446427
O	-5.783181477767857	0.11060447695357167	8.583623145744642
O	-8.786539587767857	0.8552789859535715	6.854109505744643
O	-8.733366787767856	4.313359826953572	5.404690125744643
O	-1.1422893017678575	8.423479856953572	9.669433415744642
O	2.6018517022321426	7.857543006953572	3.9758778757446427
O	5.0956622822321425	7.834471416953571	1.2649243057446429
O	7.609970252232143	10.666687746953572	2.2615304657446424
O	-0.5408988227678575	12.683566916953572	6.646864815744643
O	-3.4968769877678576	14.058482216953573	8.727142065744642
O	-6.456847727767857	11.633439716953573	1.5495601057446429
O	-6.046997987767857	8.088895696953571	0.8280240527446429
O	-5.396986497767857	7.214008436953572	-2.5697562642553575
O	-8.280720867767858	4.807882886953571	-2.5014334242553575
O	-10.584151747767857	3.384092146953572	-0.07150803925535723
O	-8.701779317767857	0.6272199059535716	1.5141958357446428
O	-9.848998267767858	-2.1343080230464286	3.7016323957446424
O	-6.865298527767857	-3.0092332430464284	5.657284165744643
O	-6.297378767767857	-5.917507403046429	7.9438166557446435
O	-8.248696387767858	-4.548064943046429	10.866704465744641
O	-10.092478627767857	-8.056488683046428	6.815907445744643
O	-4.142851077767857	-15.381409383046426	2.1087253557446424
O	8.722248662232143	-9.644089683046428	2.1629907057446425
O	5.017660252232143	-8.604395083046427	2.5687229057446426
O	2.3015450222321423	-10.305720583046428	0.7101918347446429
O	0.3959327552321425	-7.194635613046429	-0.2134266602553572
O	-2.8251381277678576	-7.552980203046428	-2.1037912442553575
O	0.3903934342321425	-3.8492239630464287	-3.4339716742553574
O	3.570914142232142	-4.051437383046428	-8.003876754255359
O	6.403698682232143	-5.6172659030464285	-6.242312504255357
O	8.820537322232143	-3.188148593046429	-4.740045894255357
O	9.528081662232143	5.089396426953572	-12.428994834255358
O	7.526021262232143	6.824531346953571	-9.732508654255358
O	5.342136412232143	4.9497031469535715	-7.178660314255357
O	0.6437381422321424	6.027947456953571	-1.368223814255357
O	-0.8734296127678576	7.995699036953571	0.8011464967446428
O	1.6239840422321423	10.854130216953573	1.0638731857446428
O	2.9514379322321425	10.802635986953572	-2.2802106642553572
O	5.423104462232143	9.017895446953572	-4.365782224255357
O	8.915750702232144	7.7175329969535715	-4.491932064255357
O	11.378410652232143	7.266481146953572	-7.314746744255357
O	11.281317452232143	1.4733899385535716	0.2514135997446428
O	11.252782252232143	0.4679438979535716	3.7916432057446428
O	9.802595252232143	-2.9657972130464287	2.9411541457446426
O	10.002207552232143	-5.645511173046429	0.44669708874464276
O	6.540917062232143	-5.8516781630464285	-0.9939088242553571
O	5.201216592232143	-8.714129383046428	-2.967563574255357
O	2.4076503922321426	-7.196544563046429	-4.970024234255357
O	-0.1979263837678575	-8.784505983046428	-7.063228444255357
O	1.9653113822321426	-9.207147083046427	-10.132293234255357
O	3.792459752232143	-11.967257183046428	-8.405822244255358
