94

O	0.2490603033938774	0.5165557693775504	2.4800056828489785
O	-0.15377481660612258	1.3990612458775504	1.4432437528489783
O	-0.4072864966061227	-2.6755138061224493	2.8302318428489786
O	-0.04541290660612263	-0.8173182761224494	2.1077596828489784
O	1.7150179333938773	-2.9004131761224494	2.2465124628489783
O	0.6034326833938772	-0.014367476122449485	-1.2373076871510218
O	0.5749859033938773	-2.0349232761224494	2.5381220828489783
O	1.2647147333938773	-0.5234203161224494	1.4554038028489782
O	-4.287949446606122	0.15006262787755048	-0.07787132545102168
O	1.8717631833938775	-4.00975809612245	3.1025525928489786
O	-2.7586006866061226	1.2734062938775503	0.5004906928489783
O	-4.080596926606123	3.6631227738775505	1.5871970428489783
O	2.6255332733938777	-4.11270948612245	4.384213652848978
O	-4.053709986606123	-0.7640482161224494	2.7761726928489785
O	0.49545363339387727	-4.30678950612245	3.8179539828489784
O	2.0689390633938776	-5.41960398612245	2.6836082728489785
O	1.5733999233938771	0.5404618977775505	0.6346697218489783
O	0.42920374339387735	1.3938729878775504	0.33964104484897834
O	1.4680577633938774	-1.4488027061224495	0.5015641018489783
O	0.2574464333938773	-0.7464704861224495	-0.12262269042102168
O	-1.0083744476061227	-0.9679463261224496	0.5482130638489784
O	-2.1284103296061225	-0.7027309361224495	-0.10938300851102169
O	-1.4601425573061226	-0.6876482061224495	-1.3875851871510216
O	-0.9749851546061227	-2.0476329361224495	-1.1966756271510217
O	-0.2119518366061226	-2.4678934661224496	-2.1182112871510217
O	0.7270815833938773	-3.416154796122449	-1.9348715771510216
O	0.9085817133938772	-4.01239375612245	-0.7390543921510218
O	-0.26482390660612265	-3.9696233761224495	-0.04951293965102169
O	-1.2086564896061227	-2.9651863561224494	-0.2349830081510217
O	-3.1056523866061228	0.26200401987755045	-0.1820174143510217
O	-2.6747821466061223	2.6426908038775507	0.4888025198489783
O	-4.076863616606122	2.5599577238775506	0.8357227018489783
O	-4.793743326606123	2.6378959838775504	-0.3685001081510217
O	-3.6210586366061226	2.4801590138775507	-1.2863139071510217
O	-3.7604582066061227	2.6737750638775504	-2.6314964071510216
O	-2.9873170566061225	1.5846077508775505	-3.1283634771510216
O	-1.6711849246061226	1.6980952238775506	-2.8135697571510216
O	-1.3942915836061227	2.4160461438775505	-1.7122677671510218
O	-2.3925053396061227	2.7622699338775507	-0.8854298471510216
O	-1.1979978046061226	1.5023550218775505	2.2161970128489785
O	-2.166400218606123	0.7329520718775504	2.9169558428489784
O	-2.7306917866061227	-0.5122577261224496	3.0699627128489784
O	-4.999632746606123	0.16750622687755046	3.0611771928489784
O	-4.475211296606123	1.2093716878775504	3.8220851828489786
O	-3.1228991666061225	1.5321707168775505	3.5953791728489786
O	8.579968863393876	5.05286504387755	8.990921972848978
O	8.377336643393877	3.966841733877551	5.344572002848978
O	8.507690263393878	6.35786971387755	2.4507795728489783
O	5.651554953393877	5.15355313387755	0.36816507784897834
O	4.9555331133938765	6.91898817387755	-2.9378010971510213
O	0.4755420433938773	5.77071921387755	-0.11876507375102169
O	-1.9307041896061228	9.373330713877552	3.1964390428489784
O	0.3590863133938773	9.19569319387755	6.078870722848978
O	-0.7050894776061226	6.59463825387755	8.645749992848978
O	-10.055340616606124	4.7298364238775505	5.159303322848978
O	-7.8958286166061225	-1.1696767861224497	2.6757101228489786
O	-7.7596724966061235	-4.50369422612245	1.1517115428489784
O	-11.254518446606124	-5.86454386612245	0.9970790728489782
O	-11.057344556606123	0.3485313508775505	8.074949242848978
O	-4.127990796606122	-0.5848211461224496	12.299902812848979
O	-1.5894195728061227	0.012941635877550484	9.657414892848978
O	0.7860921733938775	-2.581972216122449	9.181433862848978
O	3.6606898733938773	0.03421512487755052	9.542061912848979
O	4.237966323393877	3.6173303738775506	9.845713322848978
O	4.0212387333938775	5.09629999387755	6.435336462848978
O	4.753288913393877	8.487873563877551	5.076042772848979
O	2.4529109533938773	8.96032642387755	2.1403062928489787
O	2.291276643393877	11.69648924387755	-0.4922329071510217
O	6.245585543393878	13.446908843877551	0.8507184018489784
O	0.6588970933938771	1.7811152238775505	-13.604528487151022
O	1.7047829533938774	3.4375258038775507	-10.28776278715102
O	5.301928853393877	3.7444975938775507	-9.215609577151021
O	5.124426493393877	2.5656843138775502	-5.608136807151022
O	8.165906693393877	2.6543546538775504	-3.3028909071510215
O	5.150766953393877	-1.6583686161224493	-2.7678067571510216
O	6.459955033393877	-6.53038637612245	-5.386483777151022
O	4.671671853393878	-5.59250707612245	-8.594679557151021
O	0.9743565333938773	-6.41395251612245	-8.876722997151022
O	-1.8540701056061226	-14.38192805612245	-0.9669860521510216
O	-0.8824083276061226	-10.798935456122448	-0.6070336091510217
O	-2.529882836606123	-4.76624748612245	3.999511572848978
O	-4.402977536606123	-2.7625522761224492	6.164315152848978
O	-7.670604656606123	-4.4336656161224495	5.748881152848979
O	-6.382047546606122	-7.8266525461224505	4.993204512848979
O	-5.340804196606123	-10.012130756122449	2.0610846828489784
O	-6.163578716606123	-10.954082956122448	-1.4747178571510218
O	-5.518281716606122	-13.992782656122449	-3.6464997971510216
O	-6.268223866606123	-5.23158730612245	-7.630290907151021
O	-7.824549996606123	-2.007353326122449	-8.54945139715102
O	-4.468808426606122	-0.6063303461224495	-9.710224207151022
O	-1.4277696827061226	-1.6970181061224494	-11.577066587151021
O	1.4597713833938775	-1.3005947061224497	-9.09364482715102
O	5.101108483393878	-1.1493042061224497	-9.89716599715102
O	6.9805827033938765	-2.1773411161224496	-6.7836775271510215
