90

O	-1.05640762631	-0.7418120687199985	0.6894121152600002
O	-0.34259045131	-0.42919881871999843	1.9102999132600003
O	0.6558637686900001	0.5678260276800016	1.8309812432600001
O	1.6735121286899997	0.6790448370800016	0.8860144732600002
O	1.1417864286899997	0.2610578112800016	-0.3974427017399998
O	-0.03140118331000008	0.8920034442800016	-0.8189126567399998
O	-1.09992533531	0.014462946280001554	-0.4371282897399998
O	-2.47309968131	-0.9136607787199984	1.1454671932600002
O	-2.46512530131	0.5281670178800015	1.6117833232600003
O	-1.7519959303100001	1.6259327312800016	1.1658712232600001
O	-2.29266865131	2.754765221280002	1.7520059632600002
O	-1.85349448331	2.7131437712800017	3.0708525732600003
O	-2.18486978131	1.5959340052800015	3.77203076326
O	-2.22924388131	0.5157113743800016	2.95921158326
O	-0.7586003383100001	-1.1094393887199985	2.88972933326
O	0.96580309869	0.9177008122800017	3.1557772232600003
O	1.4867985086899997	-0.32218270771999835	3.6490834332600004
O	0.77570559869	-0.6628853987199983	4.71695696326
O	1.29157029869	-1.3354929187199984	5.81890615326
O	2.58414374869	-1.7446138887199982	5.69059183326
O	3.37645708869	-1.1422374787199985	4.79241706326
O	2.7918794286899997	-0.3811727017199984	3.83286559326
O	2.3889581286899997	-0.5876028487199985	1.2247654832600001
O	1.41270063869	-1.5182467187199986	0.9929696532600003
O	1.1018309886899997	-2.705145478719998	1.4794540032600003
O	0.08371058468999992	-3.5269154387199984	1.1286891732600002
O	-0.6210758053100001	-4.1749740487199976	2.08009013326
O	-0.02675722931000002	-4.485578408719999	3.2640681932600004
O	1.11441764869	-3.8304557187199983	3.58694468326
O	1.74283942869	-3.1328145887199983	2.59962050326
O	1.48203032869	-0.8685597287199984	-1.0262791427399998
O	0.2401224086899999	0.7973281692800016	-2.20101363674
O	-0.65824821331	-1.2590713787199983	-1.2413474867399998
O	-1.2291231363100001	-0.5761717187199984	-2.2999272667399997
O	-2.50339589131	-0.21273218671999838	-2.04871899674
O	-2.86569071131	0.9752251272800017	-1.5927279367399998
O	-4.08857103131	1.1427678182800016	-1.0120427727399999
O	-5.04902029131	0.3281784762800016	-1.5437782667399997
O	-4.62737793131	-0.9613627687199984	-1.4692859767399997
O	-3.3339041813100003	-1.2211530487199984	-1.7649339467399998
O	-0.5129430693100001	-8.431991218719999	-10.05109092674
O	0.41011407869000005	-4.834845408719998	-9.250656556740001
O	3.9768157686899994	-3.487511598719998	-9.26553176674
O	4.05770982869	-1.6093492987199984	-6.01549722674
O	7.146031368690001	0.3385969892800016	-4.92715266674
O	5.03946070869	-2.4016713387199986	-0.8805793697399997
O	6.474259168690001	-7.309661238719999	0.5636995792600002
O	4.936427918690001	-9.424068368719999	-2.11210020674
O	1.3946600786899999	-10.495266168719999	-1.0864935387399999
O	1.9081370986899997	-7.981805638719999	8.56655910326
O	-2.09929722131	-2.8849837387199986	8.014829513259999
O	-4.52686833131	-0.005441609719998408	8.34427510326
O	-5.64110556131	0.2529641102800016	11.81346438326
O	-3.1676225713100004	-8.782852908719999	9.78485918326
O	-6.37378585131	-10.84377946872	2.6183256632600003
O	-4.83671129131	-8.30701383872	0.35692258426000023
O	-7.01725363131	-6.127975328719998	-1.6127208667399997
O	-5.00505951131	-7.1258712487199976	-4.73800576674
O	-2.05666016131	-9.182465378719998	-5.74956207674
O	1.00810644869	-7.062013388719999	-5.22038934674
O	4.624181188690001	-7.40177223872	-6.16988104674
O	6.66256392869	-5.553538918719999	-3.5850002167399997
O	10.29060808869	-4.489631738719998	-3.3280098367399997
O	10.96435108869	-9.154862528719999	-5.70239903674
O	11.046029888689999	-5.835459028719999	-7.60489234674
O	7.78248723869	11.223617131280001	1.1965870232600002
O	7.62607810869	7.744284871280001	-0.4306904507399998
O	7.33163522869	7.410694001280001	-4.20418928674
O	4.60370449869	4.771003191280002	-4.40607287674
O	3.55450517869	3.2227852812800015	-7.73435803674
O	-0.64179269831	4.203488991280002	-4.37750118674
O	-3.68903341131	8.788210881280001	-4.73486167674
O	-1.29786726531	10.927625331280002	-2.69986583674
O	-1.76117416031	10.950777331280001	1.0351508832600003
O	-12.365246211310001	7.040989671280002	3.1008305432600003
O	-9.366433121310001	5.243471991280002	1.8274643832600002
O	-6.14045483131	-1.4861780987199986	2.5424790832600004
O	-5.008136341309999	-4.516603998719999	4.061032533260001
O	-6.56265684131	-4.076196208719999	7.49535798326
O	-9.218905911310001	-1.6097244487199984	6.58991391326
O	-9.834286491310001	2.110119021280002	6.01293762326
O	-9.10282949131	5.551573201280002	7.37832570326
O	-10.89155574131	8.868517411280001	7.08088331326
O	-0.98277128781	8.262034931280002	7.94999119326
O	2.41950639869	7.236672861280002	9.228913023259999
O	4.070041728690001	8.02351980128	5.89530617326
O	3.8175522586899997	10.81890813128	3.3242176432600004
O	2.89092531869	9.00973025128	0.06735897226000018
O	3.26260325869	10.20488753128	-3.4267217767399996
O	0.80195513869	8.218061481280001	-5.53546117674
