51

O	20.003436202036866	-5.243125830867411	16.52966270816243
O	19.404130880920736	-3.912091290828287	16.39863124424191
O	21.694569645733353	-6.805477156452276	14.53536303927542
O	21.651697014861146	-3.2802153987790392	20.6836778580974
O	19.50310112420302	-3.14278253617835	14.105844769135377
O	16.976945932722376	-2.499559561101897	17.845270374202908
O	17.526828760758015	0.07694990338964325	17.726133542035033
O	17.76012837241771	-1.2631708390321656	16.120582097612772
O	25.042724986595253	-0.4925712149059327	20.44244514501824
O	22.53431725454323	-0.3777553534744815	24.988646493928513
O	24.275715778439757	-1.5912695067434508	20.41499571044761
O	25.029497022371565	0.15886608419637427	19.284491270184194
O	21.183309050776398	-0.056934200893312914	24.838089091498627
O	23.079197304976855	-0.9036671116409836	23.807300675221725
O	23.103615651073262	-1.467562471707871	19.678488491507412
O	24.10751837303183	-0.22060273743661019	18.33357142274835
O	20.931169968641562	0.7024309673688809	23.749385029096267
O	22.111199796604133	1.6354627396167938	19.469169534995316
O	20.06259855312612	2.054743477084754	20.14024111726343
O	22.583380074663488	1.5982737161005434	20.709141013916813
O	20.466389045383313	1.9514314358806943	21.39899574814303
O	20.098950850515074	-3.5194089371745854	17.53448143605639
O	19.72100791973502	-4.186292255264706	18.51224104714686
O	21.563076279291806	-4.452574175472471	15.217523480251405
O	20.07025991019258	-0.9022526240329064	21.122014441408954
O	18.858578344863098	0.35937042379942796	19.438659932671364
O	21.3918689397119	-1.9784036277046073	15.682434369544719
O	19.005037864660068	-4.006324437627341	15.083586360224734
O	22.72097170442105	-1.4421922997615724	17.135114232070716
O	20.452152285758668	1.7041833514555889	17.78483489774532
O	20.650769896959282	-0.1471578608958326	16.403568331588517
O	21.450323220891377	-5.097240761064376	16.272039651895348
O	19.929238850674224	-1.8387240705302625	20.42547703671892
O	19.470981758686083	-0.3062545806275905	18.631699805697572
O	23.180390474465117	-1.169824439364876	18.433190036268254
O	20.858332430405238	1.6642097943004364	19.234165220281206
O	21.74374041061797	1.7241541816260664	21.735026411150265
O	21.978611504712294	0.8134267549962011	22.8348864277553
O	20.713619328692307	-1.4874096979579852	16.748356689788153
O	21.526712182859278	-1.9294087373883584	17.76269260617052
O	18.634606978437603	-1.4717740718116827	18.602179901586634
O	17.77753097192818	-1.3630325823283194	17.507342119657032
O	22.67187092195655	-0.29316296777129014	22.68483389263984
O	18.61219557572818	-1.98625470890686	19.860430293933234
O	21.480252479512618	-3.3017955498963656	17.586478833086787
O	20.756064840180233	-0.22991860906444472	18.685472472914814
O	21.158722139245377	0.4577928959428952	17.507910545456703
O	21.76791926772652	-6.453057864323046	15.916913739310358
O	20.40687015525015	-2.9534987526698306	21.069009978209458
O	17.55947007845004	-4.20542618498717	15.33045345411241
O	19.166475555538632	-5.358731705577545	14.346971327449056
