31

O	21.993197560765264	5.181553120573344	20.682704862546878
O	20.424859865715767	3.543365510325119	20.776347791600877
O	19.69272447778274	3.7516001001588055	21.828277565249206
O	20.07128869901819	5.057087151578623	21.99319260923452
O	21.596098032224898	4.966899902948553	22.109483771941047
O	20.98876087281961	4.637916310172361	19.9181833651335
O	22.080601760320423	-0.1289505879693067	19.841922257877574
O	22.243819589958335	0.30079210956141	18.612801400953494
O	20.67394061971339	-0.3653894949494414	20.135445706844568
O	19.971192175706733	0.8242135206034504	19.922927719434607
O	20.32449816445445	1.413459953764905	18.59307510868595
O	19.782996956806794	0.605692269538977	17.84563859153702
O	20.555052826161553	2.589864132752834	17.981931244807654
O	19.39927101700974	3.4244963548989418	17.904272284261744
O	20.190042115353922	-1.0781153969086783	18.823841128942284
O	19.05898820837402	-1.8503720621283701	19.345244489566376
O	21.167132745793264	-2.1802316322568323	18.466588850779964
O	18.43336003049912	-2.6483385279454636	18.39002573500755
O	18.03034776042999	-3.9565456725551083	18.630608027250616
O	18.496308806870985	-4.506390808837628	19.818519310081687
O	18.54093853959987	-3.5446890996063742	20.825550602431957
O	18.87551532624328	-2.235501963676924	20.62156464392113
O	20.5432508064614	-3.0951985427968904	17.560795802826522
O	21.154492841288633	-4.301608766505591	17.25895609555829
O	22.007022720398076	-4.678809938068493	18.289119739616165
O	22.336480894583023	-3.9084018624729464	19.365909951066197
O	21.464562350937342	-2.8917111430471545	19.661417856374655
O	22.750086325371417	0.8266389130051479	20.58804586795022
O	23.560648471223523	1.93371235210029	20.214518470419165
O	22.61036632093451	3.038256735122556	20.240609986534388
O	21.645321182997527	2.824987028974516	21.363202639868675
