40

O	21.59293202444624	1.191539242054731	17.836553379354587
O	22.529912336053386	1.198804486837334	18.90396899593978
O	22.919188451190188	2.112608921879141	20.00206992175081
O	21.786621823106486	3.0529520652112896	20.147761131658477
O	20.715119537840188	3.117559889314491	19.27634339860934
O	20.664111872119857	2.350699629605109	18.01124064007301
O	20.451087507216066	-0.5250406341315534	17.96011363505924
O	20.08084992009647	0.3747584681202074	18.92882283421866
O	21.416501129640487	0.6883235497913698	19.511578235454195
O	21.173687107428123	0.12085749811266977	16.96654600523155
O	20.024835466441175	0.06906919935875533	20.288801830078352
O	19.73893540008384	1.00872344426925	21.33319734671004
O	20.350112895049172	1.3148821219796667	22.572248029986035
O	19.924843878066323	0.7145602774549933	23.915711770791596
O	21.795604940627797	0.8470160920754686	22.69525059968018
O	20.60751516152859	2.7447915000168686	23.06448754931455
O	20.059783318201248	-1.0290811698338966	20.768007646245245
O	20.751961839401627	-1.6020837960301142	18.720832747150858
O	21.018839396353915	-2.7708136491142943	17.89448752165822
O	21.98804758169038	-1.954786035199391	17.1080650386262
O	21.765604387148255	-3.888836587080705	17.69530900419739
O	22.93002688491221	-1.7570709645928702	18.08602417235901
O	21.726467189783474	-2.5900625059909688	15.895005812554722
O	22.700270386652	-2.2437824593173894	19.385143786254716
O	21.888213341583757	-3.1179782587640776	19.726422655914682
O	23.16201013053552	-1.5429942900227545	20.580515422941204
O	22.905334952258407	-2.021353497510396	21.836344349734176
O	23.76375711537697	-1.6915145959853783	22.82676652190516
O	24.763969437983356	-0.7744243345599009	22.71523243957458
O	24.87741905135008	-0.27308806653353157	21.421458901617953
O	24.296220515823126	-0.87909501505111	20.359261792165366
O	25.39989031668983	0.9517561699658814	21.251643739631014
O	25.02222206494321	-0.961855491678416	19.099627714197553
O	20.30425275775342	-3.7320638029036526	15.804965858209885
O	19.11282434403105	-3.214694010850753	17.0038390081509
O	18.788069209190965	-4.168285404475025	17.919274215724727
O	18.51406833910479	-3.909847311777128	19.269042576795712
O	17.804054670337692	-2.818222860940738	19.53672435982257
O	17.746119428937508	-1.9092486115190732	18.53866014867554
O	18.280820236944496	-2.18728375909253	17.275348501555595
