45

O	21.310896809651016	-2.0579383479416107	18.590873713113638
O	22.059537359655216	-2.0878656217399856	17.496587099996223
O	20.588138618959558	-0.6771620682652415	20.633666705271203
O	21.650293683930613	-0.7416338274960084	18.889089742012267
O	21.268275636105383	1.3411857231219564	20.29721972113349
O	19.487920535024394	1.973643656264041	17.91536747636686
O	21.195136050628808	0.004269467631575985	19.90096253486583
O	22.279989735136667	0.20053166595931082	18.153561571545982
O	21.675152478991254	-1.7991387864310382	14.58763869011826
O	21.672049154219312	1.5947810272012166	21.63134571980864
O	21.07028156108377	-2.999895531805193	16.070088945259236
O	22.349733442238218	-5.8165982831819685	15.503411241940565
O	23.13841177834526	1.2284629118957526	21.94061775180171
O	22.54033975623251	-2.8995346442223373	21.492493198850028
O	21.57640495568972	2.887451319170567	22.317686803569828
O	20.98765227078873	0.6034000878674908	22.59060693859123
O	22.509408773379427	0.0067677414363278565	16.869111072399537
O	23.049171809470337	-1.2537283807709834	17.06058149895617
O	21.58774984014513	1.4407140684100321	18.220389916948328
O	20.283287974564686	0.8885238346440687	17.954028293880405
O	20.27878465417352	-0.18219986984379433	17.15086581097934
O	20.132772640108502	-0.7941682171083698	15.949906541754977
O	18.963028591718015	-1.6624732534756188	15.944990921117233
O	18.873460071918466	-2.153523180916176	17.26235623725444
O	18.527056842295693	-1.2092787807411183	18.191501595817925
O	18.19145893339399	-1.6256321398282356	19.43114575563685
O	18.4959138430189	-2.912313189857711	19.76301875681793
O	18.436069155978924	-3.8002769298151944	18.733647457564356
O	18.28331606285552	-3.2952999277864192	17.49145251774303
O	20.725107396051186	-1.9585797638392268	15.329608330665005
O	22.116668043313034	-3.7940985027288527	15.360292309347964
O	22.28215368008766	-4.760776517045889	16.446804097233823
O	20.90447499929379	-4.870160886704398	16.954214778390952
O	20.220329529205383	-4.679960079544001	15.583123348009238
O	19.002883492891947	-5.160102976918987	15.112769999573139
O	19.137281076357997	-6.159847758459678	14.21183527583264
O	20.378185412436167	-6.524781139070778	13.79476504008588
O	21.121324857477017	-5.337062950594568	13.60807245255371
O	21.029852707397133	-4.376419574054743	14.546060867559
O	23.33930901608978	-2.0182950705331013	17.92812563863806
O	23.26093036121537	-2.022155539058414	19.370153515140196
O	22.659494319512863	-3.035832132576375	20.140900979004677
O	23.658575403950692	-2.4325111707394766	22.105685774573033
O	24.614384494785085	-1.7570490039402236	21.35057186599207
O	24.167492422681878	-1.3575903767869912	20.087847393579104
