46

O	21.322731511225513	-0.2249555222676447	16.736940865502515
O	22.45817147054265	-0.8147796056070233	16.065828563767155
O	22.119265962156145	-1.8934216977782177	15.141121611688604
O	20.99954080561407	-1.0077835333416245	14.733589539237371
O	19.904572905781087	-1.66299047721339	15.10289926738802
O	20.347826711801176	-2.9681492392539335	14.508263863393598
O	20.81088185724437	-3.139439749584807	13.386329623264842
O	21.055238719539332	-3.7255124817550778	15.365101463719212
O	21.842642501696297	-4.736076172857297	14.795603816729331
O	20.816705175096622	-5.452889512057432	13.989559120497361
O	21.557445620890636	-6.73296836504848	14.057506039500375
O	19.712595550799776	-5.754030374201164	14.925156922315
O	21.9331896110046	-5.336465517747446	16.086507487678233
O	21.097235567666317	-6.064448747467694	16.506650008024245
O	22.85216900869782	-4.726681846794693	16.892866161044076
O	23.258843753352448	-5.032972638712041	18.172611939368878
O	20.587756146624557	0.6171975253476942	16.246243521987736
O	21.370161815491265	-0.1400655379432285	18.03822568473396
O	20.897739766776038	0.8997612957834416	18.783803525072223
O	19.651175825999427	0.217253191266068	18.761430055280815
O	18.74040739825838	-0.03828036284449832	17.80177950295584
O	19.691628461558842	-0.922258521536559	19.605839143387918
O	21.39955174629272	0.8111545583381279	20.104757656903857
O	20.86581332161685	0.2458366722403813	21.021037436228184
O	22.732334642834175	1.1787637552068149	20.28179327387813
O	23.03696770250215	1.336041138959648	21.717157315480083
O	22.999647723843246	-1.9133252468222433	14.141818267372825
O	21.478617581090383	-0.04917568157482721	14.045454207703628
O	19.70361659730406	-1.9845244392732542	16.392893278681342
O	19.41871841780067	-3.1971804259307026	16.402996616236486
O	22.994756090107092	-1.7683651866298193	16.80326247366323
O	22.147091367148544	-2.073821626362097	17.68895236556816
O	22.65800271942386	-2.044478206906187	18.952534515703647
O	22.036926469968908	-2.5810344451090037	19.989326514009786
O	22.29247397353495	-2.253951935882289	21.243916441428958
O	23.46460153223531	-1.6140546485676692	21.39977372455924
O	24.393084132599135	-1.666274492814276	20.448767580170855
O	23.92739329145902	-1.758086476897494	19.177500900879412
O	19.344805351211118	-3.639724509092776	17.711650840826437
O	18.133808005520322	-3.207416207108448	18.106597027265423
O	17.597411481433056	-3.6374250919851376	19.267493566961974
O	18.499571373914502	-3.753332426724426	20.260530900551956
O	19.686197033563733	-4.236568575333134	19.92002404322686
O	20.03502802209081	-4.267497213267496	18.623172944950674
O	18.547788311099442	-0.6397489995307055	20.45938314427076
O	19.377191284847125	-7.2095629837313355	14.833169431643112
