100

O	-1.3892083872199996	-6.899287372804	1.3607654215520004
O	-2.5662685822199998	-7.139340352804	2.318988901552
O	-1.9352037282199999	-7.561444652804	0.1270759815520004
O	-0.3377545802199997	-7.894068072804	1.7668713815520005
O	-1.0348176892199996	-5.666723282804	1.519948121552
O	-0.7457386412199998	-4.540538342804	2.1442853815520007
O	-1.1581578926199998	-4.688854722804	3.2865762915520005
O	-0.9169467522199997	-3.469123402804	1.4070845215520003
O	-0.9810737922199997	-2.156925492804	1.7495690515520004
O	-2.1013856662199997	-1.349727632804	1.1963076715520005
O	-2.53488154222	-2.454452842804	0.3364726615520004
O	-1.7789414612199996	-3.011375142804	-0.5728066364479997
O	-1.9390690332199996	-4.287756502804	-1.0209004648479998
O	-3.0858164922199998	-4.856245302804	-0.6191221414479997
O	-3.61635845222	-4.505948572804	0.5530679315520004
O	-3.1273253922199995	-3.382756732804	1.1485354415520004
O	0.09569247778000034	-1.608440482804	0.9233145215520002
O	1.1699200577800004	-2.306795542804	1.5004904015520004
O	-0.18972456221999967	-0.23845634780399988	0.8583658015520004
O	-0.4504856132199997	0.5069617561960001	-0.37208623644799965
O	-1.7700526952199997	0.43024753019600015	-0.7278811164479997
O	-2.4920817622199998	0.05126961949600012	-1.8439443574479997
O	-2.98581322222	1.135105197196	-2.530503628448
O	-3.5655026422199994	1.190341787196	-3.7771719284479994
O	-3.54961491222	-0.012581433803999884	-4.369095108448
O	-3.85490145222	-0.9743592528039999	-3.4020583384479997
O	-3.3904524922199997	-0.8933710048039999	-2.1331980884479997
O	0.4735405177800003	-0.26804218980399985	-1.1611070934479997
O	1.4637621777800003	0.38755755219600013	-1.4993108904479997
O	0.8446369677800003	-1.5008519128039999	-0.7368572014479997
O	1.7572813177800002	-2.266715282804	-1.4504506384479998
O	2.36676454778	-3.437882532804	-0.9347686584479997
O	1.1737674977800003	-4.206209192804	-0.7112597764479996
O	1.3834758177800002	-5.550145142804	-0.3220832764479997
O	1.8302191177800002	-5.706563342804	0.8249817115520004
O	0.6040895877800003	-6.383908032804	-1.1536223834479997
O	0.5373340377800002	-2.5096680728039997	-2.3445223584479997
O	0.7034983677800002	-3.6916428528039997	-2.7723844584479997
O	0.9023246677800001	-1.511101402804	-3.2224626084479997
O	0.14725275778000024	-1.293039182804	-4.354751108447999
O	-0.5982217342199997	-0.21185599980399988	-3.721844668448
O	-0.23430537821999975	1.159934527196	-3.8965628184479995
O	-0.5317116292199997	2.415922547196	-3.6067953184479995
O	-1.1545443818199996	3.150479347196	-4.636230718448
O	-0.8702031572199997	2.8895124971960002	-5.944578148448
O	0.2218456777800002	2.096621037196	-6.1033599484479995
O	0.48050778778000036	1.215353237196	-5.044371188447999
O	-0.6472722712199998	-2.550354112804	-4.572064948447999
O	-1.3566827042199998	-2.6599916928039997	-3.586597458448
O	-0.13930672221999973	-3.763944152804	-5.062040508448
O	-12.26915565222	1.169082357196	6.704077451552001
O	-8.49630708222	1.738289577196	6.821477991552
O	-6.91489126222	5.137805907196	7.227565931552001
O	-4.26319208222	4.924633317196	4.556578381552001
O	-1.9568778552199997	7.911164097196	4.192051531552001
O	-3.63109144222	5.915719347196	-0.5249211994479996
O	-7.9427485322199995	7.976553087196	-3.2698830684479994
O	-10.64295650222	6.416692137196	-1.2560570294479998
O	-11.61495125222	2.960997747196	-2.553200408448
O	-7.05125261222	3.2317079671960003	-11.518501658448
O	-2.4393286222199997	-1.3892588328039999	-9.378245838448
O	0.40919963778000024	-3.9698483028040004	-8.932007048448
O	-11.84540875222	-4.9815078628039995	-6.196480828447999
O	-9.86864150222	-3.458535802804	-3.3753225484479996
O	-8.510322752219999	-5.774208792804	-0.8934268370479996
O	-10.12886758222	-3.599497152804	1.9397870615520005
O	-12.11316225222	-0.4131900158039999	2.3704361915520007
O	-9.60437539222	2.439371807196	2.399947201552
O	-9.89119337222	6.087666257196	3.247515301552
O	-7.27568869222	7.913056367196	1.3056616615520003
O	10.16297964778	8.048606627196001	1.0628449515520002
O	6.33921722778	8.020998377196001	1.6788063015520003
O	4.96806543778	7.736423657196	5.162621021552001
O	2.28182459778	5.157538547196	4.664148001552
O	-0.10785549221999968	4.287490397196	7.537491311552
O	1.6383848177800002	0.004292397396000111	5.156283601552
O	5.95816573778	-3.208701892804	6.169263731552
O	8.51149330778	-0.933234412804	4.644996471552001
O	9.42098554778	-1.430988892804	1.0037612615520004
O	8.95184464778	-12.812568602804	-0.3021532884479997
O	5.81495311778	-11.942430202804	-2.3116420484479994
O	3.9556556377799996	-8.947529572804	-1.5892598984479998
O	-2.6381807322199995	-5.3999936628039995	-3.6811924684479997
O	-5.30366924222	-4.352775652804	-6.002520938448
O	-3.8265124122199996	-5.740894652804	-8.998135818448
O	-1.8711848882199997	-8.509697902804	-7.397214478447999
O	1.6307614277800002	-9.177552702803998	-6.127351368447999
O	5.32661166778	-8.497336952804	-6.716233928447999
O	8.49126490778	-10.449429802804	-5.756515118447999
O	10.50898634778	-3.2070864928039997	-7.9978727784479995
O	8.60646268778	-0.573781479804	-6.380452958447999
O	8.07334328778	2.814247157196	-7.784486698447999
O	8.37792620778	4.587307887196	-4.403461738448
O	10.037437647780001	4.058377197196	-1.1646876754479996
O	7.435964157780001	3.2802041271960003	1.4723204015520002
O	7.8146155877800005	3.672730047196	5.167820811552001
O	5.32895425778	1.3495866371960001	6.827527371552001
O	4.03791567778	1.107005197196	10.339032541552
O	6.933622187779999	-1.0580188328039999	11.545826641551999
O	9.19118054778	1.880520247196	11.313384541551999
