109

O	-1.3584968104137254	2.488787954901961	-1.30613576072549
O	-0.03220008041372527	6.690048248901961	2.37150734027451
O	-1.5004836004137254	1.9841890640019608	-2.3796390597254904
O	0.8180518995862748	6.514990098901961	0.2910508702745098
O	-2.405128960413725	2.7388723029019606	-0.4331370567254901
O	-3.510223320413725	3.2213815189019606	-1.31356832172549
O	-2.332710400413725	3.937101148901961	0.3084833302745098
O	-1.7682073204137254	4.785636398901961	-0.7490970453254902
O	-2.284231040413725	6.009428478901961	-0.4624286927254901
O	1.4394103995862746	5.507626518901961	-0.6488594267254901
O	-1.9126915604137253	4.558426968901961	-2.08539194972549
O	-2.059282350413725	7.083996248901961	-1.27461707572549
O	-2.256015470413725	5.503454078901961	-2.9746025097254902
O	0.7922572995862748	5.599639398901961	-1.78699182872549
O	-1.9602784004137253	6.776482568901961	-2.60513080972549
O	2.763287529586275	5.6761740089019606	-0.8752427712254901
O	3.257975509586275	5.509221598901961	-2.13760451972549
O	1.1306733795862747	5.3164161289019605	-3.04436902972549
O	2.442744689586275	4.917909888901961	-3.05430687972549
O	-0.07575621241372527	2.8862648229019605	-1.20409822372549
O	0.9292963095862748	1.9759867019019608	-1.3323280587254902
O	0.34043689558627477	0.7428241589019609	-1.74302135972549
O	0.6424175805862747	0.6887096289019607	-2.8831064197254905
O	2.260055509586275	2.0544112259019607	-1.3892271707254902
O	2.4538703695862747	1.6751457569019608	-2.7197250697254898
O	3.5436428795862747	2.470547655901961	-0.9521113027254902
O	-0.8336231834137252	0.043278858901960815	-1.9364148397254901
O	-1.4027295404137254	-0.8763148110980394	-1.18892340272549
O	-1.6967437404137253	-2.299675121098039	-1.4085243067254902
O	-0.7863516374137253	-2.3085597710980394	-2.55166905972549
O	-1.0847503424137253	-1.4780560410980395	-3.56767867972549
O	-0.3153281615137253	-1.5877848810980393	-4.67609185972549
O	0.19369452458627476	-2.7980681910980394	-4.92815569972549
O	-0.26108820241372527	-3.7957380910980394	-4.16917926972549
O	-0.39982745841372525	-3.512103131098039	-2.86798688972549
O	-0.32355609741372526	-1.2282095010980394	-0.3984846907254901
O	-0.35000597541372525	-2.0847294010980395	0.56958222027451
O	-1.8036336704137252	0.20648835890196082	0.9029936702745098
O	-0.6677562374137253	0.0802756689019608	0.22312931027451
O	0.29631190158627474	1.4653361739019608	1.4080972102745097
O	0.37129564458627473	0.1296240789019607	1.03121629027451
O	1.4993082495862746	-0.5829017610980392	0.65528721027451
O	2.034018969586275	-0.9372826310980391	-0.6368347967254901
O	1.9701297795862744	-1.8619953210980393	-1.61393840872549
O	2.428274509586275	-1.6891216010980392	-2.87086193972549
O	3.626474669586275	-1.1076206410980391	-2.94873144972549
O	4.133804419586275	-0.5217774610980392	-1.8513348897254902
O	3.368582229586275	-0.5623928010980392	-0.7319224225254901
O	1.3400779295862746	3.962782238901961	0.6957045402745099
O	2.273625319586275	3.0931140589019606	1.18861091027451
O	1.5709464295862747	1.8681079539019607	1.44740152027451
O	2.4561124195862747	1.0626687119019609	1.61808854027451
O	2.830567099586275	3.5307881589019607	2.3759284402745102
O	1.7964235095862746	3.171182268901961	3.3438565202745103
O	2.667178419586275	4.979986638901961	2.3896463602745097
O	0.5122202565862748	4.488407668901961	1.5942772302745098
O	-0.28012589821372524	3.604162658901961	1.7375564102745098
O	0.14978805358627476	5.776219488901961	1.34279246027451
O	-11.955183340413726	-4.802973331098039	1.55836860027451
O	-8.332355970413726	-5.457003511098039	2.48327461027451
O	-6.922029280413725	-5.083162551098039	5.9952012002745105
O	-3.782188550413725	-3.2619323210980387	5.34540748027451
O	-1.3240389204137253	-2.3363816710980387	8.09536722027451
O	-2.116561040413725	1.7532307759019607	4.83942694027451
O	-5.668173810413726	5.572649778901961	5.30152908027451
O	-8.755457720413725	3.9080752289019607	4.38272114027451
O	-9.668174570413726	4.2794162889019605	0.6979338902745098
O	-3.0729626904137253	11.62921657890196	-1.60706997372549
O	1.1203361295862746	7.466958198901961	-4.74991800972549
O	3.649504259586275	5.648846738901961	-7.07447515972549
O	5.410296929586274	8.142822228901961	-9.10808427972549
O	-3.430807610413725	11.36903867890196	-6.80051856972549
O	-8.793313550413725	5.362683058901961	-7.91075017972549
O	-7.552335670413726	2.7720521679019607	-5.6012777197254895
O	-6.547451360413725	-0.4852778010980392	-6.83219188972549
O	-8.723419630413726	-2.1802665610980387	-4.15108866972549
O	-10.768446540413725	-1.2672986710980394	-1.18491844672549
O	-8.450083350413726	-0.9081559610980394	1.7510456702745099
O	-8.923756850413726	-0.528456951098039	5.43524767027451
O	-5.932352540413725	1.3334850859019607	6.75303348027451
O	-4.704893220413726	2.0662684069019606	10.23641999027451
O	-7.136947480413726	4.88658687890196	10.95387219027451
O	-9.895561650413725	2.3497356999019607	11.21172209027451
O	-7.776881150413725	-0.6974253410980393	12.092204890274509
O	11.297734459586275	-2.174956151098039	7.68785948027451
O	7.418620209586274	-1.8998560410980392	7.68797139027451
O	5.286347579586274	-4.884456031098039	8.574103930274509
O	2.6873302895862747	-4.544146271098039	5.8486670602745106
O	-0.29558748131372525	-6.90713594109804	5.70145298027451
O	1.8345950895862748	-6.040566351098039	0.8731706002745099
O	5.516078859586274	-9.25895909109804	-1.64420622772549
O	8.524844629586275	-7.8958477710980395	0.19670752027450988
O	10.189085759586275	-4.898042391098039	-1.4308007567254901
O	6.855976279586274	-4.316378251098039	-12.47748100972549
O	4.928681639586275	-3.6776241710980386	-9.285250609725491
O	-0.38229970641372524	1.1233212279019607	-6.74499561972549
O	-2.381620330413725	4.028422618901961	-6.56646725972549
O	-0.5218978124137252	6.294235128901961	-8.97918383972549
O	1.0637798795862747	3.558478898901961	-10.92432510972549
O	3.9941193195862748	1.1361156809019608	-11.095649909725491
O	7.717874159586274	0.8942727549019608	-10.651053059725491
O	10.363699359586274	-1.408194671098039	-12.04944090972549
O	11.164463359586275	2.2826946099019607	-3.0195520197254897
O	11.263812659586275	4.820287558901961	-0.23964155772549012
O	10.618484159586274	2.1418336549019608	2.4137845002745095
O	11.661094759586275	-1.3637403210980394	3.21828663027451
O	8.430164069586274	-3.422190371098039	3.18334434027451
O	7.868882869586274	-6.7914039410980385	4.72601049027451
O	4.948975119586274	-8.32889549109804	2.88420572027451
