47

O	23.401797455384955	1.3773220060657934	23.875525559365645
O	22.783370032923305	3.3933399564109434	21.224711449912355
O	17.50386895757512	-1.7796698747621316	16.728654777768984
O	18.6499834058555	0.16655913679493595	17.384420641607647
O	20.868256836110557	-6.459389300979112	14.19951272088079
O	21.510535348110363	-5.339160818160809	13.830797112621458
O	19.70289067639247	-6.236982626629398	14.797842852088326
O	21.224015086856685	-4.113566757981787	14.345018244626718
O	19.545204218804884	-5.102164893737384	15.505582718230439
O	23.08049144397555	-1.8228624805221254	18.048778403146738
O	23.496008655471698	-2.3398358768108323	19.278222619586053
O	23.520330793289844	0.11774819158575345	18.737042680470466
O	21.411357943589692	3.0565902936856917	19.36895950525281
O	20.94031704935377	1.844649838340252	18.683262327363536
O	19.765483710802314	2.0685616376296503	20.40044179396663
O	19.282954234626153	0.015781015749188665	20.91469458428731
O	19.668812303292068	-3.2684766173957662	16.21912792776166
O	19.652888733266337	-0.9803159102400285	15.579591672813363
O	21.5227528111253	-2.3968605649812114	16.45987419601668
O	23.70289391696738	-1.5705220334446728	21.679486563348895
O	18.75409443653916	-1.8445510671184908	19.73677947832253
O	22.182996796824852	-0.5870400142770476	15.105695591787297
O	20.97737093506384	1.0135831819799075	16.20819790052726
O	21.814148704985218	-4.645275371545839	16.80782375987471
O	19.961132389182218	-2.2407300951738	19.76609757037227
O	20.3466625750531	-4.068171608293669	15.309659774517483
O	22.80833690518604	-0.5272535970339334	17.796689335476113
O	24.17474004692671	-0.4047939662152191	22.19586507905952
O	23.86606227129598	-1.5572360345047502	20.323398700507163
O	23.969963823582944	-0.2391650649419368	19.977703526419244
O	18.415471799633906	-0.7277250839858834	16.284918318557814
O	21.436257305496664	-3.559884895075527	17.34209060074225
O	19.98206492986404	-3.5628342498895407	17.61754815877422
O	21.01188123905422	1.2290383317589442	20.3537973680602
O	20.62574156057083	-0.5775018547917291	21.155376815076902
O	20.291799768610556	1.529593984604989	22.35404339460996
O	21.272889101595496	0.6392914618681991	21.66737316536789
O	23.734598860170394	-0.010268592055322712	23.52163540645665
O	20.107429189358196	-2.547878022448419	18.435952565459786
O	20.5032477912818	-1.3564184097001803	16.673546722259392
O	22.4683556899299	2.674408953978195	20.12339557392099
O	20.623190715922707	0.6984306384356171	19.234595968458027
O	19.890155197968337	2.5335603616368765	21.576357519453573
O	19.235770960725954	0.5826208840903935	22.20394720372586
O	20.792676956949162	-1.1245614093295395	19.96820685061418
O	23.96591072202204	0.3706969693366233	21.09876983998396
O	21.77164837395291	-0.20408889445625622	16.486446458886302
