49

O	22.970292932388574	-2.1358590385067435	19.751486363926553
O	22.344806656672553	-3.272597245938959	19.197540983044114
O	20.80429857883255	-1.5476138841342757	16.866614050534686
O	22.85888997272679	-1.7562531109643502	20.922439694417385
O	22.06886722811466	-2.1376987538018235	21.73353532841867
O	22.78209308853868	-3.302314703849998	17.70944470784621
O	21.241430464627314	-1.979749220829516	15.604050786545926
O	23.572851756148708	-2.0733108982230197	17.714248683089703
O	20.33522942007039	-3.1065502143164725	15.46329788942441
O	20.229511337347127	2.023426307125022	22.467280044971975
O	20.776129148696175	-4.341781155026447	15.320607177432473
O	18.98103880252072	-2.7878043233908416	15.503946941454952
O	24.725222637238	-2.3596093472440516	18.520003737234486
O	23.54232364838559	-0.9079040045256472	18.034097193964445
O	19.836751619478523	-5.269355872563325	15.058386824079523
O	18.01675104956412	-3.7441959808341183	15.653773783069225
O	18.574451699390455	-5.0028715745985295	15.490638498098297
O	19.213330229961088	-1.2390124432712837	18.333713236533008
O	21.180910501462357	-2.3517471607795524	18.981672185964065
O	24.386852819502273	-0.9892885020806801	22.41764694824586
O	20.406833648023024	-2.6324468979248037	19.837782277259905
O	24.132442635709303	-1.0455807768938379	21.165915989247058
O	21.511897880829483	-1.553027257016324	17.968180651958097
O	20.028222965389567	-3.4896567646312553	17.730419258230924
O	24.79714375129685	-0.12467893689979026	20.42631703967563
O	22.160425786675987	1.5705398140989317	18.788951855208165
O	19.53588809697808	1.5758546269832585	21.289743528789458
O	20.032261611507646	-0.3887714550697783	21.29467057359022
O	24.773804028044832	1.1279661768009606	20.88351285629213
O	24.47258320098424	1.2910032606727821	22.18136662081946
O	23.943874112358344	2.395908726240722	22.66763171675539
O	23.640170154987842	2.5658556999272983	23.959326641625665
O	23.523923976375272	1.4753155434608882	24.753953914867978
O	21.006236090176525	1.5671900305015354	17.891695849096173
O	24.08003826055985	0.34459270057878544	24.259204186865215
O	24.47690838824681	0.2211452462973813	22.975751127060036
O	19.6165128336621	-2.2402741735567173	17.45887516857056
O	19.842596915400343	1.8504028196682267	23.947274427035325
O	19.926091020073137	-0.12432774163294202	18.172399907684095
O	20.333249194508586	0.4016192899558213	19.235050210029435
O	20.816233878926248	3.3848961430673583	22.715762590199574
O	21.638716731880134	0.7375037151098589	19.712211042393548
O	21.227497700685763	0.8660864634215655	22.569384361058006
O	22.364419127813655	2.527735037201724	19.96784613041814
O	21.25122055725578	3.46737398497243	19.648256699715134
O	19.959396208806385	3.403972813845459	19.325618855708917
O	19.84353596019657	2.335611352723264	18.313243361032313
O	20.43784378056324	0.5492310106859846	17.035853624370297
O	19.803620907928845	0.43015792224361804	20.44180426059996
