38

O	21.723766428228185	-6.197489861032963	15.028246936233504
O	20.899404372316518	-5.538558696282573	14.202040113832947
O	21.360476673636324	-4.465019027398224	13.558254038813843
O	22.545441878956648	-4.059038039788863	13.81702680372765
O	23.45280661380149	-4.9421140268919395	14.170712328255338
O	23.04234094269319	-6.062788522855502	14.771529119931923
O	22.901743045315467	-2.424764538139609	14.085106856014868
O	24.243508768944277	-2.3075826420249754	14.587481186402432
O	22.496448390462778	-1.9853556277458055	12.805638463676411
O	21.925013201193842	-1.8256776379210133	15.250558498970348
O	20.747349410259616	-1.5973851656351563	14.746539667462313
O	19.44156204180876	-1.7421350297197873	15.186233349281313
O	18.86735026126277	-3.008934157270997	14.715413550303813
O	18.71561895015793	-1.4606796098309562	16.37688544537712
O	22.72078617683185	-2.0205935695627555	16.376742592690345
O	23.314677022275312	-3.3513675255307005	16.341592198515738
O	24.47637654881303	-3.488474245255678	16.843286228090435
O	22.59942932208963	-4.08556713759563	17.395794253802904
O	22.7605886645456	-3.249707569432738	18.52783674511548
O	23.184727830507285	-1.9411005837270618	18.69335957912215
O	24.403342216059855	-1.8567841524235662	18.558309105968114
O	22.53606488578522	-0.7439859655209762	18.722155996994303
O	22.577856910641618	0.08172875344435382	17.594009619103023
O	21.308226046125323	0.4357833179160546	16.69655973577142
O	20.533760704413034	-0.07970388716730636	17.685081431400423
O	20.555434509769285	0.034067741914151295	18.977940041524715
O	21.41392771267218	0.8801032749753266	19.60629502364476
O	21.491062772361555	1.8535505043732856	18.525176958610828
O	22.850267789304933	1.3264251436780206	18.15834102773299
O	21.566653682033806	-3.46589502583899	16.487201262196113
O	20.58669371697443	-3.0595296074758713	18.713667778461765
O	19.397619333644187	-2.9595228878065942	19.333840122894955
O	18.442583384566515	-3.7782849453837897	18.83717252033265
O	18.57942488842474	-4.4700459921162565	17.680554973731468
O	19.836746213663464	-4.484082922027104	17.15591170026077
O	20.61622393143443	-3.404774811295897	17.450565460464865
O	21.31724741459404	-7.328838323039449	15.61633968250746
O	21.544414299598692	-8.32451053328432	14.607077360325205
