38

O	20.58420476283866	-7.198571105947449	16.386710727302578
O	20.40021271387256	-5.869537319709788	15.9300681786077
O	19.358794380351735	-5.01713346434808	16.158250978975783
O	19.453548444649883	-3.7450921776372645	15.674336672575402
O	20.559503776669366	-3.2697799159595973	15.128401506220474
O	21.081970761940497	-4.204373139735563	14.304162062979746
O	21.0581185951198	-5.540459876402535	14.748847705262268
O	20.74371526794026	-1.6582292086448902	14.811335496588185
O	22.01879759551195	-1.5037163258916073	14.137946352111928
O	19.844582966129536	-0.8439063790643221	14.100739530613822
O	21.07085397067948	-0.9202212472025193	16.298161817069722
O	20.2999794921504	0.15126405409728516	16.31073354419706
O	18.944422663246808	-0.28621136975997663	16.06590170353755
O	18.16820176651101	-1.4572016001446553	16.04961544169785
O	18.3647170847522	0.4993480311338685	17.231762582187446
O	22.073846599085428	-1.6880016176589439	16.702950374704926
O	21.442937603484488	-2.8163671463679294	17.525563017280582
O	22.112506157188054	-3.880043868274192	17.289088941176438
O	21.895291473593332	-2.155530874213574	18.68138127849632
O	22.381158099938254	-1.7051667261168837	19.81599495747658
O	22.803880832878345	-0.34633505113924334	20.042124931854772
O	23.851941907252034	-0.12863399415353083	19.452612309905852
O	21.81986844551313	0.5807704254860282	19.659225545680908
O	21.903819918941903	1.920409887552467	19.448400748359333
O	20.612193095516574	2.2475728557967543	18.84306826192958
O	19.795242243453586	1.6511140105024043	19.783349641003284
O	20.242153844997347	2.1007840350692932	20.94196294196674
O	20.021326692344424	1.122965263617978	21.876548526840388
O	21.120036105404985	0.36637800105352114	22.107890112054577
O	22.230697230485823	1.2564135332885293	21.68287574032108
O	21.67583242813499	2.3851561658734397	20.924025562340063
O	20.985461980782166	-0.9209861146805112	18.36327309093933
O	19.451453391064152	-2.8688816069803984	18.587235796204656
O	18.154502214362648	-3.25334251162991	18.733404056440286
O	17.34557671621133	-2.2746072810520985	19.197042643392997
O	17.927209109023998	-1.299885450739668	20.00310051055441
O	19.27054165388098	-1.187638640470782	19.952293304905243
O	19.863051397449464	-1.6124429361164192	18.869192417389108
