105

O	-0.27366231684073994	-1.9360132202222224	-1.7875047925666667
O	-0.5485540948407399	-2.279843550222223	-0.47533298256666656
O	-0.8167502208407399	0.5027121517777774	-0.9957099925666664
O	2.92483209315926	-2.4472335302222223	0.5441670804333334
O	0.051726285159260074	-3.8681854502222226	2.3331634774333336
O	-1.9614774168407398	-0.2998152602222226	-2.6670738025666667
O	1.09702400215926	-3.8274873402222225	-0.6970935625666665
O	-1.31714513684074	-1.4663768102222228	0.09168814743333331
O	-1.36981190684074	1.7498233367777773	-0.6318672125666667
O	2.9913158631592602	-1.0849285502222228	0.8282949854333335
O	-0.19081534284073995	-2.673057160222222	3.0248491774333335
O	-2.50482975684074	-1.8048609502222226	0.6044282394333335
O	-2.6719715868407397	1.3730689467777775	-1.2088344125666666
O	2.07509603315926	-0.6614515802222225	1.9021088644333335
O	-0.45064383184073986	-1.3622775902222226	2.7156293474333335
O	2.62304811315926	-1.3612720602222226	3.0782201574333334
O	-3.5810290468407397	-1.1523228502222225	0.8302683684333334
O	-3.6035981868407396	1.0871591729777774	-0.3467659825666667
O	-0.09113509084073992	-0.17850399022222252	2.2870621674333336
O	-2.54563410684074	-3.074143250222223	0.9161686484333333
O	-3.0621382868407396	2.0674037397777774	-2.2906467325666666
O	-1.49340802684074	-1.2592504802222224	3.4583135974333334
O	-4.585934456840739	-1.4775099802222227	1.6088275714333333
O	-4.86544274684074	0.8421193547777774	-0.7699054425666665
O	-0.87942208684074	0.8516547817777774	2.1721081174333334
O	-3.24167127684074	-3.4161720402222224	2.0228735144333334
O	-4.27953170684074	1.7773917047777774	-2.8257122525666665
O	-2.33378104684074	-0.2336337802222226	3.4197074874333335
O	3.7854075731592602	-1.7047328302222227	3.0702461874333333
O	2.07228075315926	-1.4489667802222226	4.309526417433333
O	-4.25906781684074	-2.570663400222222	2.3383958474333335
O	-5.13075010684074	1.0895597512777775	-2.0484771625666665
O	-2.1721590868407397	0.7033424607777774	2.4582806474333334
O	0.75090583815926	-1.0842474402222224	-1.7224196425666665
O	1.13427388315926	0.8083155327777773	-1.2026837225666664
O	-4.92282893684074	-2.2347521902222223	-1.5052093025666666
O	-0.9400988368407398	0.4812047847777774	-2.3714282025666664
O	-2.20112271684074	-0.016778830222222707	-3.806067832566667
O	-4.2383480468407395	-1.4013620002222227	-3.661136572566667
O	1.8443825231592599	-1.9345535202222226	-0.22554257256666665
O	-2.92984266684074	-1.0203864702222225	-2.1785144225666664
O	-2.9708713868407397	-3.224096090222222	-2.2810632225666665
O	0.9370251701592601	-3.0280016002222228	1.7578279044333334
O	2.84106854315926	-4.187892110222222	1.8440239324333334
O	0.7285526341592601	-2.7539799802222227	-0.18878613256666665
O	1.0895291931592601	-5.940074650222223	2.3380786174333332
O	1.55209559315926	-4.358930790222223	4.033991827433333
O	0.3203380801592601	-0.13733217022222255	-0.6770362625666666
O	2.2232872531592602	-3.069849850222222	1.7282686074333333
O	0.8892894061592601	-4.796365970222222	3.0958283874333334
O	-3.7494002168407397	-1.9542729202222227	-2.3491549825666667
O	4.51270805315926	10.210478379777777	-7.067132982566666
O	2.0310756731592603	9.746828349777777	-4.253795052566667
O	2.71420369315926	10.657495709777777	-0.6187223725666666
O	1.53769898315926	7.609746639777778	1.1300753200333333
O	1.6492789331592599	7.385341449777777	4.948386147433333
O	3.29852407315926	2.7941218597777775	2.7327180674333333
O	8.43998395315926	1.7526331777777773	1.5687051294333334
O	9.20059767315926	3.9466405597777774	-1.4023062025666664
O	8.62698709315926	2.113299029777777	-4.739039122566666
O	10.521811663159259	-9.582875380222223	-1.9037735525666668
O	7.83100789315926	-7.173068010222223	-0.6153837725666667
O	1.40860300315926	-7.459631280222223	-1.3045829725666667
O	-2.12509851684074	-8.387984870222223	-1.7162893725666666
O	-2.38244071684074	-12.145258280222222	-1.7352858925666665
O	1.28709909315926	-12.654667680222223	-1.4934497425666664
O	4.81023838315926	-11.399202880222223	-1.9835069225666664
O	6.20993952315926	-9.621008180222223	-5.040329122566667
O	9.81653730315926	-9.385178680222223	-6.442024992566666
O	5.3510156131592606	-3.567592110222223	-10.434786422566667
O	3.73049357315926	-0.9404741602222226	-8.391087332566666
O	0.38402302715926007	0.44716591477777734	-9.466132322566665
O	1.79511194315926	4.033280779777777	-9.074550122566666
O	4.8618693531592605	5.6378177797777775	-7.735808982566666
O	4.66617523315926	5.849722029777777	-3.9929307125666664
O	6.713829493159261	7.729586049777778	-1.4526807425666668
O	6.46021167315926	5.727085919777777	1.7118166704333335
O	7.438832793159261	6.354002419777777	5.271733147433333
O	11.14490606315926	5.675320999777778	4.856599047433333
O	11.53032836315926	8.909467449777777	2.9173435674333335
O	8.54031367315926	10.772069909777777	4.332693887433333
O	-6.39067985684074	1.5238313697777774	12.595795377433333
O	-3.7502124168407396	3.1243928197777775	10.299411387433334
O	-4.1843084068407395	6.717806319777778	9.046976447433334
O	-3.34657102684074	6.268103449777778	5.370072607433333
O	-3.01681752684074	9.175010139777777	2.9374476574333332
O	-5.58571442684074	4.960622339777777	0.8470193384333334
O	-11.085092036840742	4.243968329777777	0.6510918774333334
O	-11.20090863684074	2.7978575697777774	4.147039247433334
O	-10.82767903684074	-0.8876542002222225	4.541416477433334
O	-10.211340436840741	-3.8096218302222224	-4.579719712566667
O	-2.31077895684074	-3.4498353002222224	-5.4948149225666665
O	0.8586375641592601	-4.547930610222222	-5.416056332566667
O	0.18381143755926008	-8.271514200222223	-5.749019842566667
O	-3.30720467684074	-8.276842270222224	-6.850145302566666
O	-6.92831693684074	-8.065099500222223	-5.6116601525666665
O	-9.28376455684074	-9.099310080222223	-2.814182852566667
O	-13.06693783684074	-9.291391680222223	-2.5623163225666667
O	-7.36407917684074	-7.3097003002222225	5.3128413274333335
O	-4.61999056684074	-7.638416250222222	7.850722217433334
O	-4.89270824684074	-4.005849260222222	8.931485207433333
O	-7.713036876840739	-1.5651508902222224	9.569989117433334
O	-7.05942102684074	1.3283002287777774	7.105127787433333
O	-8.46870233684074	4.772122519777778	7.371219927433334
O	-8.434050556840742	6.271138389777778	3.8937871674333335
