93

O	0.039265324779999666	3.55028788313	3.9803120268977996
O	-1.2107930542200003	3.42881228313	4.716416896897799
O	1.88179692478	3.02617640313	1.1711160168978
O	-2.87959539522	-0.3807072968699998	2.9562376568978
O	2.1551266247799994	1.8464977301300003	1.8020278768978
O	2.76572622478	4.62311430313	2.8451181468978
O	1.7853818847799998	0.6386859041300001	1.3638355768978
O	-3.80093521522	0.8585740381300001	1.5082738268978
O	1.2382713047799998	0.4201658931300001	0.18307935689780003
O	-3.12726238522	0.26398723313000017	0.5028796968978
O	1.5939268647799996	1.4358713855400003	-0.6542959931022
O	-2.0848620552200003	-0.48933077686999993	0.7929578038978
O	1.4242399147799996	2.70112770313	-0.0653333638022
O	-1.9946508252200004	-0.8954240468699997	2.0488284768978002
O	-3.7254224352200005	0.6878597531300001	2.8439405968978
O	-0.21513458522000029	-0.68103679687	-2.7686785531022
O	-1.3439747222200003	-0.9335832668699999	-3.6377143131022
O	-1.2006613672200002	-0.4272888468699998	-4.9490359631022
O	-2.70841338522	-0.9500133368699997	-3.1208086431022
O	-1.6732713182200003	-0.1661544468699998	-1.4901823931022
O	-0.6485999912200002	-1.1017207668699998	-1.4615421131022
O	-1.3066123922200004	2.4371326031300002	5.5522641668978
O	2.01173550478	4.27697333313	1.7220639968978
O	0.6238433547799997	-2.18767656687	0.6306701078978
O	1.7053648847799996	-1.53973801687	-1.3755580731022
O	0.7163122247799998	-1.1089251568699998	-0.4458614941022
O	-1.1441728252200003	1.20773758813	-1.5405601131022
O	-1.1611833952200001	1.4964882695300001	-0.2274855581022
O	-1.0435137035200002	2.26538977513	2.0907087768978
O	0.49890075477999973	2.23532756013	3.8785940268977996
O	-0.7015888592200002	1.2812717531300002	5.644276746897799
O	-0.37527358822000023	-0.48304823686999976	4.9974504068978
O	0.6736505547799998	1.5337062621300002	5.0566889668977995
O	-0.8843094832200002	0.07724190313000023	0.3205707488978
O	0.8595852547799998	0.11242317313000005	4.467992296897799
O	-4.066557635220001	2.0472060681300004	4.8873722568978
O	-1.5870187592200002	1.92997929713	0.8828127268978001
O	-0.6123625722200002	1.51519032513	-2.6635222931022
O	-0.8864410122200003	3.4614742031300003	2.0457518668978
O	-0.5977393072200002	1.6085145871300002	3.1878848068978
O	-1.2606631222200002	0.4656403211300002	4.715641906897799
O	0.2890839747799998	-0.28960968686999977	3.2787686268978
O	-3.69496458522	1.86058687513	3.5823692568978
O	11.03460372478	1.4025214575300002	-7.0891144831022
O	8.569076304780001	-1.30449710687	-6.063565333102201
O	9.32975652478	-4.00680011687	-3.4593069231022
O	6.38885184478	-4.057314216869999	-1.3526678731022
O	5.7698831647799995	-6.414057626869999	1.5973654768978
O	4.23366745478	-1.44598674687	3.0037061568978
O	7.48165857478	2.22364937713	5.389970916897799
O	9.58819212478	3.2383820731300004	2.4605313168978
O	8.17441246478	6.23999661313	0.5688999168978001
O	1.24363224478	8.86770584313	7.7063660268978
O	-3.96844973522	6.635852173130001	3.8618831868978
O	-7.15343195522	5.95392793313	1.9991802368978
O	-9.81108069522	7.977530603130001	3.5427925168978
O	-1.2969765482200002	12.42695083313	4.5840772868977995
O	1.7165403747799999	14.72000863313	5.204233126897799
O	2.69161430478	11.97779003313	-2.4108688831022
O	2.9510067747799997	8.35903866313	-3.1198023231022
O	1.5484812547799998	6.84162446313	-6.267912953102201
O	4.974125734779999	5.16161977313	-6.893368933102201
O	8.383751934780001	4.76295072313	-5.3055719531022
O	8.11791672478	1.94203595713	-2.7706151831022
O	10.51011632478	-0.010962656869999865	-0.6385934451022
O	8.662605024780001	-1.13310144687	2.4644970468978
O	9.432455624780001	-3.5546117768699994	5.2458671868978
O	11.67300072478	-1.2213943668699998	7.1868052768977995
O	13.25070532478	-4.977228256869999	3.0835126968978
O	-4.92735923522	-11.76003856687	5.4601404268978
O	-1.7373574492200001	-9.80846216687	4.552933406897799
O	0.5419089147799998	-11.17901706687	1.8756258868978
O	1.2128957447799997	-8.047399076869999	-0.11868372699219999
O	3.6386132047799995	-7.95158333687	-3.0721141331022
O	-0.8445488482200003	-5.191348586869999	-3.6413457131022
O	-5.144196245220001	-7.05276169687	-6.7444826331022005
O	-6.667583345220001	-8.85496216687	-3.7901056031022
O	-9.05324696522	-6.877470316869999	-1.6868115531021999
O	-9.21712354522	1.4673392892300001	-6.392716363102201
O	-3.4123524552200006	4.8042268131300006	-3.0783114431022
O	-1.7811772242200004	7.43770444313	-0.8166941851021999
O	-4.72419706522	9.40541806313	0.32121666689780004
O	-7.052841405220001	8.48685952313	-2.4036708731022
O	-9.617772005219999	5.96132103313	-3.6352074031022
O	-12.44119567522	3.7436501031300002	-2.4444050531022
O	-15.31658007522	2.03715004813	-4.188423393102201
O	-11.119085975219999	-2.20946128687	3.5956278368978
O	-9.67960890522	-2.62078757687	7.1306424568977995
O	-7.43889701522	-5.54585898687	6.1015029768978
O	-7.78225885522	-8.600510466869999	3.9232444168978
O	-5.0286414952200005	-8.148591516869999	1.2739330268978
O	-3.65473867522	-10.88303296687	-0.8359128401022
O	-2.24877102522	-9.21801436687	-3.9142822731022
