109

O	1.193278416823529	-1.165539356392157	-4.270341399568627
O	-0.07744605017647102	3.4096130436078433	-2.5644506495686272
O	0.544318729823529	-0.21713910939215697	-3.920130649568627
O	1.9281850158235292	2.642066183607843	-2.182923849568627
O	1.593776895823529	-0.937080826392157	-5.611093179568627
O	2.417946505823529	-1.9232014363921568	-6.334649249568627
O	2.447377015823529	0.210494430607843	-5.655521949568627
O	3.499393015823529	-0.22073852039215702	-4.627163799568627
O	4.3398197658235285	-0.9727825663921569	-5.402013969568627
O	1.823886565823529	2.341239423607843	-3.5690076695686273
O	4.150047405823529	0.431342400607843	-3.7077314995686272
O	5.6032245658235285	-1.202209496392157	-4.952501649568627
O	5.446242755823529	0.853952823707843	-3.8450825495686276
O	3.027400515823529	2.868120843607843	-3.909279239568627
O	6.193567935823529	-0.20264410639215702	-4.234665449568627
O	0.967118102823529	2.796313053607843	-4.526764129568627
O	1.271201185823529	3.3369719936078432	-5.746720069568627
O	3.500053955823529	3.334722433607843	-5.0651352795686275
O	2.587275245823529	3.396252073607843	-6.076992999568627
O	2.254384015823529	-1.353904676392157	-3.4787196195686274
O	2.141142165823529	-2.253397766392157	-2.446997259568627
O	1.139602406823529	-2.0610761963921567	-1.5204769675686272
O	1.132095050823529	-2.7686855063921567	-0.5888162795686271
O	2.186645155823529	-3.558238756392157	-2.861276839568627
O	1.097114208823529	-3.4770420563921567	-3.8066600495686274
O	3.437884925823529	-3.3958860463921567	-3.5824107095686273
O	0.06651875382352901	-1.2384701863921568	-1.724033335568627
O	0.371005696823529	0.04707416660784303	-1.3006192215686272
O	1.632018365823529	0.0019624306078430687	-1.1582420077686273
O	2.938661625823529	-0.28096673639215697	-0.8748356975686271
O	3.5888170958235293	0.862045162207843	-0.6296371255686272
O	4.877429955823529	1.043265706607843	-0.5541756025686272
O	5.585513145823529	-0.11158728839215704	-0.5997375385686272
O	5.071833155823529	-1.2030492863921571	-1.2093656051686272
O	3.7970116458235292	-1.316845116392157	-0.9411616155686272
O	-0.8167812541764711	0.739546055207843	-0.9714358245686272
O	-1.435888164176471	0.807865350507843	-2.0998729445686273
O	-1.341062584176471	-1.2486862963921568	-0.051627389568627224
O	-0.9759150741764709	0.021287112607842995	0.1066199404313728
O	0.829130180823529	1.085505059607843	0.6813160204313728
O	0.48449646482352904	-0.262215806392157	0.45172352043137276
O	0.253536896723529	-0.738305326392157	1.7482334104313726
O	1.645682155823529	-0.34494963639215703	2.1785855404313725
O	2.239378555823529	0.760784346807843	2.4467408604313725
O	3.513409355823529	0.9997878376078431	2.4897259604313726
O	4.271773145823529	-0.11604298139215696	2.406354980431373
O	3.760347025823529	-1.299206726392157	2.0991458704313732
O	2.457125095823529	-1.326960836392157	1.7851636804313726
O	-0.22051578817647102	3.297547253607843	0.864064860431373
O	-0.03176537317647102	2.942210433607843	2.209895800431373
O	0.300637888323529	1.593834683607843	1.8134271004313727
O	-0.8735631241764711	1.086394475607843	1.7494284604313728
O	-0.761083304176471	2.723443353607843	3.430216560431373
O	-1.7089076341764708	1.553298149607843	3.6529417004313727
O	0.161035371123529	2.016777663607843	4.434975370431373
O	0.700955176823529	3.0143311336078433	-0.14141828956862712
O	1.7923994258235292	2.809019023607843	0.36211064043137275
O	0.763105998823529	2.9694618736078433	-1.5305827895686273
O	-11.20396860417647	6.573940953607843	-0.6975279615686272
O	-9.612396564176471	3.512571763607843	0.916798140431373
O	-10.43832780417647	-0.061868589392157	0.004752470431372835
O	-7.122722544176471	-1.5808355763921567	-0.22156621656862718
O	-6.5856724141764715	-5.251276926392157	-1.0468962685686272
O	-3.352862264176471	-2.2723664863921567	-3.7874143395686275
O	-4.029128424176472	-0.226114526392157	-8.677775599568628
O	-6.407039264176471	2.470842803607843	-8.034689899568628
O	-4.6965886341764715	5.836152203607843	-7.453071479568627
O	4.486545895823529	3.381615473607843	-10.747844749568626
O	6.857113655823529	2.8995753736078433	-4.468084639568628
O	9.08809211582353	2.9807378936078432	-1.368766035568627
O	12.597768095823529	3.3344464136078433	-2.2736333695686275
O	7.135356575823528	7.4939590936078435	-8.911088259568627
O	1.284146335823529	11.791345623607842	-5.315758079568627
O	-0.502550168176471	9.286498633607843	-3.3192610195686276
O	-0.7237486971764711	9.534123653607843	0.3661930604313728
O	-4.554278984176471	8.910271483607843	0.040232720431372826
O	-7.134899954176471	7.939734503607843	-2.473916179568627
O	-7.036238474176471	4.188692363607843	-2.851055559568627
O	-9.233369334176471	1.720649162607843	-4.517652509568627
O	-7.075595614176471	-1.1860330663921568	-5.474728739568627
O	-7.918217714176472	-4.6209161263921565	-6.806154419568627
O	-8.56267997417647	-3.542219936392157	-10.383907909568627
O	-11.77456250417647	-1.977994056392157	-9.250916339568628
O	-12.33588470417647	-4.064596776392157	-6.106294759568627
O	2.104203565823529	-13.194017276392158	3.4197927004313726
O	-0.35109466917647103	-10.679501276392157	1.781712680431373
O	-3.6998267741764708	-9.975909776392157	3.357562150431373
O	-3.751480454176471	-6.229152806392157	3.061677950431373
O	-6.796568674176472	-4.200917186392157	4.092440560431373
O	-2.2067288041764708	-2.0377441363921567	5.699737980431373
O	0.136209420823529	-2.460127226392157	10.620850870431372
O	1.757859485823529	-5.806203956392157	9.886870370431373
O	5.229867555823529	-5.6554138663921565	8.415711160431373
O	9.70239979582353	4.846682323607843	10.292769970431372
O	6.854628525823529	3.754716203607843	8.071774260431374
O	4.041135115823529	5.294435963607843	1.3360623204313729
O	4.121649815823529	6.626885743607843	-2.142894988568627
O	7.770366895823528	7.179247693607843	-2.6727983295686273
O	8.62769730582353	7.563679373607843	0.876881720431373
O	9.55898291582353	5.720822143607843	4.035008030431373
O	11.62029009582353	2.924573923607843	5.402035910431373
O	13.14853639582353	2.222150553607843	8.791099290431372
O	10.16159863582353	-4.932601586392157	2.909805420431373
O	9.86439388582353	-7.048146336392157	-0.15451167856862724
O	6.662861305823529	-8.655343156392156	1.127165830431373
O	5.259364195823529	-10.035111576392158	4.303141120431373
O	2.1296051858235288	-7.9490450763921565	4.981407610431373
O	-0.726932204176471	-8.810522296392158	7.224730290431372
O	-2.367308554176471	-5.534371716392157	8.141994740431374
