41

O	20.83667499233925	-4.921144911108823	13.006899479133113
O	18.908892424646577	3.108751260916497	17.83421964441997
O	19.276073337673317	-5.1314058492966765	14.568358050645255
O	20.333031724278154	-5.81048239005165	14.000351632464508
O	17.81569071683768	1.1863083878013165	18.23775419036636
O	18.37074569457884	2.3338726581733065	18.895659361676888
O	19.214149729474208	-3.4008743183923356	16.895297269526605
O	20.494899305090755	-1.622993298015242	15.269762059857449
O	21.50591142940114	0.4820364307484579	18.272272981807617
O	21.589701219014803	-0.6982163094744527	15.15400962337806
O	22.768111816344287	0.3578312753904185	17.541754424367376
O	18.80050882378515	-3.194809349652967	18.279461054035316
O	19.43689907595613	-3.703333420263143	19.27960778946819
O	17.870331348575686	-2.2540601678709056	18.43761299198117
O	21.3126746168858	-3.7708831661083124	13.624542761988993
O	20.010891210130087	2.4114629581515157	17.329569663468043
O	19.39685441688157	-3.793198384147572	14.732460533309675
O	18.809543529425437	0.6070777057335153	17.45193144031619
O	21.597772882933064	-3.623690535017742	16.538159419378786
O	22.609772204371936	-2.6808772817836557	16.160442760598503
O	20.768680895661845	-2.741656560079809	17.30827426693239
O	21.350299498461094	-1.4725641034290176	17.226514367743757
O	22.803830046019613	-1.8507287250749904	17.31652256863592
O	20.586989872554703	-3.14827993115519	14.548027752301653
O	20.10627098241889	1.038931726566808	17.392941123929493
O	19.710381076798907	-2.0193373960926397	16.716636791343088
O	19.038552973181154	-3.312036704149687	20.51090926965627
O	17.434885901533793	-1.9136198758678473	19.649200919589223
O	18.05018630748454	-2.4279229332928205	20.720439626767647
O	20.982271741897772	-1.0152257442606243	18.38970310974021
O	21.668415231697452	-1.8117792504114152	19.32572564125803
O	21.12232084062613	-1.0409735835233624	20.491709501282575
O	22.200674150691558	-0.3105216148238932	20.862513255148112
O	21.867292017180507	0.37132105511908975	22.009366539154975
O	20.62542877116379	0.8437634687509508	22.2828662303006
O	20.05468047791901	-0.12579542694395607	20.32979043370025
O	19.678066697136465	0.6820801550469893	21.334484503545294
O	21.802077534352204	1.5958480948140588	19.104882983185544
O	19.520919961388405	-0.6387187236606836	14.78992620636216
O	19.913011077635208	1.3657195862609253	24.164580591783384
O	17.427805458494404	-1.6631445671299834	22.563977611027696
