106

O	1.4815155806159614	-0.8958473517692314	0.09819385269230763
O	2.6500128106159613	-1.1634800167692314	0.09646334269230783
O	1.1082059506159614	-0.0976958617692314	-2.119526697307692
O	0.9302590106159614	0.16521222023076854	-0.6776488313076923
O	-0.4174354973840387	0.4921872502307685	-0.6631178893076923
O	-0.5700804233840386	1.1617975402307685	0.6517107826923076
O	-1.9498421493840385	1.4149508402307687	0.7067093726923077
O	-0.3316884433840387	0.13423662523076862	1.593769552692308
O	-1.0806793893840387	0.25600385823076854	2.6652599226923077
O	-0.6458331403840387	-1.3491746067692314	1.1896544526923076
O	0.9055388536159612	-2.4432501697692315	1.9707355326923075
O	0.6767419816159612	-1.5209525387692313	1.1016645226923076
O	0.2599399266159613	-1.3429020367692313	-2.0724718773076924
O	1.0175850406159614	-2.309915399769231	-1.3713652073076923
O	1.5997277806159613	-3.306450499769231	-2.0295226753076925
O	0.6227374156159613	-3.9808588097692312	-2.673925277307692
O	-0.5512981693840386	-3.2971985997692315	-2.739297857307692
O	-0.5309266353840387	-1.9546754297692315	-2.9423217973076925
O	2.9650480106159613	-3.1366066497692313	-2.4140070373076923
O	3.850224660615961	-2.0042764197692313	-2.3349926873076923
O	3.339570740615961	-3.9932510797692315	-3.1894638373076925
O	5.178713870615961	-2.4210026897692316	-2.135968977307692
O	6.1218813206159615	-2.3500016797692314	-1.2403713723076923
O	7.102252330615961	-3.2281157597692314	-1.3355061833076922
O	7.131617400615961	-3.9468360997692313	-2.462352467307692
O	5.813604320615961	-3.357750049769231	-3.359627407307692
O	-0.5139547843840386	1.8594929402307687	-1.2061047497076922
O	-0.9292113723840387	1.2453983802307687	-2.439183427307692
O	-2.144716779384039	0.7683096902307687	-2.5269071673076926
O	-2.7374412593840387	0.5995002302307686	-3.7346167673076924
O	-2.524639769384039	1.7376764802307685	-4.463794367307692
O	-1.2768539993840387	2.2233652902307686	-4.469805687307693
O	-0.3853666843840387	1.6366023102307685	-3.5755613273076925
O	-1.7162326393840386	-0.7934261777692314	0.5371542426923077
O	-2.174163499384039	-1.7529111297692315	-0.32081020830769225
O	-3.007999259384039	-1.3330736167692314	-1.2152871719076923
O	-3.731589289384039	-2.0833159797692313	-2.0256761443076923
O	-3.483456659384039	-3.4001270097692315	-1.9037634233076923
O	-2.956095149384039	-3.8935142897692314	-0.7808643263076922
O	-2.2710963293840387	-3.0074638397692315	-0.0344603873076923
O	0.3063998846159613	-3.6788642097692312	1.5765726126923076
O	1.4696469906159613	-4.336833139769231	1.8042172226923077
O	2.071483410615961	-4.928826729769231	0.7966879626923078
O	1.3343680106159614	-5.814927219769231	0.07630551269230779
O	0.0339614016159613	-5.339605049769231	-0.06063986730769222
O	-0.4138756673840387	-4.430419179769231	0.8082544326923078
O	3.2486403206159613	-4.0705931297692315	0.5902740926923078
O	4.098653110615961	-4.344266579769231	-0.3072945603076923
O	3.957329790615961	-3.5806499297692316	1.4394618226923077
O	4.991030320615961	-5.365979409769231	-0.5331838313076923
O	5.458177910615961	-6.285263679769232	0.2529114226923077
O	4.869958990615961	-7.510760209769231	0.1737515726923078
O	4.331022850615961	-7.812015399769232	-1.0777244061076923
O	4.781705920615961	-6.354423159769231	-1.8895935573076923
O	6.271220460615961	11.379396890230769	-0.7534398123076923
O	3.1326322606159613	9.842780490230767	0.7196672326923077
O	2.691736970615961	9.203748760230768	4.445197152692307
O	1.2577411006159613	5.804778190230769	4.454988032692308
O	0.2508174006159613	4.059689300230769	7.711327522692308
O	2.979084990615961	0.5800399702307686	4.597569122692308
O	8.01321428061596	-0.14665070676923142	4.500929152692308
O	9.456209860615962	2.945476100230769	3.0178532126923074
O	9.898350780615962	2.6962980202307687	-0.7612472733076923
O	8.708346650615962	-7.389357189769232	-1.0888779404076923
O	2.708676590615961	-6.977948119769231	-3.616569567307692
O	-0.3130099653840387	-7.518946919769231	-5.548636817307692
O	-0.3879797083840387	-10.847525209769232	-7.057960067307691
O	8.542648360615962	-7.787022749769232	-6.370271117307693
O	12.345637310615961	-7.174895759769232	-6.425050417307693
O	8.932378630615961	-7.992076923135638e-05	-8.847832747307692
O	6.565280910615961	1.7023839102307687	-6.5460811073076925
O	3.7081809806159614	3.566170610230768	-7.925892797307693
O	4.714315980615961	6.606871070230769	-5.746597977307692
O	7.160046310615961	7.476166080230769	-3.0820889573076924
O	5.899126660615961	6.165573680230768	0.22047799269230772
O	6.953968460615961	6.698391100230769	3.7763242226923075
O	5.924182000615962	3.6542009802307684	5.714954372692308
O	5.790928260615961	2.8005521302307685	9.394848032692307
O	9.48667635061596	2.0970547602307685	9.781837732692308
O	10.14725801061596	5.802550030230769	9.440001132692307
O	6.743121180615961	7.125957140230769	10.541151832692307
O	-9.47377119938404	-3.6778240997692313	9.577523932692307
O	-6.278275209384039	-1.6092969297692314	8.911538332692308
O	-6.4348735293840384	2.1606983502307684	9.141299232692308
O	-4.551491959384039	3.1120095602307685	6.009292202692308
O	-3.641060149384039	6.661582340230769	5.1088158926923075
O	-5.214466449384039	3.9379928002307687	0.7084679526923077
O	-10.28362608938404	3.8383852902307685	-1.1976890262076922
O	-11.606260689384039	1.2511648002307685	1.269398012692308
O	-11.21569048938404	-2.3632128997692314	0.25179762269230777
O	-9.570396969384038	-2.6717128097692315	-11.106201617307693
O	-7.3159456093840385	-1.4440153997692313	-8.330550977307693
O	-0.0344176374840387	-1.3169611137692314	-6.692535237307693
O	3.3779112806159612	-2.5418776697692316	-6.542470837307691
O	3.010317010615961	-5.884188079769231	-8.309014727307693
O	-0.0637004683140387	-5.038412969769231	-10.137638777307693
O	-3.8379158793840387	-4.9878861097692315	-9.936680287307693
O	-6.816140649384039	-6.952875039769232	-8.783664847307692
O	-10.44343468938404	-6.994329209769232	-9.812835807307692
O	-7.664345069384039	-8.864940629769231	-0.5052679143076922
O	-5.727090939384039	-10.333179599769231	2.3873824626923077
O	-6.657387499384039	-7.445547099769231	4.694773612692307
O	-9.720089959384039	-5.251131359769232	5.326816122692307
O	-8.522939019384038	-1.6790512497692314	4.534518402692308
O	-10.00777417938404	1.5339703902307686	5.673446112692307
O	-8.887925039384038	4.194986100230768	3.2129000126923075
