54

O	23.74332302934401	-4.315574593098198	17.741469949853382
O	23.133214599956922	-3.573761696544623	18.689495167702283
O	22.535489324130598	-2.5022070280538364	15.900703176656389
O	20.75363081136643	-4.2933190823721405	12.046196897097209
O	22.153527541422637	-3.3707595697723898	19.541526790641484
O	20.956130285566083	-2.4278970859401943	17.92712389527115
O	19.250499869314726	-3.7116087105600593	15.987509281103936
O	23.502597633532748	-1.3426124211660488	20.01681396569094
O	20.920738453315444	-3.5321974059358965	18.761823660931615
O	20.754538790988533	-3.079115867288156	14.241849806542023
O	19.875016191487326	-4.096863754587831	18.718473882502323
O	20.566056254894292	-1.975668919461885	16.701080257581033
O	21.561311133043933	-5.459696304554281	14.016922776885439
O	23.62127707044405	-5.111714178156488	14.287263632969502
O	21.428526395522887	-3.059067455401054	16.25552396200572
O	22.858159724953257	-9.89042481029584	18.602075914254552
O	24.634343853063257	-3.4749139176546207	17.594644546832576
O	20.37203283080051	-3.5395592388954125	15.53575000491721
O	22.046508338252814	-5.411614985146262	17.003422424351296
O	21.28380249562323	-0.6973206780380365	16.521736619267852
O	22.02814552399114	-8.65452106333783	14.68183293538662
O	21.291430309479438	-0.1811017064294167	17.92889608235154
O	21.833947627218908	0.9706248191957303	18.352461073792384
O	21.36921218291185	1.8263567357947612	19.308225833269958
O	20.46397371803816	1.2866859512119895	20.142439846891396
O	19.934860901683475	0.08079491655737403	19.81607389122847
O	20.109855198598208	-0.42141416147786903	18.56339179634158
O	20.07814660786345	-4.2501897087635285	13.658963127467945
O	22.194157572414404	-3.4474290728957127	12.510286624167254
O	22.205128803303175	-3.280622618995113	13.984688929794878
O	22.51346997810661	-4.607225713276508	14.369817593899583
O	21.92186522686771	-2.0457942201978843	12.588534666379694
O	23.247193407428817	-4.249756957578818	12.132269166398803
O	22.025321908799633	-2.2618520093095222	20.38073614243556
O	23.37748398144862	-5.435778190823557	16.93040437039768
O	22.973284124800244	-0.1485812653147378	21.31564539464202
O	21.189983801465257	-6.366676545053533	16.957808955847767
O	19.85180610575027	-6.506872661943733	16.61002489669206
O	19.38375464741187	-7.760240656518938	16.343922642305053
O	19.72890554905723	-8.704461008153691	17.333359658781482
O	21.044115615028932	-8.754269101205507	17.710311276184505
O	21.680974140046025	-7.459543909253142	17.797460630618485
O	21.53739170258165	-9.772067718777112	18.526928481914826
O	23.50440010705414	-8.701757508446065	18.636652410897693
O	23.065984996595127	-7.8143268751265555	17.62220631542597
O	21.570774544148474	-6.696830237821205	14.45005003787923
O	20.96105796824208	-7.13042442932162	13.275391848354252
O	21.943502302997732	-7.128830307255523	12.394491606474926
O	23.173135363978588	-7.500322291579611	13.10674235843135
O	22.748810096211137	-7.437300753734988	14.499524092215829
O	19.695273642777025	-7.433854893904037	13.051625392154993
O	19.601747263265263	-8.663282352677337	12.365148223045102
O	20.536589712830587	-8.645528552873039	11.322005161431072
O	21.4919890141786	-7.621544572416067	11.165058973832837
