98

O	-4.348929184884614	2.2277841024423077	2.678991500492308
O	-3.8177237548846144	2.2346092524423073	1.3832262304923075
O	-2.490584994884615	1.6936065924423076	1.2524134204923076
O	-1.8518183246846147	0.8038840524423075	2.005652310492308
O	-2.4023009228846144	0.8719637714423075	3.274171680492308
O	-3.581288504884615	1.6128644304423077	3.614166950492308
O	-0.5390039248846146	-0.28529036755769244	2.076283700492308
O	-0.49891192488461455	-1.1558115175576926	3.312730100492308
O	0.6204936951153854	0.5941041442423075	1.8559554704923074
O	-0.11327291488461477	-1.2968058375576925	0.9813881204923076
O	0.3986154151153851	-2.4685233675576925	1.2936431704923075
O	1.5988674351153853	-2.5829450975576926	0.4590358134923076
O	1.3554745951153855	-3.5733430475576924	-0.4672586973076924
O	2.3374965951153857	-1.4044893575576927	0.7487159504923075
O	0.42069599511538547	-0.6602597975576924	-0.10418729850769243
O	-0.4203914148846146	0.5505113874423075	-0.26700791350769243
O	-5.762666014884615	3.3815716024423073	1.4381624104923076
O	-0.23845732488461469	1.7894040224423073	-0.2334870095076924
O	0.1714480151153852	0.6410374833423076	-1.7277368495076924
O	-5.465970124884615	2.9470236024423073	2.731668830492308
O	-0.5470861348846148	-0.33378559755769255	-2.3349459295076924
O	-1.3465185138846145	-0.9261634775576925	-1.3832685125076924
O	-2.2286278078846147	-0.10160472755769245	-1.0093780755076924
O	-2.834710455884615	-1.9669092475576924	-0.04672871250769245
O	-1.7523621358846146	-2.8610337475576926	-0.1900401525076924
O	-3.420208164884615	-1.8875985275576928	-1.2900443555076926
O	-4.513310804884615	-1.3221239075576925	-1.4283288235076923
O	-2.511772571884615	-2.0018794475576924	-2.2682135695076924
O	-1.4335242318846146	-2.4388437575576924	-1.5351083895076925
O	-4.964106304884615	2.4628878624423076	0.6733785204923075
O	1.5736992051153855	0.27128271344230753	-1.5297988795076924
O	0.9090690951153855	-1.8283672775576925	-2.6765945695076923
O	1.0703207751153854	-2.7771536275576927	-3.5940352995076923
O	1.8814273651153854	-2.3982350175576927	-4.603441359507692
O	2.643423915115385	-1.3026714875576926	-4.523151949507692
O	2.451213445115385	-0.5195316575576924	-3.4465437695076924
O	1.7778979651153852	-0.9099685975576924	-2.3638059795076924
O	-4.8828781148846145	-1.1158835575576926	3.2338581204923074
O	-5.3045651748846145	-0.5672330475576924	2.025344290492308
O	-4.467234834884614	-0.6801979275576925	1.0390285504923076
O	-3.3998138348846147	-1.4494546075576924	1.0806519604923075
O	-3.2032616048846148	-2.1730567975576927	2.2049445904923077
O	-3.6481890248846147	-1.6605210775576924	3.380092550492307
O	-6.993795014884615	0.47450395444230753	3.376399100492308
O	-6.616825394884614	-0.032021389557692403	2.265524260492308
O	-7.650709644884614	-0.8769978075576924	1.6637605704923077
O	10.235750315115386	8.797381792442309	-1.7993730995076924
O	9.752355815115385	5.119208732442307	-0.9561892595076924
O	10.349115415115385	3.5966713624423075	2.4835159904923074
O	7.243413325115386	1.5238813174423076	2.8828272404923077
O	6.732014025115385	-0.5726898975576925	6.074878320492307
O	2.3844339151153853	1.9281388524423075	4.710809300492308
O	0.8165957251153855	6.873624592442307	6.6917007404923075
O	3.1863059751153853	9.132915172442308	4.822412120492308
O	-10.558198244884615	9.847131082442308	3.445784160492307
O	-8.014321824884615	7.041879692442308	3.4072221604923074
O	-7.500580584884615	2.1134606024423075	-1.0528679135076924
O	-8.059274534884615	-0.5132966075576925	-3.693346349507692
O	-11.668443904884615	-0.8695894175576925	-4.447230259507692
O	-11.677845504884615	5.133618402442307	-0.12801970150769243
O	-9.788672294884615	8.063887072442308	-1.5102265095076923
O	-9.848887904884615	11.819484412442309	-0.6280313635076924
O	-3.3252531148846147	10.673545382442308	-5.4848316895076925
O	-0.7241642648846147	8.233974042442307	-4.397705629507692
O	1.0608106251153853	6.212472512442307	-6.998003709507692
O	4.398513835115386	7.432982522442307	-5.529459859507692
O	5.692253615115385	9.405240832442308	-2.6007282995076926
O	5.757221285115385	7.078881132442308	0.36725453649230755
O	7.256140515115385	7.325800712442307	3.804367390492308
O	5.076329775115385	5.234593722442307	6.053288750492308
O	5.412187165115386	4.016375882442308	9.627143790492308
O	4.343860105115386	7.256930592442307	11.245636390492308
O	9.677714515115385	5.534070562442308	9.828153790492308
O	1.3237557751153854	-11.779476787557691	7.102462380492308
O	2.7011232051153855	-8.197826327557692	6.915089790492308
O	6.381577865115386	-7.645344647557693	6.142615640492308
O	6.038026875115385	-4.898292557557693	3.487992400492308
O	9.084481915115385	-3.1243902875576928	2.024298090492308
O	5.426618615115386	-4.147831047557693	-1.6534983795076925
O	5.442104855115385	-8.522756217557692	-4.897211889507692
O	3.8592254451153853	-10.827578887557692	-2.3663859695076925
O	0.11802168511538547	-10.960518787557692	-2.3406320695076923
O	-2.0183624798846145	-5.108669197557693	-9.399720549507693
O	-2.3738119988846145	1.1876686174423075	-5.653557679507692
O	-4.083407064884614	4.2070271824423076	-4.3931368995076925
O	-7.608023674884615	3.6396562824423073	-5.424877339507693
O	-6.928165944884615	1.4207193054423075	-8.356679329507692
O	-6.286930464884614	-2.2138731675576926	-9.219828089507692
O	-7.369256804884614	-5.751013477557692	-8.465835019507693
O	-7.160009254884615	-8.952289697557692	-10.455260319507692
O	-9.023824364884614	-10.587599587557692	-2.879050689507692
O	-6.663736544884614	-8.882187457557691	-0.6215164065076925
O	-7.518909594884615	-8.223895167557691	2.908860190492308
O	-3.9818937148846145	-8.867690077557691	4.134257960492308
O	-1.3087773318846145	-11.413559387557692	3.434306690492307
O	1.6190995951153853	-9.271306557557692	2.2284871604923078
O	5.196286675115385	-10.328725887557692	2.083406950492307
O	6.925412965115385	-8.190821237557692	-0.5535676641076924
