99

O	-2.8153521242708335	1.0334524166666665	-0.3025737933125002
O	-1.7763276442708336	-0.6885196183333335	0.38872700268749977
O	-2.0410273042708336	1.6509642996666665	-1.0985346103125002
O	-2.505632534270833	-0.3286182883333335	-0.7752627403125003
O	-1.6606581632708335	2.1183227906666664	2.1326709196874996
O	-0.06013259527083348	0.09587594166666658	-0.8370517303125002
O	-3.6098560342708335	-1.0867751383333333	-0.5563086603125003
O	0.42257753572916656	1.0255757626666666	3.4675139996874997
O	-3.041084034270834	-0.4316947183333335	2.4823928196875
O	-3.9178642642708335	-2.1580964483333336	0.22012647968749977
O	2.5780382457291666	2.8813687216666666	4.9867212096874995
O	-1.5004006402708336	0.6278448236666665	4.8979205396875
O	-5.139062904270833	-2.252184418333333	0.9558810266874997
O	0.6994673057291665	1.5110647366666665	5.8555808596875
O	-6.1008203942708334	-1.5807969383333333	0.27028854268749974
O	2.1348796657291667	0.9196300836666665	0.9889050966874997
O	-5.716438644270834	-0.7188418783333335	-0.7704390803125003
O	-4.508480264270833	-0.1167324683333335	-0.4257715603125003
O	-4.120597144270834	1.1420049165666666	0.22651484868749977
O	-0.5773812062708334	-0.26995739833333343	0.13500508868749977
O	0.3914299757291664	-0.5361481083333335	1.1553576926874998
O	0.4578600957291665	-1.8472904883333336	1.2087509826874998
O	-0.4767379522708335	-1.9227940083333335	2.2998476596875
O	-1.5136687652708334	-2.712002898333333	2.2841859796875
O	-2.0006586072708337	-3.0625037583333334	3.4973501596874996
O	-1.5134068362708335	-2.4947493483333334	4.6393801596875
O	-0.21156931127083356	-2.161655828333333	4.7037129596875
O	0.1573035257291664	-1.8696181983333335	3.4693820996874996
O	-0.4896182902708335	-0.006850118333333377	2.1904396296875
O	-1.8044676312708336	-0.0617495783333335	2.4485973096875
O	-2.4435434842708332	1.2050218833666666	2.5415004896874995
O	-1.2307379382708334	2.3510001816666666	3.4480678996874996
O	-0.34686163127083347	3.4689932516666664	3.5296242496874997
O	0.23960034572916644	2.9130485916666666	2.3153876896875
O	1.2518921357291664	3.6966446616666664	2.2874137896874998
O	2.1522899257291663	3.0933393716666666	1.6141548396874998
O	1.7007311357291663	2.1283333506666664	0.7923170946874998
O	0.48873026572916656	2.4178802316666665	0.30078682968749976
O	-0.3909441262708335	2.876814651666667	1.1191218416874997
O	-0.7202549822708335	1.2058440850666665	4.123807409687499
O	1.6119371457291667	1.3299243986666665	3.8959807396875
O	2.2247153757291667	0.23947267466666655	4.1176480796875
O	2.2115495957291667	-0.12193191833333339	5.5002244396875
O	2.5907625157291663	-0.8261463683333334	3.3903644296874997
O	3.965098795729167	-0.8900057183333334	3.8871435596875
O	1.4964977557291665	2.1222113836666665	5.161952849687499
O	3.7841477557291667	2.1772224516666663	5.2208212096875
O	4.377649645729166	1.9276030836666664	3.9440033196875
O	3.8525886257291666	2.6638424616666665	2.9718145296875
O	3.8649041157291664	1.7873727486666664	1.9859447796874998
O	3.4506235357291666	0.8304318366666665	1.1157962306874998
O	-5.748680354270833	8.639413941666668	-7.8600498503125005
O	-3.6571294642708336	5.450369891666666	-7.7377198203125
O	-0.13874671927083349	5.124131001666666	-9.0124691803125
O	1.5102368257291663	3.326409561666667	-6.3301099603125
O	5.140528635729167	2.3162891116666664	-6.4600147603125
O	3.453328155729167	4.220561121666667	-2.0276412503125
O	4.372398715729167	9.681027321666667	-0.31882980231250024
O	1.4077349057291664	11.040261451666666	-1.9798760203125
O	-1.6893488212708334	10.988840161666666	0.2785502976874998
O	2.0144183657291665	8.914648881666666	9.2958819696875
O	-0.6285504852708335	2.4599828716666665	9.4576446996875
O	-1.8631061012708336	-1.1913205483333333	10.0024656896875
O	-7.847133784270833	9.073651021666667	6.1805724796875
O	-6.276364104270833	7.2509822816666665	3.3514713796874998
O	-8.267456944270833	4.671538291666667	1.9641921596874998
O	-7.782265194270833	6.2839002016666665	-1.5367968603125002
O	-5.907960374270834	8.913409701666668	-3.2099495203125
O	-2.4648712342708334	7.742190721666666	-3.9386692603125004
O	0.3571471257291665	9.072811761666667	-5.9511941903125
O	3.436755565729167	7.749213831666666	-4.326161360312501
O	7.095055695729167	7.832097671666666	-5.511963330312501
O	5.680945845729166	12.495822661666667	-7.3080741703125005
O	10.623681305729168	-8.085690018333334	-1.8509359403125
O	8.985894605729166	-4.718998018333334	-2.8646865403125004
O	7.5055912657291675	-4.258052068333334	-6.2814659703125
O	4.242827325729166	-2.5949705283333335	-5.3537168403125
O	1.9112063657291665	-1.3510491283333332	-8.0652758103125
O	-0.4995642392708335	-3.7832380583333336	-4.184808710312501
O	-2.082893004270834	-9.299715838333334	-4.3062097803125
O	1.2512308057291666	-10.480010038333333	-3.0875078703125003
O	1.7381145957291664	-10.649160138333334	0.6526915136874998
O	-8.381539474270834	-10.206442538333334	6.2675867596875
O	-6.465776124270834	-7.590861038333333	4.3982980496875
O	-5.256147004270833	0.06058039166666651	4.7803608196875
O	-4.6559166542708335	3.283818131666666	6.4951455796875
O	-5.125655574270834	2.1604945416666665	10.0557762496875
O	-6.965424254270834	-0.9594228383333336	9.4723386496875
O	-6.684682174270833	-4.673244538333334	8.7930559996875
O	-4.547573544270834	-7.733133418333333	9.478480569687498
O	-5.282860564270834	-11.463795038333334	9.3933609696875
O	3.5782975657291662	-8.293870148333333	7.3602524496875
O	6.863941695729167	-6.535545488333334	7.8593988696874995
O	7.728381545729167	-6.579459108333333	4.121706769687499
O	7.467324745729167	-8.962680038333334	1.3215369446874998
O	5.238352445729166	-7.376202308333333	-1.3023252803125003
O	4.933146905729167	-8.242997698333333	-4.8568506803125
O	1.5462954157291664	-6.989207808333333	-5.8982699103125
O	0.13680976572916648	-6.733380138333334	-9.419196200312498
