55

O	22.139936207421016	1.6291539877952752	20.150045443025707
O	20.96355177961562	-0.3441539259763853	17.01848087658201
O	20.64768484504492	-2.7536881306774887	15.509756940269153
O	21.062497442106416	-2.593638012775095	18.660504662689107
O	19.86456196704741	-0.7666589185538423	19.72297605431481
O	23.80408982744958	-0.8715208393938504	18.263485702356835
O	18.767646345586677	-0.877163575757993	20.447964112662827
O	21.270380808656814	2.6233727424281597	20.694152035643246
O	19.588282102210005	-0.15087549022069902	16.54274008450052
O	20.80107181929083	-3.1191595283064086	14.093257388284414
O	20.095779055035234	-3.469763075485214	18.85361021392331
O	24.622828402433875	-0.2818720343561103	19.00649524278051
O	19.31749645141462	-0.7173162466946621	21.77570918418622
O	18.91109460762253	-1.400729737441628	16.800038418828144
O	20.759391693935427	-4.570732749152055	14.256437256771799
O	24.554941515418204	-0.6058199526873784	20.405205654351974
O	19.41540904903383	-3.546577864929187	19.980598951290514
O	20.108894658214226	-4.637554172437436	18.051390536090704
O	22.148842288276455	2.9582685442029755	21.72250112867123
O	20.791724827438987	3.425459682930626	19.6211341358565
O	20.508296715082245	-1.3202128123380061	22.157168251679035
O	18.36656837489346	-2.5016020706357	16.3659560575125
O	21.89126781597737	-4.99336585401122	14.981125391052402
O	24.572285296445465	0.40050844789612916	21.26092133642591
O	19.47858100234272	0.617563546312742	22.017157088103243
O	18.087515918400612	-1.076468479903936	17.830225756832125
O	19.75210758901811	-4.9613068226234445	15.09337926566987
O	24.112921783238015	-1.7751393096449812	20.86143062334349
O	20.80803421581752	-0.9510007409553207	23.47516698374499
O	17.577903798171878	-3.4574577069707653	16.917971306222388
O	21.915756241117272	-6.247627285622524	15.498725538369884
O	24.06317200286781	0.37017895351079066	22.50868571686037
O	19.939730415177348	1.0862210335260525	23.208063710387254
O	17.151099780531936	-1.8433337600072761	18.46340194603256
O	19.620198492786578	-6.209703164984075	15.557023658431792
O	23.747412685330886	-1.9382219009209525	22.150210049050788
O	20.961702334193625	0.37888398033596316	23.74801454041097
O	17.03974785246556	-3.119114267077479	18.095909167623876
O	20.75373236915968	-6.911908051792539	15.445827371730493
O	23.858333755310486	-0.881412501001618	22.96040004186498
O	21.408653310456074	-1.4026133777589183	15.861669684812924
O	22.942045591024065	-2.02971827405795	15.61171102693131
O	20.354072855705017	0.41144053949857207	19.88051130839556
O	19.633503445615133	1.309562803927735	19.404568565780448
O	21.708460631263666	1.429629920919923	18.682345484613947
O	21.644650377066924	0.41120911032055774	20.5259233127954
O	22.89118180259147	1.4842945291710887	18.76779762095694
O	21.353925580006802	0.38897616180917693	17.939025238288743
O	21.39247472041386	-0.6381507494179737	14.684521611410137
O	21.053499290684858	-3.7283324475219572	16.407672558302053
O	21.737887780764165	-3.195862232946306	17.427105217908238
O	22.043403485289815	-2.3719523928271897	19.47166656700544
O	22.28598321899119	-4.21478459396642	17.838943681470084
O	23.202373171790477	-1.943563297537687	18.845918250141366
O	23.75161781819494	-2.6646919155047213	18.036635739739708
