80

O	20.891746473203256	-5.169590082386893	11.740785850435444
O	22.921115846128423	-5.616897313839035	13.159124631570155
O	21.350313588709376	-6.356699481608347	13.061805374932991
O	21.711075621976605	-4.86158865108054	12.846856237723953
O	21.84699811195972	-3.483794553778057	13.459017249913096
O	21.02163423558212	-2.4451291506978112	12.851824045858258
O	21.022551315521678	-2.4437455573477913	12.852385380695356
O	22.907704784010292	-2.4453409642025816	14.192405062625674
O	22.734258690233304	-2.5879723507406878	15.524557627925152
O	23.381933280073756	-3.4066671524242897	16.370303647135152
O	22.581110885750427	-4.050065893382206	17.31552784532458
O	23.09339383156601	-4.205434140491324	18.544601445670008
O	22.301132526570644	-4.673090190759841	19.55358314700288
O	21.289862468503102	-5.4549127586856665	19.14823307306527
O	21.13801054016514	-5.687358093148111	17.8340479345626
O	20.26957313577299	-6.532280948950066	17.23807156335034
O	20.7300654565408	-7.3310441284696	16.227364975810527
O	21.9699434946588	-7.202311327724799	15.801608849115782
O	22.424615978288315	-5.949932195839679	16.064147284454013
O	21.83279963454359	-5.04401129940469	16.92030265536814
O	21.617119083340373	-3.2063942476651732	15.750517291165094
O	20.967891384708025	-3.8530262156674713	15.018944967269533
O	20.717441573017457	-3.7380871601670203	15.0749253812954
O	19.531182592314256	-4.243961577124708	15.591725443541803
O	19.174699678159236	-4.84284591021418	14.575802745734148
O	19.21145737059179	-6.135683584544253	14.12672118197474
O	18.539096009503773	-4.035095917170717	13.6711749121602
O	19.3038350778485	-2.9127869160714512	15.93588468826049
O	18.33858045860823	-2.5142787566567337	16.49449600811712
O	20.332475909813375	-1.9328958605274766	15.753963268193255
O	20.46616029597362	-1.1587772581702722	16.650491054024343
O	20.75865536799102	-1.9864559781327424	17.524321346557056
O	19.932234958545255	-2.865119112847676	18.01001537595842
O	18.945764387923642	-3.602136142830668	17.751651130051147
O	18.248113111707074	-4.267835969877558	18.627655834928728
O	18.208308207377353	-3.656642301849356	19.834980575566455
O	19.439806820079394	-3.4444352872822748	20.21914521062131
O	20.131037779443258	-2.8583434987211778	19.27103302832997
O	19.51673919299629	-0.5509034960278598	15.80859670218257
O	19.15167499944881	-1.127157551908777	14.753641642053053
O	20.711678966836597	0.180735722287092	15.50927155300696
O	21.420491659350922	-0.369049475243038	14.680042739869142
O	21.37182435297374	-0.152489318644208	16.693900485138826
O	22.6145608448961	-0.30667186326099527	16.69576044238512
O	22.770923463550044	-0.9315332080390233	17.9615790399059
O	24.00326698813201	-1.0457042945605295	18.08459115017491
O	24.54501317532201	-1.052409352502041	19.33669736782947
O	24.400960395649417	-2.2291063913395925	19.881149029713892
O	23.107888260117257	-2.391901584223419	19.794643890873555
O	22.557776907573945	-1.6161800401630317	18.953895005287492
O	20.497365881638903	0.6938194657032228	17.125484549668634
O	19.55311073762474	-0.0038892524866807054	17.886989312924683
O	18.646072476664454	0.6231313877230111	17.711961982898615
O	19.505087119819493	-0.8908432270616153	19.01039277375668
O	18.39117084378828	-0.42034931536023223	19.352088093097016
O	17.450825594727547	-0.9716282113950137	18.406903428099014
O	18.207297718452935	0.8638554260992866	19.799476845668053
O	20.65040305991297	-0.31172631181821986	19.29635308218718
O	20.67539787697882	0.9599880976156514	19.2462867388031
O	19.686920491724102	1.2792636610058026	19.58392618947321
O	22.007334422378264	1.2384036993192538	18.98579334175373
O	22.33309204126424	1.4404266236366052	20.236782519739393
O	22.04952337821038	0.32225372151585385	20.931632600187868
O	23.16492832167621	0.1632485670673478	21.696110822398587
O	23.199398206094305	-0.9470004504780885	22.447818625113108
O	22.19084425393736	-1.895338395653252	22.196591340673457
O	20.9973687821235	-1.3705635442796773	21.92080824198345
O	19.774379864037638	-1.841474453531032	22.218034671744373
O	18.76112032535714	-1.017973211813288	22.428188097398746
O	19.172049396141496	0.24137685368561157	22.852847695845085
O	20.237525715920626	0.6664730141718904	22.21204205235116
O	20.93545833086475	-0.14076582688167716	21.355121391907147
O	22.15701631596695	2.412865700136596	18.301881993837505
O	20.662305491634896	2.9326472879859002	18.982984792580993
O	19.66248960875842	3.066813580033374	17.953437555173178
O	21.284541681507385	3.3418836973545725	17.692400984521633
O	20.716740372271452	3.1794543393080863	20.355870045080287
O	19.47378469094623	3.7777796483685817	21.040702313258958
O	21.855253154873665	4.126151103054393	20.74672596923835
O	21.012932305074017	3.135243435189695	21.872307905134694
