87

O	-0.7954815008164009	5.0540317175639995	-1.6511773986199993
O	-1.2053008768164009	3.702974927564	-1.8845755946199994
O	-0.39425990381640086	2.905552707564	-1.1554058651899994
O	0.8996791861835991	2.587303037564	-1.3730609386199994
O	1.458821856183599	1.641831737564	-0.5787015616199994
O	0.7163652661835991	1.109833751564	0.3863180913800006
O	-0.21367603581640093	1.927150607564	0.8886598113800004
O	-0.41881356981640094	3.096978157564	0.22913001138000055
O	0.6759543961835992	-0.5002262284360002	0.9952614513800004
O	0.5479032661835992	-0.7576656234360002	2.3753395813800005
O	1.837472156183599	-1.0266417824360001	0.3306271213800005
O	-0.9677538558164009	-0.9301208124360001	0.6093060113800006
O	-1.6040878528164009	0.15472241814399987	1.2062361613800008
O	-2.746147843816401	0.35521464956399984	0.4131479713800006
O	-2.843954463816401	1.2014357575639998	-0.7250953466199994
O	-3.1103976138164007	-1.0140927424360002	-0.2085456866199994
O	-1.1299017958164008	-0.33394966643600016	-0.7944384836199994
O	0.2234502461835992	-0.6326829534360001	-1.2100363234199993
O	0.2263578461835991	-0.11978119543600013	-2.4494206586199994
O	-0.008402143816400809	-2.028643122436	-0.9557477596199995
O	-0.8706931758164009	-2.515541432436	-1.9063523846199995
O	-0.7294581748164009	-1.973276612436	-3.1610606286199996
O	0.3723096661835992	-2.616251072436	-3.7826861886199996
O	-1.7402708148164008	-1.2997207224360001	-3.2861194386199992
O	1.709931736183599	-2.253006942436	-3.9319831486199996
O	2.663758526183599	-3.0614504124360002	-4.4602764186199995
O	2.350429216183599	-4.402992362436001	-4.25280246862
O	1.086428116183599	-4.727891442436	-4.7554631686199995
O	0.10790193618359911	-3.8569284624360005	-4.360472788619999
O	0.705963086183599	-6.000950722436	-5.11288114862
O	-0.36194689881640085	-2.8917486224360003	0.15251710138000063
O	0.9677921461835992	-4.406605702436	-1.1008862626199993
O	1.1082544861835992	-5.727251202436	-1.5189885526199993
O	-0.006957213816400909	-6.320817862436	-2.0120385696199996
O	-1.183714567816401	-5.635104272436	-1.9831088526199996
O	-1.256023326816401	-4.479639512436	-1.2730370066199994
O	-0.23914864481640086	-4.227927322436	-0.41823269461999946
O	11.4734552761836	6.410613737564	2.416076231380001
O	8.1965729861836	5.524300027564	4.1102766313800005
O	7.8183484161836	2.9641549775639997	6.874888261380001
O	4.9139358861836	0.9759560895639998	5.741772311380001
O	3.492997146183599	-1.8941509124360003	7.83088912138
O	3.829172716183599	-3.2728871924360003	2.6504848713800007
O	7.928748146183599	-5.682151042436	0.25931529138000053
O	10.3826985761836	-2.920591852436	0.06804899138000065
O	10.0738249761836	-1.0018577524360002	-3.2091222086199993
O	4.2629486161836	-7.495110342436	-8.09354127862
O	-1.018432272426401	-3.5655926724360003	-7.867362078619999
O	-4.2440340438164	-1.686943632436	-8.22074507862
O	-6.089749723816402	-3.0615392524360003	-11.10960703862
O	3.3473621161835987	-4.3966005324360005	-12.411801068619999
O	7.221480866183599	2.510660917564	-10.472574548619999
O	6.209888236183598	2.9772132075639997	-6.911993008619999
O	4.5878468161836	6.225505887564	-6.014040738619999
O	7.1352758761836	6.608966007564	-3.1468333486199995
O	10.0313594761836	4.744335497564	-1.6595036176199995
O	8.6426373861836	2.2581415475639997	0.8027643213800006
O	10.1969767761836	0.10981391186399986	3.4538126913800005
O	7.9801216261836	-2.9256340824360003	3.8459230413800007
O	7.877165696183599	-5.724161622436	6.406313411380001
O	10.7431673761836	-7.674126282436	4.93112842138
O	10.968035876183599	-3.6488293924360002	9.04479283138
O	-8.489384373816401	-5.475647862436	8.976343531380001
O	-4.782602383816401	-4.606797652436	8.31671287138
O	-3.0828298938164007	-1.9810599624360004	10.479508131380001
O	-1.3114543728164008	0.02982052856399986	7.753654881380001
O	1.1307829761835992	2.865205417564	8.67378586138
O	-2.065308323816401	4.0780403375639995	4.466240461380001
O	-6.764168023816401	6.892979277564	4.857035081380001
O	-8.8835828238164	3.915005277564	5.914246921380001
O	-10.4599474238164	1.8558001875639998	3.1577936613800004
O	-7.5358788238164	6.634908677564	-4.555872858619999
O	-1.0134646493864008	3.186353447564	-6.035431998619999
O	1.3594714161835992	1.1760316175639998	-7.807525868619999
O	-0.7773414598164009	0.11970101506399985	-10.72527454862
O	-3.204706043816401	2.918238977564	-10.57944196862
O	-6.421079873816401	4.025272057564	-8.93962383862
O	-9.8499840838164	2.8594961475639997	-7.899342858619999
O	-13.0932273238164	4.661679347564	-7.2607086786199995
O	-13.4518221238164	-2.7369907324360003	-4.246492708619999
O	-10.4976757738164	-3.450292932436	-2.1340925726199993
O	-9.4016549838164	-6.986371442436	-1.3576936546199994
O	-8.4722603538164	-6.042991672436	2.226301641380001
O	-9.9400387538164	-3.8644343524360005	4.9885867713800005
O	-7.2370834838164	-1.222299952436	5.719267981380001
O	-6.8417265738164	0.8330644945639999	8.79847709138
O	-4.874837293816401	3.955804507564	7.8941842513800005
