88

O	-0.3551408670930244	1.676132279767442	3.3296375586976743
O	1.5844639879069755	0.7533010057674421	3.9095408686976745
O	2.2838274179069753	1.917509483767442	-2.9269518813023256
O	-1.5504275800930243	0.9402466367674421	2.8541692086976744
O	-0.2381629090930244	4.880318140767442	0.19630558369767448
O	-0.8253713608930244	-2.9744915992325582	4.6569194986976745
O	-1.8285072240930242	0.059756770767442235	3.9621485986976746
O	-0.3393451640930244	0.8071011587674422	-0.0939237073023255
O	1.9572159879069757	1.2783477924674422	2.6519952286976745
O	0.1219629079069755	4.161748680767442	1.4299954986976744
O	0.5378071479069757	2.966119330767442	1.8528798386976746
O	0.7287310879069755	1.890700944767442	2.3538408686976746
O	1.2433139179069757	4.613805720767442	1.2996267986976746
O	-1.3731092490930243	4.467904760767443	-0.4288600213023255
O	-1.9454328120930244	3.348627020767442	1.2488404486976745
O	-1.4778928920930245	3.0886874407674423	0.011232253697674499
O	1.0837095779069756	-0.8342092792325579	-1.2420958113023255
O	-1.6049547550930243	4.711729010767442	-1.9046816113023255
O	2.3181430179069755	0.054525490767442175	0.2400640606976745
O	-0.3502653970930244	4.267481330767442	-2.5199083413023255
O	-0.5827852850930244	0.010543690767442104	4.558794848697675
O	-0.5211693530930244	2.986769630767442	-2.2624429213023256
O	0.6268028479069756	4.925425100767442	-1.8726576913023254
O	0.5744826679069757	2.431897390767442	-1.8461876513023254
O	1.7805946279069758	4.2689431007674425	-1.5944873113023255
O	1.4276725079069756	3.083871500767442	-1.0547434963023254
O	-1.1147070430930244	1.8324030197674421	0.12001275069767453
O	-1.1472438350930245	-0.15799192923255778	-0.6416499593023255
O	-2.3697424020930242	0.47563600076744217	-0.8129463583023255
O	0.5255188079069757	-1.198225109232558	1.2527544586976744
O	-0.6450282730930244	-1.6847316292325578	1.2960097886976745
O	-0.9678782093930244	-2.360748819232558	2.4142807886976745
O	-0.22174282409302437	-2.746037579232558	3.4700736386976745
O	1.0403235279069756	-2.3479208792325577	3.2658783186976743
O	1.3841953779069758	-1.780800579232558	2.0710407886976747
O	-2.8932371820930243	0.45535151976744215	0.5565799736976745
O	-2.9273740420930245	1.6622592727674421	-1.3373020613023254
O	-0.16269055809302435	-2.836304469232558	5.851285528697675
O	0.3111418879069756	0.42997917576744216	3.6579533286976744
O	2.2401267279069756	2.449020330767442	-0.2522930120023255
O	2.7397916379069756	1.7466048197674422	-1.2770706863023253
O	1.3460603379069755	0.9041287007674421	-3.2889022313023255
O	2.1150035779069754	3.170762300767442	-3.9647281113023256
O	2.1221291379069758	3.1750315907674422	-3.9603239113023254
O	0.9049573779069755	-0.15459573923255787	0.022923620697674507
O	11.865693197906975	2.725824560767442	-4.070107811302325
O	8.723340097906975	1.018085886767442	-5.2814064913023255
O	8.216945377906976	-2.656835679232558	-6.038739811302325
O	5.094221827906975	-3.4227635892325576	-4.225905451302325
O	3.477433007906975	-6.791151629232558	-4.121232071302325
O	3.5093740779069753	-4.307227889232558	0.5345822786976745
O	7.420824227906975	-5.552565209232558	4.468952508697675
O	9.894727797906976	-3.142997889232558	3.1399527986976743
O	9.472274797906975	0.28180075076744204	4.651215128697674
O	3.1981637779069754	-1.5863405792325578	11.852795318697673
O	-1.6552728230930245	1.4855474987674422	8.757202438697675
O	-4.834589782093024	3.2599340107674424	7.735574548697675
O	6.6563336079069755	7.441619010767442	8.259608148697673
O	5.911536387906976	5.731181300767442	5.053612768697675
O	4.553134067906975	7.7825815907674425	2.3635351886976745
O	7.323838847906975	6.251624300767442	0.1370236616976745
O	10.092439897906976	3.8801173107674423	0.057892784697674504
O	8.693067307906976	0.49888411676744215	-0.6319664773023255
O	10.101207497906975	-2.815824909232558	-1.3546318213023254
O	7.688749597906975	-5.271685539232558	-0.0843322873023255
O	-8.549577612093024	-10.263244009232558	-3.5933262513023254
O	-4.864560172093024	-9.199172009232559	-3.4369021213023254
O	-2.884567422093024	-8.439911169232559	-6.527885061302325
O	-1.1534905920930245	-5.269815249232558	-5.597136941302326
O	1.5017045479069757	-3.7355750492325575	-7.915351061302325
O	-1.9110912920930243	-0.10572146923255787	-5.565744681302325
O	-6.426373632093025	1.9080556177674421	-7.863479881302325
O	-8.675489802093024	-1.0810659892325578	-7.110689061302326
O	-10.767883332093025	9.987239000767442	0.28551387769767456
O	-7.946945862093025	7.613323530767442	-0.1008976513023255
O	-1.4584919170930244	6.193721850767442	3.5514614486976743
O	0.8765019279069757	5.2288994007674425	6.199599128697675
O	-1.4206141860930244	6.055858220767442	8.940781388697676
O	-3.8278772520930247	8.241411730767442	7.273314588697675
O	-7.0124089720930245	8.311467040767443	5.144452848697674
O	-10.395799762093025	6.655615890767442	4.781513888697675
O	-10.912579402093025	-1.678061489232558	3.6371426486976746
O	-9.869466252093025	-4.8796402392325575	5.2597654186976746
O	-8.794898442093023	-6.408584569232558	1.9793274486976746
O	-7.240808622093025	-4.929277239232558	-3.6017767713023257
O	-6.600801032093025	-5.256767539232558	-7.284335561302325
O	-4.472672792093024	-2.239047549232558	-8.237443311302325
O	-2.595250922093024	-1.5195161392325578	-11.421529681302324
