41

O	19.66187550491179	-5.40007887320907	15.789638567617493
O	22.564720459078195	1.939516248393137	20.080897582778988
O	21.347017022340115	-5.829660031352839	14.473400306594932
O	20.946380404909807	-5.955921745576823	15.82181182885393
O	20.4220714137841	2.775528016170895	20.06971836090917
O	21.573363559150035	2.549938329718917	20.76099605248215
O	19.261321819389412	-2.2945333794614595	16.642665417076525
O	21.225469846284334	-2.007914426723071	14.887018331547766
O	20.79730707512759	0.40320887378098624	16.91435377439547
O	20.74317792102072	-1.0543116057326065	13.93171937856834
O	19.844670364973865	0.8282244597552708	15.964696898404595
O	19.06207884321907	-3.102661088520757	17.849373357266522
O	17.78315100616766	-2.8845754129710874	18.15690109863618
O	19.843143090910882	-3.7386096239973545	18.729649856070115
O	19.70331656465821	-4.0621755192836115	15.322853071841948
O	22.157490790142404	1.3120465537644574	18.883043504550944
O	21.371770656703717	-4.498685656065078	13.964743697566712
O	20.16658722251844	2.0376394218749225	18.87044781915412
O	22.297580010287028	-3.2039081214047105	17.034922833356802
O	23.179829876478426	-2.088578565981325	17.13634047785528
O	21.101083559989483	-2.519725416884607	17.193534543788513
O	21.32509260570578	-1.475156081805273	18.208917131359183
O	22.72889838786084	-1.1399866412763067	18.034273091147394
O	20.717631624189842	-3.554614343641258	14.610596237490071
O	21.122958889061064	1.6020362954454601	18.06986260701384
O	20.448834928638945	-1.6916214936319651	16.277453868602635
O	17.326141094049245	-3.12837766857869	19.409152229101302
O	19.418402299405212	-3.5948518284402193	20.048663513603135
O	18.252150199825273	-2.912555470115895	20.382887350164374
O	20.197256077616856	-0.7160732374059743	17.969158410472332
O	19.666095326878864	-0.26183705083810693	19.120358447734255
O	20.511437478864995	-0.5696500069497165	20.261426433670024
O	19.882459918770824	-0.1973311465423604	21.39784502840809
O	20.594062762267416	-0.11139621175773495	22.563501508677483
O	21.970660240892236	-0.27160344180589924	22.403328366573426
O	21.58509575389817	-1.384775302769214	20.452650333537036
O	22.515351875671634	-1.0692558056303936	21.40175353703436
O	22.130446016894705	0.2251201116682593	16.340647485927825
O	22.65110866785608	-2.024108325109447	14.734889001665945
O	20.937464643999522	-7.330881226283077	16.250665532729375
O	21.78259624007492	2.8633868670201514	22.13646901385357
