85

O	-1.378266858317778	4.603941255688889	-1.3051855328222222
O	-1.1070684683177778	3.8797135356888885	-2.420379591822222
O	-1.3579810103177778	2.5553752956888887	-2.6242337818222223
O	-1.4442699063177777	1.8228148666888888	-1.575849385822222
O	-2.231610166317778	2.4852485056888884	-0.7042255078222222
O	-2.085182676317778	3.8544452356888885	-0.44852861182222203
O	-1.367144936317778	0.20224888568888866	-2.061465649822222
O	-1.2833594933177779	-0.3599429643111114	-3.374944251822222
O	-2.6642136263177782	-0.24338594431111127	-1.588739464822222
O	-0.3757100512177779	-0.6300109443111115	-1.003204290822222
O	-0.6654869933177778	-1.8574211443111115	-1.3031478788222222
O	0.2591887276822222	-1.9859456443111112	-2.3859993118222222
O	1.5056367836822222	-2.2100508843111113	-1.649112079822222
O	0.22526496868222218	-2.6390700043111113	-3.5828895718222222
O	-0.7347587643177779	-0.09715790431111127	0.15648820817777787
O	-0.3794889386177779	1.2878134526888887	-0.03212075182222218
O	0.7501431036822221	1.2755061426888887	-0.35112714182222204
O	-0.6200664473177779	2.2499638746888886	1.1439583981777781
O	0.3259234306822221	3.157762805688889	1.1271263881777778
O	1.1719757336822223	3.3276601556888887	0.013134038177778029
O	1.2845628136822222	4.403554225688889	0.433803878177778
O	1.2130070336822223	3.3031328356888885	-1.2584011723222222
O	2.165800043682222	3.0833158356888886	-2.132698390822222
O	2.724279263682222	1.8581441246888888	-1.502610180822222
O	2.107063213682222	0.6462816866888887	-1.947518394822222
O	3.013753063682222	-0.04409932431111119	-2.688124011822222
O	3.190760253682222	1.0041711306888887	-3.703832401822222
O	1.7012504236822223	0.27061783568888864	-4.097254961822222
O	1.2343478836822221	0.9554401786888886	-3.0092407518222224
O	1.4267785836822222	2.357396122688889	-3.1831935918222225
O	-0.45196822331777786	1.0748013726888888	1.9329464881777778
O	1.6219616436822222	-0.3410693943111114	1.138299108177778
O	2.930081173682222	-0.4475568343111114	0.9094198481777778
O	3.6048345536822217	0.6600022696888888	1.2141941381777779
O	3.061912833682222	1.7289955996888886	1.7780594081777779
O	1.734781333682222	1.7061390316888887	1.9827113781777779
O	0.9591743636822221	0.7670116206888887	1.472413498177778
O	-0.7651207983177779	5.746336265688889	-0.9011271088222221
O	0.1881397576822222	6.246813755688889	-1.775256493822222
O	2.206133663682222	-0.8638844343111112	-4.605532911822222
O	-6.592630026317778	-1.1338697543111111	-10.887234511822221
O	-5.879321236317778	-2.9128185043111112	-7.657417191822223
O	-8.535459636317778	-3.6336693843111116	-5.011592781822222
O	-6.809064346317777	-2.627339134311111	-1.923642555822222
O	-8.126885876317779	-2.864096444311111	1.565508698177778
O	-5.620396796317777	1.9118681876888888	1.015333198177778
O	-8.252433056317779	6.412873825688889	-0.6765695088222221
O	-8.633759356317778	5.682457385688888	-4.3621709818222225
O	-5.6131578963177775	7.005185895688889	-6.378565691822223
O	-1.1593124123177778	12.313007675688889	1.287526888177778
O	3.882279673682222	8.061370805688888	1.6728754481777781
O	7.214005703682222	6.3937416256888895	2.4654981581777777
O	2.454263563682222	9.53795010568889	-8.598092531822221
O	1.1408233836822221	6.258710365688888	-7.479762441822222
O	2.969063473682222	3.1393173556888887	-8.310056641822221
O	-0.36438422001777787	1.6875847296888886	-9.642923081822222
O	-3.920744986317778	2.4468854856888886	-9.755057861822221
O	-5.729483426317778	1.5958156256888887	-6.633130091822222
O	-9.248255946317778	1.3231216976888887	-5.450489721822223
O	-9.191032146317777	2.0698775106888885	-1.750254838822222
O	-11.791066196317777	1.8137342466888886	0.997420628177778
O	-2.403070566317778	-5.657269384311112	12.268637638177779
O	-4.074997276317778	-4.4630313043111105	9.02246973817778
O	-5.424396556317777	-6.98211142431111	6.536667798177778
O	-4.101455886317778	-5.588210204311112	3.271823318177778
O	-5.173696966317777	-7.109562044311112	-0.042177181822222076
O	0.13636950168222212	-5.763467864311112	0.15283255817777786
O	4.165282983682222	-9.328294224311112	1.4894529681777777
O	3.638417353682222	-9.11235642431111	5.262336248177777
O	14.148027803682222	-2.8382587843111113	0.21208256817777782
O	10.430845403682222	-2.371206764311111	-0.18873047482222205
O	5.828462543682223	2.8514612056888886	-2.6036744218222223
O	4.348077723682223	6.292157885688889	-3.2129150718222217
O	7.046716673682222	8.267778805688888	-1.7048606638222221
O	9.843864503682223	5.819361955688889	-2.002890261822222
O	11.460348503682223	2.8430650856888886	-0.22718079682222203
O	12.464946303682222	1.5734412976888887	3.155789458177778
O	14.970435803682223	-0.9921769043111115	4.333865788177778
O	6.816067023682223	0.6554972436888887	9.555900738177778
O	4.039709073682222	2.5470762056888887	11.372629238177778
O	1.588740283682222	-0.35627323431111124	10.991327838177778
O	0.5606363676822221	-5.375175354311111	7.679594048177777
O	-0.7849821413177779	-8.718167224311111	6.707853068177777
O	-0.19704518931777787	-9.04730832431111	2.9447852081777777
O	-1.5203515063177777	-11.62867952431111	0.537178068177778
