54

O	23.214719750773593	-2.799652055652455	16.796162926922104
O	21.937488946283754	-3.155306211064297	17.10501600233871
O	21.506397791563415	-2.9891033074741307	18.332311237932753
O	22.411533938138742	-2.3636587435095437	19.05153544193319
O	22.798621659082198	-3.6050282886921594	18.72695492175863
O	23.649986320892552	-3.7708302299048526	17.57631337987805
O	18.67237738306067	-2.431440391180958	16.70828590812624
O	18.727961649421637	-3.464153737247377	17.486723619405936
O	19.223868467019898	-3.2147200427760243	18.692441192608634
O	19.55039461036495	-1.9585516125848828	19.100697806158422
O	18.756110374686443	-1.0956671557996547	18.61016349348436
O	18.560236040276568	-1.2403569530686687	17.323930775603394
O	19.05602873389574	-2.0345079276755103	15.409299539696041
O	20.22966497457044	-1.5212215868522996	15.53398358387992
O	20.70966038043291	-1.96317969381446	14.341499687678997
O	22.1450960082778	-1.7301898251355914	14.485228856493706
O	21.800708131084157	-0.9315443590504437	15.478275964147812
O	21.975965356104844	-0.911098825920502	16.751639608608762
O	21.33918858030806	0.16680611410498414	17.357776878448412
O	20.522269236435744	0.9288942172466905	16.93167371496977
O	21.62045299613129	0.25944410426761566	18.598428777402923
O	21.201133853993905	1.0150261029986067	19.551149260538136
O	20.60847244786598	2.073564860576897	18.740813935429166
O	19.196063316786372	1.8045128071046763	18.85084726702469
O	20.73332561742615	3.161525551320735	19.70064259003954
O	22.11395101805827	1.4578707839876586	20.51957381012312
O	23.28538348998371	1.4424657088191095	20.17497829870359
O	22.15152435205565	1.665367064749537	21.852003501750715
O	23.020227290822888	1.2332366542186053	22.85869929295003
O	23.298477213588832	-0.5562876509142014	16.838660018424253
O	23.75906085729284	-1.6440388774260077	16.169083246142655
O	21.224534629065005	0.23683162727467733	15.099161080472507
O	22.795291592603334	-2.7567829822323615	14.022067061222586
O	20.563224275867917	-3.3307037720867916	14.660996581791485
O	19.52935899581982	-3.957473611031869	14.687242044433393
O	21.501124879522198	-4.041122849520297	15.144078721654212
O	21.788943287381976	-5.1946491479059835	14.529253520265355
O	21.215817224517274	-5.434499033877026	13.2628334503002
O	20.059397374104705	-6.311618346918114	13.377285609771766
O	20.729195031511775	-4.3470902214048115	12.487400395731285
O	21.1397047507134	-6.011608493887128	15.53345469795645
O	20.32273749107921	-5.703964548802119	16.39622772297947
O	22.363990949198463	-6.311173670551002	16.267515881085135
O	22.325113859907404	-7.729685103628636	16.625693223017162
O	24.288684300870372	-1.7780603983420697	22.18944050063811
O	25.249714821665215	-1.461407380517912	20.84330131440344
O	24.395276354460535	-1.1219969146382545	19.779969106508418
O	23.096603063915857	-1.5348007736340066	19.896135912522055
O	22.94554040553802	-1.5273027236515997	21.204103734657355
O	20.147514246988315	-1.943997804449889	22.80171492979184
O	20.08654975296126	-2.6162468913971657	21.223787591332744
O	19.834307043956553	-1.5789884088321529	20.43668762494906
O	19.81080938862646	-0.4876332765220155	21.127985590334735
O	20.089925786974526	-0.37068490874088833	22.426074655388746
