95

O	-0.5317458417719299	-0.5522110545789467	3.700257821207017
O	-0.8001575647719298	0.2560282404210533	2.8160230512070172
O	-0.45131763177192985	-0.43547437457894667	4.876564891207018
O	0.3207692082280702	-1.7186796245789466	3.2294041912070175
O	-0.7878583477719298	1.1229723340210533	0.7034777952070174
O	-0.47601435177192974	-2.070232594578947	2.162461131207017
O	-1.7171725717719297	-1.5408152045789465	2.1493206812070174
O	-2.5152058447719297	1.5980271034210534	1.8582722512070173
O	-2.73608242177193	-1.6363270545789468	1.2703193212070174
O	1.9699569682280702	-0.8436852845789469	0.8453518372070173
O	-3.9771004317719294	-1.1342850845789467	1.3669727612070173
O	-1.4178728297719299	-0.23663825457894672	-0.33059286679298266
O	-4.30930227177193	-0.7860201645789466	2.6411880912070176
O	-3.4613543917719296	-0.8628810945789467	3.6959630212070174
O	-2.3726628207719296	-1.6959063145789468	3.3917354812070175
O	-0.6070573647719297	1.6064525254210533	2.9391696612070173
O	0.8674610682280701	1.4252129014210533	2.5069506412070175
O	1.41554000822807	2.6899555454210535	2.7633129912070173
O	1.48640104822807	0.6648807574210532	3.516797791207017
O	-1.3596596567719297	1.6319425244210533	1.7028819512070175
O	0.49655852822807023	0.7094938924210533	0.9174163912070175
O	1.2811768182280703	1.2480192143210533	-0.27480287479298265
O	0.6343542082280702	2.498430245421053	-0.34133650479298266
O	0.3613073282280703	3.2533637254210532	0.6630247802070174
O	-0.5163703317719297	4.240740995421053	0.9643972412070174
O	-1.2972198777719297	4.437051545421053	-0.10003443969298265
O	-0.5505607387719298	4.3240744154210535	-1.2174332487929826
O	0.2727519782280703	3.249999535421053	-1.3243708587929826
O	0.8491664882280701	-0.5589565245789467	0.43900816120701736
O	-0.1303682517719298	-0.6525697345789467	-0.47806660679298263
O	-0.4811640817719298	0.20551555542105326	-1.1931572187929826
O	-1.2704567267719298	0.10045650542105333	-2.344261938792983
O	-1.2190180507719297	1.5284049444210532	-2.2387003087929824
O	-2.36195433177193	1.4552718764210533	-1.2939179487929826
O	-3.3066344917719297	2.331405575421053	-0.9953154217929826
O	-3.5343548917719296	3.1870752554210533	-2.0329279787929826
O	-2.6637881617719295	3.240407025421053	-3.0163797087929827
O	-1.9367896207719297	2.1186925394210534	-3.121467508792983
O	-3.57424228177193	-7.7696064645789455	-10.154790118792983
O	-0.7428659507719297	-5.425097374578947	-9.235462158792982
O	2.6677516382280704	-6.639606204578946	-8.035301658792983
O	3.2102970982280707	-4.444138834578947	-5.027313828792983
O	6.501676888228071	-4.633938004578948	-3.1329603087929825
O	2.25707018822807	-4.433187884578947	0.3141803962070174
O	-0.46767520177192967	-8.560590824578947	2.2032437112070173
O	-2.3159157417719296	-9.652231184578946	-0.7908170177929826
O	-5.779650751771929	-8.081915494578947	-1.0497126047929828
O	-8.93599320177193	-5.451172554578946	10.198659581207018
O	-6.1222983717719295	-4.065789934578946	7.947001461207018
O	-5.40555693177193	1.9088125714210533	5.575021251207017
O	-5.30466874177193	5.614854035421054	5.082020651207017
O	-6.890166431771929	7.401676295421053	8.000137501207018
O	-7.694293621771929	4.187288435421053	9.745773071207017
O	-8.38289236177193	0.48097388542105324	9.675471251207018
O	-10.628128591771931	-1.3389067645789465	7.238013781207018
O	-12.604876711771931	-4.637772704578946	7.582061981207017
O	-12.485071811771931	-2.764562934578947	-0.49829171779298265
O	-9.21545808177193	-2.4069406845789465	-2.1517265787929825
O	-8.73513376177193	0.10508047542105325	-4.826609598792983
O	-7.211541501771929	-2.654334254578947	-7.0277634587929825
O	-6.18688113177193	-6.248098354578946	-6.660605648792982
O	-2.7439190817719297	-6.323147184578946	-5.081998888792983
O	-0.21437772177192982	-9.115475684578946	-4.743938308792982
O	1.8250850382280703	-8.237868034578947	-1.6731981087929826
O	4.999594918228071	-9.630613684578947	-0.20517266659298264
O	3.45380669822807	-12.712619784578946	1.3739694712070174
O	2.9823427482280707	-14.233058584578947	-2.0695983387929826
O	5.728769708228071	-12.326547284578947	-3.8945973587929825
O	9.692945588228069	-4.455538594578947	3.6909377412070175
O	12.25040828822807	-3.2887465245789467	1.0562176012070175
O	13.667333188228069	-0.4114460545789467	3.0904277212070173
O	12.529064588228069	4.795190005421054	2.4068826912070174
O	10.466480388228069	1.8832747534210532	0.9577051012070175
O	10.94913468822807	0.8236056564210532	-2.6408099787929826
O	7.35449919822807	0.4483134114210533	-3.7186777087929825
O	6.338357328228071	-0.9334228245789467	-7.096334198792983
O	3.15321720822807	3.2111710554210533	-5.6170050987929825
O	4.125288328228071	8.383103565421054	-6.981352468792982
O	6.841393368228071	9.106815305421053	-4.385152948792983
O	5.5786695682280705	10.333538535421054	-1.0185939607929826
O	-3.7940384617719296	10.949670505421054	-2.718486068792983
O	-5.98908478177193	4.0936110854210535	-0.6216238757929826
O	-7.75955341177193	1.5009444054210532	1.1389180112070174
O	-9.29252598177193	3.6770418154210534	3.7695093012070173
O	-9.40506710177193	6.933196255421054	1.9766711712070175
O	-7.2310858817719295	9.939266955421054	1.1600050012070173
O	-4.750598151771929	12.383062415421053	2.5827240812070174
O	-3.7697514617719294	15.900365515421054	1.5962682412070173
O	2.59420868822807	9.666235575421053	5.713358471207018
O	4.0480894882280705	7.223433285421054	8.175047061207017
O	6.68231179822807	5.985466765421053	5.6706171612070175
O	8.95258378822807	7.509087065421053	3.0289832812070174
O	7.80150190822807	5.802323075421054	-0.23948660179298265
O	9.745417588228069	5.581770075421053	-3.4192721787929825
O	7.236013308228071	5.047201915421054	-6.233173288792982
