41

O	22.300437032482897	-1.1061080762403646	17.773615109229567
O	23.469972650342353	-1.8734069134972904	17.97293372467841
O	21.83601126113314	-3.3944047841328517	17.870625282340264
O	21.221133721344923	-2.5109908035239332	18.53172524726815
O	21.94424011008815	-1.5417304415173851	19.165918363528306
O	24.124154387354263	-0.9732806546954949	17.348698448359567
O	22.710127813371255	-2.696770775568148	17.102549405825112
O	22.658317736277244	-2.366089035981217	20.00436105801024
O	20.71507963136207	-0.22658830128078578	17.545931499946764
O	19.773659582208985	0.6444717874450052	17.60705752642538
O	19.882957852358388	1.6662492371546012	18.448661294325333
O	21.059899096340853	1.678262885689376	19.19381764551781
O	22.140216801391123	1.244847499299026	18.575057451369023
O	21.898048579018845	0.07571718207704414	18.18016285834605
O	21.444176449953467	-0.8414045249446315	16.540835258823446
O	21.337417556850088	-1.5055632274532402	15.433406858900092
O	21.837264956217783	-2.5386938855175023	14.530483254927356
O	22.85809234189987	-1.849533554465178	15.146916056270808
O	21.3722860398494	-4.313935724034778	16.742527793416595
O	20.7913922769625	-5.462338601676406	17.27497117578254
O	20.63789756009637	-6.04156116124198	15.748028485396494
O	20.227367510480946	-3.7480262704029403	15.989453520714541
O	19.567626661955615	-2.9878364645236903	17.025057983232326
O	18.66280770234936	-2.0935060123861566	17.17343954774603
O	18.083154028945405	-1.6608564088588273	18.301332720696212
O	17.978597213148134	-2.648162374871318	19.142778367786757
O	18.808461880467558	-3.6478827839454064	19.19810867227787
O	19.5875993721764	-3.717717043576908	18.149219886994747
O	23.63201202301318	0.5343351820458855	20.16908533221219
O	23.36859301731996	0.17115279736217937	21.50305682782716
O	22.611321239862097	1.4846405801044125	21.885508478242244
O	20.726197417504924	0.45800040432465594	21.03367915168394
O	19.44003539227574	-1.2508878281059712	21.62721920260852
O	20.113853675135907	-2.518642788909534	21.70135990886598
O	17.98899714945574	-1.1226213749529652	21.68811170894792
O	19.7166416630017	-0.5805881239311821	23.021604579049544
O	23.233817437291393	1.509337501322866	19.388822101839615
O	21.620721999302667	1.580223195315625	20.809520974272864
O	24.474127008702865	-0.14652832931117388	19.719301391520318
O	19.964335089586182	1.2490037912021987	21.613701368903335
O	19.925214908914676	-0.5254914218249005	20.539335843995666
