45

O	20.357321830674568	-0.2179910925451427	17.996915085874896
O	19.917255097052774	0.48947173990617254	16.617576349397375
O	18.92477941229344	-0.8808725857539633	16.614375368466774
O	19.507177111502248	-2.0937454413408054	16.224947211298634
O	20.60920282093262	-1.5435234841809877	15.42457511585377
O	21.638252819852077	-1.0480253165267475	16.30058834570843
O	21.654037074756147	-0.5209260472241732	17.654277274241373
O	19.879722144306395	-0.10729320478226101	19.273007938743387
O	20.75276309124816	-0.9369467128750264	20.160605770383754
O	22.077208587301673	-0.953380031572781	19.882695609595785
O	22.946716023254215	-1.9419462893476689	19.59454268326594
O	22.49668445774551	-3.1481931147724014	20.013250225939053
O	21.14976027028553	-3.212200447748084	20.27850367253428
O	20.608991279231734	-2.0559623249452463	20.872528717650447
O	20.74214410180294	0.651882930330703	15.394365384009104
O	21.428833957128504	-3.030635943404558	17.084872775373807
O	21.124562496370036	-3.87269751905382	16.061138140469982
O	19.93068784759173	-4.347624453034736	15.67299689715388
O	19.845543423102924	-5.734286166427489	15.7130552850596
O	20.773153744755927	-6.323252836598756	14.919134841510855
O	21.977632815459657	-5.701094661524028	14.93572818726811
O	22.160473608923173	-4.476028480369671	15.49874890234738
O	18.388087043944484	-1.0839948560310733	17.923989234351694
O	18.410795715622452	-2.4172049415096417	18.452470404889002
O	17.911983040295155	-2.4956917071378557	19.70412673030811
O	17.85854472132417	-3.7272346519955954	20.2536688944425
O	18.355746881346022	-4.731966201486528	19.415959450401537
O	17.889192569259546	-4.6323740820967	18.14125715938855
O	17.839130553576002	-3.360876508730148	17.645132552628535
O	21.011201524020528	-1.8485959858802294	14.24272773665456
O	22.812805270636172	-1.2880868869388296	15.873831364150965
O	21.975453887547143	0.8720023128982091	17.978626130171286
O	21.070489669724616	1.7030644246917757	18.652267339790907
O	21.288857268069492	2.198143851003829	19.917039523314006
O	20.428568600893477	2.180815954134668	20.977025607548864
O	20.61883883255346	1.5884521032568666	22.192762615159257
O	21.884401634461945	1.180191515405195	22.51026040565455
O	22.90198958071277	1.7106946263437905	21.739206464853353
O	22.552362395264822	2.0749996036286955	20.443913272856747
O	19.54011253288584	1.861544103784954	16.770698022070516
O	20.31630593201065	-2.4184945068671104	17.511106795311296
O	24.35202162982173	-1.5422064386042535	19.394715355456704
O	24.362335211587485	-0.3116104621596466	19.716139816157995
O	25.25641965042724	-2.2310817646023304	20.291258062130137
O	26.388737882948202	-1.561169851389144	20.92254064027797
