38

O	21.449952058027193	2.9734336236850303	20.051229038842973
O	21.933234253048248	4.356398939559368	19.960070019009045
O	22.684472457947003	2.23434709014159	20.453976226013147
O	20.350935916587193	3.2037446338446682	21.002648687485323
O	20.958945526005675	2.594456870294175	18.832475898344093
O	21.30926121439484	1.3922939051662429	18.28960068078121
O	22.458962643874173	1.033838920727701	18.54260998038391
O	20.66336627040538	0.8129129694997999	17.27849543895811
O	20.271338377002404	-0.5311554107414498	17.158989352610636
O	19.59966418502387	-0.5696828835812439	18.306091654200422
O	19.86125751459548	-0.21351450001159633	19.644460668277546
O	18.975973723816857	-1.072858695100229	20.304366884620208
O	18.820767883259023	-1.3659388102008938	21.61075321835174
O	19.32319698063996	-0.3613468141329774	22.432951812649154
O	20.48331891052039	0.20230452779995778	22.01328111818106
O	20.604839671327667	0.09523601544066418	20.682693262617974
O	20.57768783113079	-0.9361424659973707	15.87037070536539
O	21.228667152584556	0.048512884862924155	15.137939598994649
O	20.492331015707936	-2.015774224500849	14.90707580157289
O	20.02055188957815	-3.256231849483137	15.54503930686036
O	19.008949884556618	-2.64027841554214	16.46718252776329
O	19.12944233132014	-3.358124593894717	17.737298618264816
O	19.695040977064178	-4.563732461556148	17.87403971228005
O	19.71464845132725	-4.966316257703231	19.176218021485106
O	18.94893847987274	-4.3533965267699735	20.139002054829877
O	17.78483978444843	-3.8826249469626917	19.652352482321852
O	17.927328545003377	-3.3123010567490407	18.435943946839878
O	21.123842540296224	-3.7457712842187703	16.333724523046932
O	21.9395116652256	-4.445360301696134	15.79926120581253
O	21.61822800890701	-2.750662900305599	17.06299066249797
O	22.500290660202594	-1.8894636030136829	17.52755564927192
O	23.50500422757649	-1.3526234007287699	16.74166543685937
O	23.61929511104743	-2.4249733113226926	15.71236216001675
O	22.496699406271038	-1.939184135112801	18.956702523760168
O	21.673484824958106	-2.729062114404477	19.60593755123005
O	21.763549721039624	-2.8798242605311426	20.95139858639833
O	22.89756078930037	-2.228193312751812	21.248471655850057
O	23.254183018617187	-1.6054202712479657	20.03720084599016
