38

O	20.981424045592252	-0.3369968853920442	22.14566032296786
O	21.191439331896603	0.38930083460723974	20.970360161521096
O	20.259572620142524	1.1672501847832977	20.28750571591868
O	20.354784873852125	1.327268797350598	18.87615732760364
O	21.286946310446286	0.6963328753467515	18.189618071728834
O	22.35922928155773	1.0381692121911432	18.935388731425284
O	22.39998750373074	0.6831936809082131	20.349120111970876
O	21.567387870712384	0.7086772068397105	16.602626632176012
O	21.110207743223498	1.9305505829848295	16.123454094363158
O	23.000480294014693	0.5476023413174813	16.232697872499923
O	21.454063797696975	-0.7943342998360126	15.985806074871878
O	20.887967844654394	-0.40888515057146946	14.855166865852768
O	19.581038460572127	-0.08897002725431746	15.351671414711095
O	18.52637883536496	-1.089496468331344	15.426758200314964
O	19.132496842529008	0.752198932391897	16.38759510621325
O	22.33439732598936	-1.6172426702525091	16.564021045749
O	22.342887423795553	-1.37682945989819	17.966363868289392
O	23.383148746074788	-1.7508224394887901	18.63342485737129
O	21.320494448115507	-2.0090541917277136	18.690398130783333
O	21.172080541561428	-3.307242349122042	18.176778396475523
O	22.00829241639631	-3.854040569713778	17.284694609878105
O	23.21364328883505	-3.6494769070367363	17.299599754663
O	21.73077417868532	-4.12044438092642	16.023974605354287
O	21.853891565090017	-3.5557700247317463	14.805342017390938
O	20.788332037821327	-2.855638672103834	14.15010288270351
O	19.914876068973538	-3.220729438814697	15.26927653398373
O	19.844530394043396	-4.364057248833266	14.708152406482135
O	19.87222445190703	-4.95695200652286	15.93342063002134
O	20.74834707211928	-5.94543326267463	15.95522597469201
O	21.466360234849812	-5.946740653551322	14.680921438764159
O	21.14784049113891	-4.763451737136917	14.152197478795802
O	20.38775385453662	-1.4440813172680877	17.672215867440126
O	18.911807490503936	-3.2127227623805212	17.96822351313679
O	18.07716054355866	-3.937964090992197	18.732755492398002
O	18.246760694854764	-3.654394030711428	20.052310433445047
O	18.430010452585623	-2.3575987942938443	20.419154153027296
O	18.964300496491138	-1.5466714934820303	19.470916591571545
O	19.253935025868234	-1.9664310369081597	18.2430705656079
