98

O	-4.183215208854545	0.8180345597272728	3.099045831345453
O	2.1574688411454543	-2.6083083292727274	2.355711721345454
O	2.6028701311454543	-3.3246301092727277	0.11367529834545353
O	-0.6282188548545455	-4.061495209272727	-0.36534647005454646
O	-0.16105202385454553	-4.302959019272727	0.8842856313454535
O	-1.8704340628545455	-3.412098709272727	-0.28476479365454643
O	-0.2779862958545455	-3.241461129272728	1.7066548113454536
O	-1.8953372798545454	-2.430003369272727	0.6143535413454535
O	-0.2615540088545455	0.9536713369272728	-1.2060496426545464
O	-0.9077268428545455	0.2780125017272729	-2.306343498654546
O	0.6459228911454544	-0.8243824392727273	-0.6840100096545465
O	-3.1238779888545456	2.6339423107272726	2.597591451345454
O	-2.0845273558545454	2.7014169907272727	1.5975090313454536
O	-2.4275125088545453	3.1940537807272724	-0.17028423865454645
O	-2.4902438488545453	2.846892570727273	-1.6817308086545464
O	-0.9208517338545454	-1.0950137592727274	2.3143019313454536
O	2.1704085811454545	-0.9252563592727272	0.9189885213454536
O	0.3786826511454544	-0.7192588692727271	1.5731319113454536
O	-2.452223068854545	-1.5046349792727274	-2.9036764386545464
O	-4.490206748854545	-0.09219674927272714	0.21678489934545353
O	0.6467707811454544	2.517934790727273	1.3499822613454535
O	2.2042139211454543	1.4131683137272728	0.2912553803454535
O	-0.47956563285454545	1.0269915480372729	2.5646705413454534
O	-3.4142894488545457	-0.18776551927272722	-0.21910352965454644
O	-0.8964346838545455	-2.168772629272727	1.4347817113454535
O	0.17801744114545448	0.36174927672727286	-0.25671326865454647
O	-1.2054199938545456	-1.038396999272727	-2.3566026986545463
O	-0.09363616985454548	-1.4531103092727273	-1.7000187886545464
O	2.4183026511454546	-2.256112659272727	0.9809816413454535
O	-0.7191960798545455	0.29642612272727287	1.4341116713454536
O	-1.9385027528545455	-0.3625724592727271	1.6277954413454536
O	-3.5264376588545456	2.2222490707272726	0.42102464334545353
O	-3.4169732088545457	1.7657564147272728	-1.6649528786545464
O	-4.288187808854545	3.8685781507272727	-0.7310740436545464
O	-4.495813678854546	2.321701380727273	-0.7096485606545464
O	-2.4651742288545453	-0.8168078392727272	0.4719970093454535
O	1.4637318011454545	-0.15445066927272721	1.9612466013454537
O	-4.0983792288545455	1.8239466167272729	2.200425101345454
O	-2.323433588854545	2.1011038707272727	0.49501092534545355
O	-3.3068225388545454	4.084975550727273	0.28549757034545353
O	-3.4836023388545456	3.7823871407272724	-1.8227883886545464
O	-2.9214353088545453	0.7669650397272728	-0.9656551576545465
O	1.0303097011454545	1.1908191057272728	1.0303264113454536
O	9.180839331145455	-1.406032369272727	-9.290798238654546
O	9.038487131145455	-0.6680306592727272	-5.585236228654546
O	9.452791331145454	2.820329790727273	-4.058722758654547
O	6.521121921145454	2.9196967107272727	-1.6825969986545464
O	6.037059141145455	5.973884260727273	0.5896550163454536
O	1.2545314411454545	4.444556330727273	-1.5452226886545464
O	-0.6305991218545455	6.251755840727273	-6.303778298654546
O	1.5340729411454546	4.509132380727273	-8.675943518654547
O	0.08565043114545445	1.1642838087272729	-9.805526368654546
O	-11.870480668854546	1.953524228727273	-8.721483258654546
O	-9.122844548854545	2.0583027307272728	-6.079704118654546
O	-7.939871698854546	-2.2091182992727267	-1.1973394496545464
O	-8.032170688854546	-4.724889589272728	1.5266176413454535
O	-11.545596468854546	-5.7042118692727275	2.124739351345454
O	-12.388923368854545	-1.5763598192727273	-3.864704428654546
O	-10.670731298854545	-2.896858239272727	-6.999807208654547
O	-10.993691128854545	-2.0333496492727274	-10.753078798654546
O	-3.9882650488545455	-6.335261279272728	-10.107265528654546
O	-1.3492792438545456	-5.065601379272727	-7.816764488654546
O	0.8647974411454544	-7.572891969272727	-6.0103819686545465
O	3.9515338911454547	-5.743314299272727	-7.379863158654546
O	4.718024061145455	-2.634764599272727	-9.419588888654546
O	4.686708071145454	0.32224778272727284	-7.062934938654546
O	5.820804941145455	3.8977358307272727	-7.379913388654546
O	3.6689423111454547	5.885076820727273	-4.988054678654546
O	3.8649025411454545	9.447679810727273	-3.702513768654547
O	2.4067850511454547	11.073593890727274	-6.773072298654546
O	5.610274891145455	10.337514690727273	-8.665503758654546
O	7.959903881145454	10.116582740727274	-5.670782008654546
O	1.1278114011454545	10.762878660727273	3.7642876113454538
O	4.210368451145454	10.521438040727274	5.980900991345454
O	1.5027180011454546	6.049299740727273	12.263824001345453
O	2.4854955811454547	6.016177450727272	8.543016161345454
O	6.162258861145454	5.574077290727272	7.677827311345453
O	5.8010483811454545	3.0587673307272727	4.849990251345454
O	8.883980251145454	2.0050438127272727	2.7906512313454535
O	5.388895561145454	-1.9500435392727271	3.9895595213454538
O	6.119759471145454	-5.467431259272727	8.137106371345453
O	4.704773721145455	-3.1663022692727276	10.836761501345453
O	0.9579659911454543	-3.4579170192727275	11.313656201345454
O	-1.2160512968545456	-10.500528809272726	5.270317311345454
O	-2.5910421588545454	-6.634344289272727	-0.9514709436545464
O	-4.623326798854546	-5.073568969272728	-3.6405963686545464
O	-7.9501230888545455	-6.542722039272728	-2.749421028654546
O	-6.991332998854546	-9.421229409272726	-0.6683790916545465
O	-5.926142288854545	-10.386265309272726	2.8409839413454536
O	-6.660356428854546	-9.850366209272726	6.469002551345453
O	-6.0047262788545455	-11.957600809272726	9.539835391345454
O	-6.1171879588545455	-2.200216229272727	9.816355201345454
O	-7.397007388854545	1.3318878577272728	9.466587881345454
O	-3.8816751988545457	2.813164150727273	9.971538401345454
O	-0.8529356558545456	2.1895216207272727	12.042303101345453
O	1.9055780611454547	1.2568528627272728	9.544333611345454
O	5.571093421145455	1.4051202817272728	10.301207001345453
O	7.265382921145454	-0.980906569272727	7.899391111345453
