89

O	-1.4917629091468094	-0.3073381795705532	5.5624617574680855
O	-0.3897063581468093	-1.0294042535705532	5.096158577468085
O	0.23906130985319074	-0.2542295025705532	4.160669827468086
O	-1.8512133691468093	0.2179553964294468	4.328919147468085
O	-0.7869928521468094	0.3149943114294468	3.4666177174680852
O	-0.5142410351468094	0.9729764554294469	2.1816349374680852
O	0.5163910298531907	0.6484355954294468	1.4744765274680853
O	1.5894839998531909	0.5993458024294468	2.2954219774680853
O	1.4443503498531909	0.006262230729446816	3.574416957468085
O	0.9871071898531906	0.8164570884294469	-0.2182293956319147
O	2.153529299853191	1.7084389264294468	-0.3594787757319147
O	0.021286495853190646	1.321021196429447	-1.1591882075319146
O	1.8580367698531908	-0.5431137795705532	-0.6317471475319147
O	2.681159579853191	-1.1752996635705533	-1.4429536125319147
O	3.6896512998531907	-2.034389833570553	-0.9033812715319147
O	3.8485731398531904	-3.463339513570553	-1.0966587985319147
O	5.135333989853191	-1.6716457135705531	-0.8700816015319147
O	2.531781349853191	-0.7250829045705531	0.5916476054680853
O	2.2188807998531908	-2.0967074735705533	1.0581892474680852
O	6.220055939853191	-2.324372373570553	-1.639772292531915
O	3.319407749853191	-2.224273173570553	1.7515904174680852
O	0.8834020198531906	-2.097931113570553	1.391636857468085
O	5.151027629853191	-4.142025303570553	-1.1301452925319149
O	-0.05241133314680935	-2.5075762335705534	2.0975950274680852
O	-1.4226652411468095	-2.428603643570553	1.8569798674680853
O	-1.8496956981468093	-2.5319285135705534	2.946678087468085
O	-2.226851430146809	-1.330600933570553	1.6978379774680854
O	-2.824556200146809	-1.1526399135705532	0.5387475564680853
O	-2.3877373501468093	-0.06349072557055319	-0.3110582801319147
O	-2.4728974901468095	0.6940488604294468	0.7713340474680853
O	-3.768763440146809	0.7424339214294469	1.0887882074680855
O	-3.7329568001468094	1.0184261354294468	2.426726457468085
O	-4.655382730146809	0.2468928404294468	3.0846291674680852
O	-4.2259047401468095	-1.0515196335705532	2.514799277468085
O	-4.136603540146809	-0.7174224395705532	1.1100906874680851
O	0.2924719798531906	-1.4863060335705531	0.10301885846808528
O	0.8812919998531906	-3.649347493570553	-0.5659060265319147
O	0.6894465598531906	-4.463419193570553	-1.6959575625319148
O	-0.47280946414680936	-5.171655743570553	-1.3539402925319148
O	-1.5037265371468094	-4.555853333570553	-0.6547694335319147
O	-1.2901252121468094	-3.216587903570553	-0.6109499445319146
O	-0.08903384614680931	-2.725976773570553	-0.3288120519319147
O	9.43598499985319	8.842768436429447	2.495982227468085
O	7.351649729853191	7.402261066429447	-0.3548588977319147
O	4.553063289853191	9.262361306429447	-2.083567762531915
O	1.8489331798531907	6.930906626429447	-2.2495571425319145
O	-1.5693056041468094	7.532061926429447	-3.7652284425319147
O	-2.1546338701468093	4.996178266429447	0.9096446374680852
O	-2.950152900146809	7.361160896429447	5.665576367468085
O	0.5199741198531908	8.549122146429447	6.351398317468085
O	2.5278448898531907	5.9828951264294465	8.307914007468087
O	-5.10964610014681	0.03770849954544682	10.889674907468086
O	-3.1139752701468093	-4.784721853570553	6.857609907468085
O	-2.4659017001468095	-8.042522673570554	4.988378417468085
O	-2.131060550146809	-3.835072283570553	12.991663107468087
O	5.445243559853191	-1.2789617335705532	11.757423207468086
O	5.3331750798531905	-0.08026387857055318	8.251380057468086
O	7.616429149853191	-1.5024521635705532	5.703923667468085
O	8.61775050985319	2.1598438164294467	4.821318197468085
O	7.82064454985319	5.717411236429447	5.527994777468085
O	4.7919093298531905	6.615392576429447	3.449230687468085
O	2.982729719853191	9.768674026429446	2.710682317468085
O	-0.5935571041468093	8.880667046429448	2.0428474374680854
O	-3.582913470146809	10.851085276429448	0.7842583174680854
O	-0.8923784062468093	14.400575676429447	-0.29971424433191474
O	-9.25776886014681	-0.2732068225705532	-9.903960222531914
O	-7.067765940146809	2.0140874464294467	-7.7403669625319145
O	-4.274340590146809	4.039366336429447	-9.231981392531914
O	-1.4888269861468093	3.393251896429447	-6.778325332531915
O	1.942317779853191	5.1380820964294465	-7.024232822531915
O	1.6738510598531908	0.08780306012944682	-5.4788484225319145
O	3.144648219853191	-4.023068543570553	-9.427214602531913
O	-0.38876789014680935	-4.442702303570553	-10.471144892531914
O	-2.5112208901468094	-6.867883803570553	-8.499794702531913
O	3.781551069853191	-10.712788723570553	-2.0878172825319146
O	3.3163883698531906	-5.471890433570553	3.6031080274680853
O	2.1497569798531906	-4.127169773570553	6.873627137468085
O	0.5731521398531906	-7.137765473570553	8.340742737468085
O	2.229306399853191	-9.681497653570553	6.215012357468085
O	2.093877919853191	-11.692750523570552	2.9604461674680853
O	-0.3073510621468093	-13.358255723570553	0.5343347234680853
O	0.013153388853190617	-15.949321923570553	-2.2179156925319146
O	-6.896966630146809	-8.935734163570553	-2.7821225425319147
O	-9.77285486014681	-6.7607285035705535	-1.7359851225319147
O	-8.91900153014681	-4.1708249935705535	-4.367074722531915
O	-7.821466130146809	-4.090409163570553	-7.978837962531915
O	-4.514046700146809	-2.1450407535705533	-7.899735142531915
O	-2.8154569501468094	-0.4644914075705532	-10.739243992531915
O	0.8360245598531907	-0.13413951457055318	-9.916643412531913
