91

O	-2.2490675388510644	-0.33058638146595853	-2.8240583933021273
O	-1.0321622878510643	-0.7295015214659585	-3.2936244833021275
O	-0.005724424851064169	-1.1993710014659587	-2.5341943333021275
O	-0.1128642948510643	-0.8446348614659583	-1.2838887433021275
O	-1.2836040158510642	-1.2206754014659587	-0.7210413783021276
O	-2.386085058851064	-1.0225506314659585	-1.6458823033021277
O	0.596721265148936	0.004190997534041507	-0.017081161302127557
O	0.3334830851489359	-0.5152564814659585	1.3794294766978723
O	1.8942664351489358	-0.47191441146595847	-0.18376281630212754
O	0.0017639351489358024	1.3612886895340415	0.5616150766978724
O	0.43801383514893577	2.6461116985340416	0.4406929856978724
O	0.47488949514893597	2.9848579985340415	-0.9249987213021276
O	0.8855547051489359	1.7611351655340415	-1.6079981833021275
O	0.6182430751489358	1.9589029185340414	-3.0184187433021274
O	-1.3023107428510643	0.9531215315240416	0.025485379697872457
O	-1.6737811508510643	2.1163483585340415	-0.5643566796021275
O	-2.0810478908510643	2.4240389285340416	-1.6114246133021277
O	-1.9448369548510642	2.9259603885340417	0.6436546466978724
O	-3.3049056448510643	2.5060532185340416	0.9934751966978724
O	-3.5331831348510643	1.1802654625340416	0.6806755766978724
O	-3.918343684851064	1.1502131935340416	-0.49251792060212757
O	-3.709473204851064	-0.12085861146595855	0.6609268966978724
O	-3.744442404851064	-0.9656468414659584	1.5894068966978727
O	-2.5409194638510644	-0.8777010414659584	2.4155842466978728
O	-3.023988974851064	0.33030742253404155	2.7142577766978726
O	-3.9825879548510645	0.10451779353404156	3.6275536066978726
O	-4.592018034851065	1.2194309485340415	3.9448019666978724
O	-5.557348514851064	1.6970615165340415	3.1944248366978725
O	-5.226818124851064	1.0248706693340415	1.9668051066978727
O	-4.923394324851064	-0.34473153146595836	2.4582094766978724
O	-1.2537902708510642	2.2618799085340417	1.8667044566978728
O	-2.9027569348510642	3.4983076385340413	2.9295540966978724
O	-3.3848937448510643	4.075970168534042	4.051377736697872
O	-3.018170634851064	3.5633199385340415	5.2487797166978725
O	-2.1239667468510643	2.5447743085340417	5.313253026697872
O	-1.465709500851064	2.1986861085340417	4.202424266697872
O	-1.9112788058510641	2.6416797785340416	3.0109349066978726
O	-2.854269444851064	0.5737688165340415	-3.6410928833021274
O	-1.9893320028510642	1.2565479665340415	-4.551362103302128
O	0.7022961451489358	-1.8774511514659586	-3.6801583133021274
O	1.8151879351489357	-2.1660254514659587	-2.9362745133021275
O	2.685767725148936	-1.1186809714659587	-2.8848174433021274
O	1.7330839951489356	-0.07281704146595847	-3.1631644533021275
O	1.2326236451489356	0.8697692038340415	-3.7895930333021273
O	-0.5460771348510642	-11.442816491465958	-2.2369602533021276
O	1.9096629251489359	-8.614853521465959	-1.0963258303021275
O	4.091787635148935	-8.709470811465957	1.9362996366978726
O	3.736780595148936	-5.5027132014659585	2.7673572166978726
O	5.508619015148936	-4.325766021465959	5.348519246697872
O	0.4873187651489357	-2.9718450814659585	4.130257176697872
O	-4.220018834851064	-5.290221091465958	6.226124056697872
O	-4.455032424851065	-8.229245061465958	4.809062416697872
O	-7.046919824851065	-7.351807001465958	2.2458287666978727
O	-6.1306035548510645	-5.344824471465959	-6.9136161733021275
O	-4.296006044851064	1.5439998575340415	-7.092264253302128
O	-3.9523030848510645	5.392656418534042	-7.111018003302128
O	-9.565343424851063	-1.5692317314659587	-9.067739353302128
O	-12.450811694851064	-2.2685139814659587	-1.8993676533021278
O	-8.886496734851065	-2.9773678514659587	-1.4954531953021275
O	-7.136457944851064	-2.3731131614659584	-4.311578723302127
O	-5.015467794851064	-5.764015631465958	-3.9191862433021276
O	-4.315791014851064	-8.641656651465958	-2.0232443933021274
O	-1.9287716608510643	-7.620670161465958	0.5332579266978724
O	-0.5653722648510642	-9.533086591465958	3.4381208266978724
O	-0.2056422648510643	-6.840637301465959	5.848661396697872
O	1.4844298951489356	-6.6821442314659585	9.047913336697873
O	-0.5077781448510643	-11.659169991465957	9.437863076697871
O	3.1608393451489354	-10.913084591465958	8.782386526697872
O	13.523580705148936	3.6364503885340413	-1.4032228533021276
O	11.085901705148936	0.9434096344340416	-0.011817632302127512
O	10.950400205148936	0.27454244453404153	3.630627246697873
O	7.259939415148935	0.0666386745340416	3.3090648266978726
O	6.2356929251489355	-1.9209060714659585	5.6098565366978725
O	3.7458414951489356	2.5678943085340418	3.4719702266978723
O	4.0416004151489355	8.032577628534042	5.671336386697872
O	7.155947295148936	8.783589418534042	3.7469192166978726
O	-3.987437534851064	14.614112608534043	-0.5665909051021275
O	-2.8800082748510643	11.012723708534041	-0.09831979330212753
O	-5.579065494851064	4.197182448534042	-1.4718652113021276
O	-7.238646934851064	1.8033579505340416	-3.1625252533021273
O	-8.197781324851064	3.8027937185340415	-6.092877683302128
O	-8.227812834851065	7.056949688534042	-4.7515276333021275
O	-5.951689994851065	9.941046788534042	-4.052146603302128
O	-3.183717614851064	12.158039708534043	-5.408497893302128
O	-2.008584940851064	15.645771708534042	-4.566898043302128
O	4.405888985148936	8.934287428534041	-6.637302023302128
O	5.994095875148935	6.126041008534042	-8.508056213302128
O	8.211340355148936	5.029154648534042	-5.583942383302128
O	8.547517805148935	5.220899938534042	0.12883233969787244
O	9.955551105148935	5.137974818534041	3.580967026697872
O	6.986902335148935	4.625065758534042	5.781118786697872
