85

O	1.7247242787708335	-0.24503755422916706	0.1099279045010419
O	1.7620884187708334	1.099201092770833	-0.4695351544989581
O	2.2108253187708335	3.1299600757708332	0.3811780045010419
O	1.8972683787708335	1.989706385770833	0.715277266501042
O	-0.24380168222916648	0.854020816020833	1.089037849501042
O	0.6592408877708336	2.266869365770833	2.612785659501042
O	0.8552079537708335	1.638760057770833	1.625238479501042
O	0.7479340727708335	-0.4238555342291669	-1.878054860498958
O	-0.16995870322916645	-0.342163934229167	1.8843353695010419
O	-0.5233628552291665	0.19073012977083303	3.1985725895010417
O	-0.08550100222916651	-0.681742614229167	4.1262720695010415
O	-0.5639383192291665	-0.7072532042291669	5.447052949501042
O	-1.6352880312291667	0.111516601770833	5.788445349501042
O	-1.5643769412291666	1.229201528770833	5.021236599501042
O	-1.4103530812291665	1.0556891117708331	3.639301019501042
O	1.2878472797708336	-0.834159984229167	2.1826701395010417
O	1.6743664087708334	-2.100775934229167	2.2314655295010417
O	2.5851446987708337	-2.4601940142291667	3.2570327695010417
O	3.6697502287708335	-1.658710144229167	3.1993338395010418
O	3.3153818987708337	-0.3468240442291669	3.245837309501042
O	2.0635886587708336	0.03833738377083307	2.863969379501042
O	0.2805933727708335	-0.068982440229167	0.2158836135010419
O	-0.2348771502291665	0.24006064377083303	-1.092909285498958
O	1.6305886487708334	-1.167834044229167	-1.0191227744989582
O	2.950858048770834	0.961205917770833	-1.163906265498958
O	3.915452548770834	-0.152911606229167	-1.0600890694989582
O	4.207525518770834	-0.712379544229167	0.14798692150104192
O	5.516659118770834	-1.026442384229167	0.5764742285010419
O	6.563625168770834	-0.5192220242291671	-0.13952189849895807
O	6.398847228770833	-0.092671368229167	-1.4278155704989581
O	5.061721108770834	0.20795661577083302	-1.710276240498958
O	3.7928179687708337	1.920016155770833	-0.3093318615989581
O	4.922804188770834	2.295691515770833	-0.8886544984989581
O	5.892267138770833	2.955580385770833	-0.11081287949895807
O	5.324677158770833	3.395704145770833	1.0939163795010418
O	4.744683208770834	2.3263821657708332	1.771617999501042
O	4.111862588770833	1.4432459647708331	0.957002899501042
O	-7.754424801229166	10.480317515770833	-0.1250269084989581
O	-7.467433451229167	6.8315799857708335	-1.136241234498958
O	-7.251335771229166	5.693127555770833	-4.7368424304989585
O	-4.407436551229166	3.2598967057708332	-4.563611060498958
O	-3.3215672412291664	1.295316719770833	-7.668035300498958
O	0.9644061767708334	3.085007825770833	-4.974126440498958
O	3.353095698770834	7.893690275770833	-6.072800150498958
O	0.8994528767708334	10.220094255770833	-4.481647860498958
O	1.6772069887708334	10.912533105770834	-0.808652537498958
O	10.974387148770832	6.676234785770833	-0.24597613554895809
O	8.722781318770833	1.475404641770833	3.452338989501042
O	8.089615578770832	-1.442181224229167	5.643130489501042
O	4.365648838770833	10.324196985770833	7.385794979501042
O	1.8978702687708335	8.386262865770833	5.404258929501042
O	-0.7484148612291666	6.562209155770833	7.173504199501042
O	-3.443710701229166	8.156096745770833	4.909472799501042
O	-3.615850431229166	10.413131025770832	1.953081649501042
O	-3.081172731229166	8.354895075770832	-1.141577931498958
O	-3.4423282812291665	8.970026355770834	-4.790901850498958
O	-0.9737614512291666	6.713080355770833	-6.539346970498958
O	-0.49856810922916645	5.828268025770833	-10.222748110498959
O	-1.8695650612291665	10.863490905770833	-10.84880350049896
O	0.7404769817708334	-10.535622194229166	-8.26045713049896
O	-0.15565811922916645	-6.792474924229166	-8.044257840498958
O	-3.7615155812291663	-5.688960614229167	-8.208339880498958
O	-3.897624361229166	-3.231445204229167	-5.301022080498958
O	-7.043464861229166	-1.1240331842291669	-4.613177640498958
O	-4.958147511229166	-2.993151784229167	-0.1382104324989581
O	-6.497192921229166	-7.826521284229166	2.327542639501042
O	-4.359650291229166	-10.026078094229167	0.13073929050104194
O	-0.7691367412291665	-10.624574594229166	1.187467239501042
O	0.6130955947708335	-7.747045584229166	12.212593999501042
O	0.08348888877083349	-5.638138874229167	9.215720139501041
O	2.4743224787708336	1.245771186770833	6.797394949501042
O	4.679848748770834	3.910579225770833	6.042809169501042
O	7.684965818770833	2.610041565770833	7.817712559501042
O	5.976399588770834	0.29657669777083306	10.224482299501041
O	4.657204988770833	-3.271460054229167	10.494400899501041
O	5.426529908770834	-6.834632254229167	9.544016209501041
O	4.351031998770833	-10.137179194229168	11.018044199501041
O	6.554039548770834	-9.217901594229167	1.518648739501042
O	8.511417208770833	-8.550840324229167	-1.609504700498958
O	5.399663968770834	-8.605698604229167	-3.795631790498958
O	2.3008817187708335	-10.683850094229166	-3.982020600498958
O	-0.6927376612291665	-8.410547214229167	-3.422257390498958
O	-4.2228289312291665	-8.851946574229167	-4.3895087204989585
O	-6.270451661229166	-6.623113344229167	-2.084317150498958
O	-9.893854251229167	-5.600432734229167	-2.248110590498958
