62

O	20.840889639297046	-1.25304135311873	16.865525735460977
O	22.411875853135015	-1.066127876972382	21.46918885546217
O	21.67273895392976	-0.28952167009396035	16.457269450468054
O	21.431786711635358	-3.4521877665367486	15.835182601200708
O	20.796121608994483	-2.283612573484095	16.02433259177446
O	20.62655585803528	-2.3898045949821767	14.712778319473244
O	21.884927676167695	-4.049248982379072	19.595789412696575
O	20.7976853005748	-1.0037080984492537	14.589541368144406
O	21.96051616778637	-0.6676033775874481	14.154394992729781
O	19.887165343641648	-0.1859012143172471	15.22424703067697
O	20.19839015529356	1.06608095663593	15.408871006704281
O	18.977313167438478	-1.055232536651491	15.923114509210105
O	19.04887985939171	-1.7803043596241666	17.633767725263905
O	19.596078775360084	-0.6334293673993936	16.982934003158856
O	19.279225053068878	0.79710098421084	21.47507686796394
O	19.389042544208124	-4.4725708006330835	19.46248201806504
O	20.031745717086107	2.033911133256284	21.3365147906935
O	18.262422553483155	-3.5822426491842334	19.177482682917855
O	21.34072410853616	1.6207562787362892	21.551658629897148
O	18.161385185775824	-2.511124774631282	20.11071491748018
O	19.24544686237541	-2.8090768512738213	21.029685306102127
O	19.977793564849897	-0.34888815344656277	21.952190727509233
O	21.562675109931295	-4.212215822386091	16.921441790550304
O	21.532674800870762	-2.889349831974961	17.33725928860058
O	22.60641209611806	-2.1857741087642637	17.331801891067528
O	23.440836372457813	-2.2995361499220177	16.148399908992513
O	23.43686972822551	-3.6704037612097182	15.867923281111148
O	22.927787476783045	-4.6503152256781775	16.962764681509544
O	23.55628244430855	-2.9941269060346745	18.255253075170835
O	23.478878590277226	-2.8146135936495376	19.57504997325778
O	24.206448448543146	-1.826271253609681	18.3747292702902
O	22.102764939832547	-2.729750883894888	19.316509554242003
O	21.655292027830377	-2.76882762378162	20.70924609494017
O	20.370617013136027	-2.796768382776738	20.22276463785501
O	20.563351524796275	-3.8178750007540554	19.353526121939616
O	20.836262579149206	-3.396018664602753	13.72947762942052
O	20.86986178974865	-4.797427130374267	14.308419444414302
O	22.038975615794662	-5.596129667503212	14.154796341091213
O	22.067593152136435	-6.676841286758997	15.123226088188112
O	21.1160738298569	-7.664754492349112	14.944420343186783
O	20.423971481882187	-7.297679710304423	13.74729158049237
O	20.356730758038243	-5.896314929662676	13.518002882903474
O	18.78538321033014	-2.389321711709975	15.452649973243203
O	18.610081988188455	-3.589555007786995	16.222725171660255
O	18.396264373171277	-4.7412836035779105	15.36010806027619
O	18.18337591162496	-6.113921832963587	15.604116119669296
O	19.09471606820447	-6.735879592013276	16.493612692897532
O	19.706849241803685	-5.695272548413481	17.115277708136574
O	18.78449534244104	-4.540480912874249	17.10517986096581
O	19.561285222669213	-0.9825208662452589	18.660226392401203
O	20.753380397082484	-0.48336888161342595	18.740405136329
O	21.18951034326989	0.6966873132652939	18.647318887566456
O	20.41192145154824	1.728768754191786	18.416532447839046
O	19.06707243761651	1.1885144358085902	18.2622260772493
O	18.874115727005233	-0.014924200292423584	19.11712794547715
O	22.19696795903275	0.17992352949174062	19.48301598579209
O	23.037023406420694	1.0271461473759227	20.24979929279904
O	23.17592900851097	0.04731812297964788	18.620131967655418
O	23.315538245020463	-0.2516405782656125	20.73508590268832
O	22.856832806909253	0.05637521312618021	22.044180623976402
O	21.664560133495794	0.5275648913962051	21.42592563748714
O	21.115373222640883	-0.5743997044033572	21.215273515409834
