45

O	22.513455432579075	0.07326556204743584	18.044076531037938
O	22.752802027623396	-1.0111157926445726	17.144935968584036
O	21.587727741893396	-0.2603473411206034	21.23423708669251
O	21.867754706143906	-0.7251012830598123	19.129499927953816
O	22.312167609219394	1.4984897348592239	20.31001833926957
O	19.66202171584682	-1.94806582307595	15.928227817702124
O	21.997907958733858	0.1645478998193468	20.165278067289634
O	21.204964657208816	-1.2420412737713726	18.096356889820363
O	19.9656677767896	-3.8619907036018484	19.216572367533686
O	22.28783481475454	1.9793484286817562	21.693176800621888
O	18.739538794201167	-2.298422721453746	18.098741818553716
O	19.658887504355175	-2.367491060009695	20.715752546537537
O	23.648223873079367	1.4945258517459385	22.23073379629885
O	24.261883588478305	-1.6810534313852523	21.86694376463781
O	21.366207388072883	1.2404146351373444	22.67597733615974
O	22.19661219118654	3.3656922945262617	22.127086366095043
O	20.976096204467925	-0.6065820532363928	16.735001542242376
O	22.065185175388205	-1.2720623776017461	16.050258103775406
O	21.280651112210446	-2.5569912115577327	17.729905666061452
O	20.633544838807925	-2.693492818354258	16.51594717707276
O	21.144012796969616	-4.019408621963073	16.783247096273595
O	19.678686213294316	-4.302786120023351	17.067758826951852
O	19.02689120770102	-3.8652685698494342	15.81554115319176
O	20.057866057843626	-4.27120472392437	14.833409693162864
O	20.146834020611923	-5.657631106398412	14.896794643749647
O	20.2927486502813	-6.277783378406983	13.680629033234455
O	20.900253967514967	-5.55056854847287	12.725155568639307
O	21.515336218001142	-4.408229638901881	13.151975065248847
O	21.322657995505054	-3.9922047068737787	14.430460677723437
O	19.356366053423596	-3.4910284815393258	18.25100589743904
O	18.76688504932198	-1.1292636816601753	18.780517067962542
O	19.141379600282377	-1.4284416483683535	20.081046926791725
O	19.016333530547296	-0.2015434045955964	20.84379100866671
O	19.22544560348665	0.7910975091506205	19.729597652005836
O	19.375111105332774	2.129899456661748	20.062063384403636
O	19.96423570764066	2.911606706830273	19.12822956895542
O	20.21275931316284	2.3402918555540526	17.94343143578487
O	19.43041062164915	1.2740166051324757	17.591466587792684
O	19.10194240126026	0.26024675003221187	18.498382415753362
O	23.328840595741116	-1.8716462841598003	18.06834342148018
O	23.479170130480583	-1.8943463964612903	19.49983878561662
O	24.404591246223323	-1.5913854919433867	20.510671768808724
O	23.386918681375	-2.5180643993030505	22.306449825843632
O	22.523572669301405	-3.0880672837917116	21.424959216978127
O	22.865342587644996	-3.0294091809472063	20.109907696065456
