91

O	2.8494718094047617	-1.6188057766428567	1.0458166779761902
O	-0.18624772859523825	-3.5523998366428566	2.22208131797619
O	4.657404759404762	0.24014898135714333	1.3636810679761902
O	3.7539788194047614	2.1693105133571433	0.03776709097619013
O	0.01469147840476176	-3.3675827466428565	0.7857070279761902
O	0.8285036834047617	0.25783449435714334	-0.54620427222381
O	2.7569905094047615	2.9114135133571435	-1.0008735700238098
O	-1.158680100595238	-3.9606058066428567	0.14753638197619012
O	3.0650622294047616	2.4182055233571433	1.22855335797619
O	-1.042001610595238	-1.7094119166428565	3.46349535797619
O	5.175497019404762	2.9087699533571434	-0.05206899702380996
O	2.290753679404762	-1.8195033566428567	2.30342738797619
O	-1.9416916205952381	-2.8046303466428566	3.25950978797619
O	0.10860992340476178	-2.3066787866428564	2.9872314579761903
O	-4.525289130595238	-2.3425672266428568	1.14553987797619
O	2.3741219794047614	-0.8308599566428566	0.15487864297619003
O	0.9279510824047619	-1.6808465766428564	2.33087679797619
O	1.9593719194047619	-1.7539020566428567	-0.8344808220238099
O	2.5410827594047616	-0.9038530966428567	3.09764639797619
O	2.433942539404762	0.29241580735714334	-0.7872759930238099
O	2.3402589794047617	-2.9185841966428567	-0.89544509502381
O	3.4648949594047616	0.02109789735714329	-1.77090057202381
O	0.29258534968476174	2.304646043357143	0.34768439997619005
O	4.055170159404762	-1.1594072766428565	-1.48434918002381
O	0.8036632044047618	1.0602663323571433	2.15982106797619
O	4.611974269404762	0.7251449913571433	-1.9929632520238099
O	-2.0557889505952383	-4.042616376642856	1.18773761797619
O	5.092194709404762	-1.2588444766428566	-0.51107267802381
O	5.5648952594047625	0.7535107473571433	-0.9215686030238099
O	5.291381339404762	-0.09958770764285674	0.15751317197619008
O	3.7420487494047614	1.2915301753571433	1.42436556797619
O	2.9610179094047617	4.200707373357143	-0.74335926602381
O	3.0137302294047617	5.191886153357143	-1.81723353202381
O	5.298654569404762	4.047413343357143	-0.7136251641238099
O	5.737249109404762	3.8292578333571434	-2.1087521320238096
O	0.6461310794047618	-1.2309871966428565	-0.34034082802380994
O	-0.1157514885952382	0.36480532885714334	-1.52550979002381
O	0.12449148140476177	-0.7165846766428566	-2.44683896202381
O	-1.1642812505952382	0.06567221935714329	0.94955607797619
O	-2.0246800705952386	0.1214654203571433	1.91469405797619
O	-3.2862507305952384	-0.4947267756428567	1.83591702797619
O	-3.5730858205952383	-1.4212629466428566	0.89656887797619
O	-2.7693630705952383	-1.1980555166428566	-0.1470853910238099
O	-1.5963603705952383	-0.6005255266428567	-0.06994153102380996
O	-0.3428659155952382	-2.0617308766428564	-2.23128540202381
O	1.2634888214047617	-1.0073928966428567	-3.29424117202381
O	-4.914390290595238	-3.0393337566428564	2.26337584797619
O	-1.5826631805952383	-3.1356142566428566	2.02591364797619
O	0.3084372010047618	0.9316072093571434	0.85405375797619
O	4.740823819404762	9.257762293357143	6.93298920797619
O	2.9806827694047615	8.765279813357143	3.68109246797619
O	-0.4126132505952382	10.144944993357143	2.6744928079761903
O	-2.0011478705952386	7.154507953357143	1.1882106279761901
O	-5.3829846705952376	7.092252273357143	-0.2833401970238099
O	-4.063762170595238	2.8662444033571433	2.6571152579761903
O	-5.909964940595238	2.4878873633571432	8.11285604797619
O	-3.014314300595238	4.303871263357143	9.48564798797619
O	-0.15762889559523824	1.9039769733571434	10.196473087976191
O	-4.520318960595238	-6.888640286642857	9.281619457976191
O	-1.049714410595238	-8.361102656642856	3.77647760797619
O	0.5941029634047618	-9.727232006642856	0.63899400797619
O	5.559392659404762	-4.425904636642857	10.499032587976188
O	4.656068679404762	-1.9615564266428565	7.918192867976191
O	7.026331389404762	-1.2357298666428567	5.20218004797619
O	6.457241099404762	2.4693721933571435	6.03163338797619
O	4.549967279404762	4.814764653357144	8.10902204797619
O	1.2861989674047618	5.383332623357143	6.37148336797619
O	-1.500993550595238	7.709316493357144	6.94714554797619
O	-4.487386100595238	6.086387593357143	5.64140225797619
O	-8.775053320595237	2.3042821933571433	-6.71513982202381
O	-7.049876770595238	5.651359623357143	-6.93260336202381
O	-4.036960630595238	5.009506563357143	-4.75555555202381
O	-1.7884905005952383	7.953890303357143	-3.92570959202381
O	0.9021127684047618	3.2179934833571435	-5.01885135202381
O	2.8244884694047614	1.6842818033571434	-9.836768832023811
O	-0.4830165195952382	0.6704048353571433	-11.46742141202381
O	8.251942289404761	-8.960611806642856	-8.05180830202381
O	6.289666649404762	-6.455093996642857	-6.15366424202381
O	4.515292169404762	-5.039420076642856	1.10645411797619
O	3.4270934494047616	-5.608031506642857	4.43773008797619
O	3.3149731294047617	-9.334912096642856	4.30857522797619
O	5.590700879404762	-9.953246606642857	1.49140510797619
O	5.809919989404762	-10.156003506642856	-2.32806041202381
O	3.9850426294047616	-11.433073706642856	-5.38592505202381
O	-3.8636780005952382	-8.764158946642857	-7.03887107202381
O	-7.264092090595238	-8.601277986642856	-5.56426167202381
O	-7.833311680595237	-4.9904540266428565	-6.58937666202381
O	-4.911319020595238	-0.10293275964285664	-8.46390080202381
O	-4.234961570595238	3.1801217433571436	-10.18239370202381
O	-0.8548668805952382	4.291654003357143	-8.81709107202381
O	0.8344140574047618	7.595987463357144	-9.179482112023809
