94

O	-0.557591840185417	0.08741493454583393	3.1080458520666667
O	0.16801810981458298	-0.810808631454166	2.3589207620666666
O	1.3722340698145832	-0.618260071454166	2.300428762066667
O	-0.43449557018541696	-1.783780451454166	1.4791382320666664
O	-0.09149254018541697	-1.4668389114541662	0.16835835454666645
O	0.31447846981458305	-2.416776881454166	-0.6344809829333335
O	0.878771799814583	-0.38151966145416605	0.28684605806666646
O	1.4510312498145832	-0.28777699145416613	-0.9356652279333336
O	0.0016328698145831044	0.665226532545834	0.4690936680666664
O	-0.846248007185417	0.44005744454583395	-0.7534697739333335
O	-0.39666440018541693	0.118942810545834	-1.8683118079333336
O	-1.632454662085417	-0.6755301014541661	-0.5350811809333336
O	-1.699019146285417	-1.702452711454166	1.8055825620666663
O	-1.678487281965417	-1.8424537214541659	3.1153535420666665
O	-2.905599000185417	-1.1636933014541662	3.4926403720666666
O	-3.061325670185417	-1.188033861454166	4.831187302066667
O	-3.686014220185417	-0.18666953145416598	5.4649773820666665
O	-3.6089009601854167	1.037273683745834	4.800871362066666
O	-3.834697830185417	0.9733812330458339	3.4656441420666666
O	-3.574241710185417	-0.18681356145416594	2.8545573120666665
O	-0.998372973185417	1.011094303145834	1.2767056320666663
O	-0.806231812185417	2.213789368545834	0.7407855780666665
O	-1.787704385185417	2.8210696285458337	1.5809417420666663
O	-1.606968036685417	2.993330828545834	2.887851222066667
O	-2.341103870185417	3.863777318545834	3.6047425420666666
O	-3.442963850185417	4.292375188545834	2.9446093320666664
O	-3.400973840185417	4.401647258545834	1.5532164220666664
O	-2.905104310185417	3.267058398545834	0.9983332500666665
O	-0.09911060018541695	0.3157151655458339	4.295779462066666
O	1.3670412498145832	0.40625300254583396	4.0810290520666666
O	1.8392322498145832	0.2936560415458339	5.437555752066666
O	1.3157414798145832	1.681583490545834	3.364807062066667
O	-0.516759690185417	0.7808456775458339	5.512879902066667
O	-0.886772225185417	1.932657668545834	5.649763642066667
O	-0.530728820185417	-0.07077601145416601	6.6241492220666665
O	-1.391230514185417	0.486941165545834	7.674365022066667
O	-2.530774398185417	-1.270956271454166	-1.4140317879333337
O	-2.6567924551854167	-0.19205040145416596	-2.3633168879333333
O	-3.380443590185417	-0.16946011145416606	-3.4932374179333334
O	-4.3413339001854165	0.8562772465458339	-3.7392498479333334
O	-3.963851670185417	2.025107209545834	-3.0854777379333336
O	-2.874731600185417	2.055334607545834	-2.1654941379333335
O	-2.8631262901854173	0.8793226545458339	-1.4804983179333335
O	-3.4118906301854173	0.445687663545834	-0.13290870493333354
O	-3.644677220185417	-0.913340761454166	-0.4369990649333335
O	-3.436599770185417	-1.9164329014541661	0.40452047806666647
O	-1.728115081285417	-12.029989361454167	-4.786806217933333
O	0.4575125098145829	-8.924194711454167	-4.894922667933334
O	4.037186469814583	-8.817331181454167	-3.6936404179333335
O	4.118999719814583	-5.736437921454166	-1.6904150979333337
O	7.275446179814582	-4.423152751454166	0.04497369406666646
O	3.1248186798145827	-4.282287241454166	3.0597290120666667
O	1.554481649814583	-7.961929011454167	6.939937392066667
O	-0.040334460185416976	-10.328294261454166	4.615088002066667
O	-3.772477050185417	-9.667199561454167	4.147917192066666
O	-5.788777720185417	-3.140211241454166	11.502422322066666
O	-6.147628590185417	2.349074058545834	7.1186392020666664
O	-6.878282500185417	5.422991728545834	5.150375642066667
O	-11.575736970185417	-5.948598511454167	3.5083890320666664
O	-8.408389210185417	-5.551663851454166	1.6499358320666664
O	-8.563678710185417	-4.1734165214541665	-1.7136559479333335
O	-6.516257560185417	-7.185554071454167	-3.0924824379333336
O	-4.635543970185417	-10.078528461454166	-1.7295199279333335
O	-1.264356190185417	-8.998805361454167	-0.5877378709333335
O	1.859603649814583	-10.661735061454166	0.49096426506666646
O	3.575780599814583	-8.319993841454167	2.9038167020666665
O	7.105165549814584	-8.519945751454166	4.418118632066666
O	8.318617909814584	-11.843003661454166	1.7524926620666663
O	11.026201649814585	7.528365258545834	1.4622160420666663
O	9.684534249814583	3.8997273285458336	1.3812939420666663
O	10.358773249814583	1.664523574545834	-1.5345477679333337
O	6.965197709814583	0.193572911545834	-2.1786556279333333
O	6.4548980798145825	-2.5080400914541663	-4.864476737933334
O	2.623785869814583	1.134884139345834	-4.888707907933333
O	2.527869579814583	5.687738798545833	-8.255670997933334
O	4.634082259814583	7.723478118545834	-5.952132837933333
O	2.954604229814583	9.709377118545834	-3.2373537779333335
O	-8.298905230185417	10.674665398545834	-5.425223257933333
O	-6.212149920185417	7.729064488545834	-4.332869187933333
O	-6.876140130185417	1.6221819875458339	0.22201255156666644
O	-8.112454370185418	-0.433451651454166	2.9187726320666667
O	-10.047694690185416	2.1863242285458337	4.664228202066667
O	-10.837401510185416	4.385705108545834	1.7668669720666663
O	-9.497173970185418	7.3340456685458335	-0.22599703093333354
O	-7.550302110185417	10.551176808545833	0.11127526436666645
O	-7.3808346801854166	13.642617538545833	-2.0578300879333336
O	0.22368973981458296	11.123547538545834	3.411672712066667
O	2.211044879814583	10.312607268545834	6.5019425820666665
O	5.042481919814583	8.663881158545834	4.480560162066666
O	6.840750509814582	9.345510338545834	1.3210154920666664
O	6.261014999814583	6.412100598545834	-1.0259514279333337
O	8.218582029814584	5.459997098545834	-3.9763284879333334
O	5.907952569814583	3.4271844885458336	-6.168914047933334
O	6.769558179814584	1.349421329545834	-9.230816367933334
