78

O	0.16455832409302285	1.9503962372093022	-1.7611686826302329
O	-3.2020500959069773	0.5447716052093023	-0.42361777833023284
O	-1.8280307899069772	0.9352239832093023	-2.4474783426302325
O	-0.7407575299069772	-2.5740199627906977	1.6557476173697672
O	0.5580049740930231	0.9183677442093022	-3.240272822630233
O	-0.6446796819069771	-1.4923546027906978	0.4508873883697672
O	-3.097788365906977	-0.7609355127906978	-2.195936402630233
O	-2.693165145906977	0.2551093185093023	-1.6640381926302328
O	-5.110026135906978	-1.2992790727906978	4.146219897369767
O	-3.345187225906977	-1.8981458527906978	1.513337247369767
O	-0.5033446549069771	0.6457196642093023	-2.3177412226302327
O	0.4010075940930229	-3.2406233627906973	2.1741121273697672
O	-3.154480935906977	-0.11943682679069773	0.7942022273697671
O	-1.562701561906977	-3.643501712790698	1.0674514173697671
O	-3.058843705906977	-1.4878975027906978	0.28831028236976713
O	-0.6708229259069771	2.7585095772093027	-2.584600382630233
O	-1.7712057459069772	-0.0893377867906977	1.295238317369767
O	-1.5131091352069772	1.2241971512093022	1.224262327369767
O	-1.8781912309069773	2.0850742072093023	0.31239940836976715
O	-1.2971932389069771	1.7363766172093023	2.4412581973697676
O	-1.6875691589069772	3.401667937209302	0.38355633136976713
O	-0.7529376959069771	2.967758517209302	2.4638105173697675
O	-0.7766610889069772	3.7146818272093025	1.333366917369767
O	-1.7455917509069772	-1.5255640827906978	-0.3670759250302328
O	0.46360577409302284	-1.0062327927906978	-0.1333136146302328
O	1.2712130540930229	-0.1590886277906977	0.6564568223697671
O	-1.309702698906977	-2.1813197927906973	3.208877527369767
O	-2.007343665906977	-3.147927252790698	3.8467873573697675
O	-3.181615015906977	-2.7735443427906974	4.579934437369768
O	-3.738694715906977	-1.4832222627906977	4.382562497369768
O	-2.672075235906977	-0.6090518037906977	4.352490377369767
O	-1.3890862659069771	-1.0546566827906978	3.920569067369767
O	1.045021744093023	-0.6614940577906977	2.018420977369767
O	1.377283394093023	1.2640440942093023	0.5801594293697672
O	-0.28977527590697716	2.1150389472093023	-3.7838225226302327
O	-1.2124516299069772	-12.289688992790698	-0.4363449445302328
O	1.223871104093023	-9.635498112790698	0.6929301073697671
O	4.687861214093023	-9.099556572790698	-0.8821073606302328
O	4.666238244093023	-5.371040192790698	-1.2800078766302327
O	7.599812204093023	-3.4016668127906975	-2.6415717026302326
O	2.9627966440930225	-1.6438864127906978	-4.597518412630233
O	0.7783992640930228	-3.2792333727906975	-9.300935882630233
O	-0.5868244539069771	-6.559012172790697	-8.214262452630233
O	-4.155295435906977	-6.154894502790698	-7.003992862630232
O	-5.871731145906977	3.0256000972093027	-10.124737322630233
O	-5.884671415906977	5.499360027209303	-4.190561802630233
O	-6.5179111959069775	7.581395327209303	-1.0958510496302327
O	-11.704550905906977	-3.3313696227906977	-4.028670472630233
O	-8.377133625906978	-3.784804822790697	-2.4640405926302327
O	-8.020539765906978	-3.9812872727906976	1.237674097369767
O	-5.8985553759069775	-7.184648852790698	0.7728297973697671
O	-4.329366675906977	-9.202367392790698	-1.871665202630233
O	-1.0441738199069772	-7.729057282790698	-2.923524822630233
O	1.8005792140930228	-8.775913432790698	-5.040429922630232
O	3.3145103640930227	-5.585913772790698	-6.334206782630233
O	6.514928014093023	-4.9524838727906975	-8.270185522630234
O	10.052234294093022	4.656763097209303	-0.7393720026302328
O	11.203130494093022	1.4782765372093023	1.0488686973697672
O	7.832897544093022	-0.25696953479069773	1.461259237369767
O	7.550637004093023	-3.849272502790697	2.7874078673697675
O	3.602026064093023	-0.4594465057906977	4.816409617369767
O	4.023090864093023	2.2528810172093023	9.513966387369768
O	6.256092344093023	5.069607287209302	8.230098617369768
O	-6.480478455906977	7.7564213672093025	10.657044437369768
O	-4.826533935906977	5.526985087209303	8.222543197369767
O	-6.417390095906977	1.9285494672093022	1.9787178273697672
O	-7.842977415906977	1.4425430572093023	-1.525081312630233
O	-9.880664555906977	4.558271197209303	-1.783455042630233
O	-10.360064215906977	5.3671141372093025	1.8722959273697672
O	-8.559511085906976	7.121747487209302	4.779174567369767
O	-6.572308765906977	10.240095387209301	5.656980907369768
O	0.813085574093023	11.921742807209302	1.4360893473697671
O	2.309161354093023	12.257780407209301	-2.0464066426302328
O	5.241069914093023	10.020609717209302	-1.1668148586302327
O	7.085465934093023	5.928976207209303	2.9136509073697674
O	9.457732194093023	3.899107917209302	5.044939007369767
O	7.302845884093022	1.0729486122093022	6.501114507369767
O	8.264668244093023	-2.0787642327906974	8.337749787369768
