95

O	0.9724997639183677	-2.3004217951428574	6.239204167081633
O	-0.8079794992816324	-1.332671945142857	4.321623877081633
O	-2.0405284960816323	-0.5127011051428572	6.035317047081633
O	0.19939179791836759	-2.2168522051428567	3.949681587081632
O	-0.24750951908163238	-1.701947845142857	6.693306287081633
O	-1.2503959880816322	0.36754173585714295	2.705912607081632
O	-1.0823989040816324	-1.200152595142857	5.691057787081633
O	-0.062453327081632315	-1.268688615142857	1.8462232770816325
O	1.5090747339183674	1.279653679857143	2.487219557081632
O	2.6007947339183675	1.882532924857143	-1.9750743929183678
O	1.7952193939183676	0.9250470068571429	0.029473424081632282
O	0.11748608091836765	2.617012004857143	0.1069646570816323
O	3.259302293918368	0.737785458977143	-1.7339897729183678
O	2.5557625139183675	2.569504034857143	0.6753254450816323
O	4.320735423918368	0.3131150748571429	-2.451515302918368
O	4.937706453918367	1.3886143868571428	-3.091031342918368
O	4.108430023918368	2.253201714857143	-3.7105314629183677
O	2.9133174339183676	2.469458334857143	-3.135400732918368
O	-1.9465248860816324	-1.528582235142857	3.529060377081632
O	-1.1788562910816323	-0.793092025142857	2.468103047081632
O	0.08180803191836761	-0.5631510251428571	0.6273109540816323
O	-2.2822302660816325	-2.608819595142857	2.583838827081632
O	-2.1902975360816326	-2.1987875551428573	1.0703886000816323
O	-0.9742630490816324	-3.271499475142857	2.334092997081632
O	3.9226376339183675	-2.029400795142857	0.0366732540816323
O	3.958871193918368	-2.4174317151428575	1.3407487370816322
O	2.8564875639183676	-2.840586535142857	1.979620047081632
O	1.7341788939183678	-2.3998659351428575	1.4094092270816323
O	1.6395542239183678	-1.7939571751428571	0.2505890620816323
O	2.7147924439183675	-1.925552855142857	-0.5143212819183677
O	0.44841938391836766	-1.312079835142857	-0.5147426019183677
O	-0.47805751908163235	0.6785395948571429	0.7843847920816323
O	-0.33181631808163237	1.386893285857143	-0.4192774259183677
O	0.9148919839183676	0.846451259857143	-0.9731196329183677
O	2.6846946439183674	1.342063243857143	0.8594845740816323
O	2.581721723918368	0.5829285268571429	2.123811787081632
O	0.7989234539183676	1.327963942857143	3.577744757081632
O	1.1284407339183675	1.8511844048571429	-1.9710697529183676
O	0.4327247739183677	2.637961844857143	3.981535687081632
O	-0.2116927800816324	2.666259484857143	5.229214667081632
O	-0.12344367108163234	1.481225525857143	5.845633387081633
O	1.2081528839183677	1.0065744348571428	5.931175447081633
O	1.5317535839183676	0.678144975957143	4.612090657081633
O	2.3525963839183675	-0.43596288514285697	4.102618357081632
O	-0.33584547208163235	3.253005854857143	2.9280929170816323
O	0.5119637539183677	-3.0995935451428567	4.986392247081633
O	-4.541176656081632	11.406468134857143	-4.0759466429183675
O	-4.203555456081633	7.752820974857143	-5.083163252918367
O	-7.125459936081632	5.349036894857143	-5.379417682918367
O	-5.862995846081632	2.362465334857143	-3.649019132918368
O	-7.820624356081632	-0.859598785142857	-3.3388041729183677
O	-5.764647586081632	0.3854531558571429	1.3028434220816323
O	-7.678346336081632	3.3138710748571425	5.275559377081633
O	-7.494129946081633	6.705092874857143	3.859855967081632
O	-4.247013866081632	8.447448364857143	4.868132167081632
O	-1.1744897690816325	2.0427478648571427	12.091744407081631
O	3.6944518839183678	-0.42780911514285713	8.208268487081632
O	6.829372053918368	-2.021201465142857	6.710939527081632
O	3.7501538139183674	4.105762734857143	12.738398107081633
O	3.937998463918368	10.097108214857142	7.223371447081632
O	2.4771529539183677	8.465467074857143	4.247423057081632
O	4.3827618439183675	8.114698924857143	1.2044308120816323
O	1.4572285839183676	9.762122414857144	-0.6984497029183677
O	-2.093718866081632	10.734927034857144	-0.20801398991836773
O	-4.223718536081632	7.650548344857143	-0.47668615491836774
O	-7.894357666081633	6.989731574857143	-0.6742237639183677
O	-8.448403556081633	3.571210724857143	0.7817252470816323
O	-11.520711206081632	1.2802635258571429	0.8765951460816324
O	-14.017265506081632	5.866111864857143	1.3359427770816321
O	-13.759137106081631	3.946637194857143	-1.976915262918368
O	-3.598248266081632	-12.735609665142857	-3.6916759029183677
O	-4.826376796081632	-9.090555105142856	-3.173875032918368
O	-5.812536416081632	-6.992818195142857	-6.124775892918367
O	-4.042307586081632	-3.7552170851428572	-5.2588871329183675
O	-4.481479986081633	-0.6704317651428571	-7.447909082918367
O	0.5422362839183676	-1.440970305142857	-5.917997932918367
O	4.498648173918368	-3.9170028051428565	-8.983160282918368
O	3.4501332239183675	-7.417632165142857	-7.986795652918368
O	5.037459683918367	-8.762401565142858	-4.821856142918367
O	14.477683393918369	-2.566397925142857	-2.2581854829183676
O	10.833147293918369	-1.672604775142857	-2.095915582918368
O	6.1149689739183675	2.2903826748571428	2.1964674970816325
O	4.9608149439183675	3.8999237348571425	5.376863837081633
O	7.359515933918368	2.445444024857143	7.854228787081633
O	10.07947819391837	1.791631944857143	5.452108417081632
O	11.543718893918367	-0.6609027651428572	2.9725258770816323
O	12.172989693918367	-4.354750425142857	2.4993835370816324
O	14.618376193918369	-6.305983715142857	0.3734640510816323
O	5.807093163918368	-9.967162765142858	2.4138659170816323
O	2.833831963918368	-11.024594665142857	4.462122747081633
O	0.4755397139183677	-10.886097965142858	1.4631552870816322
O	0.5912294639183677	-11.813678965142858	-2.1641421729183676
O	-0.03819943108163237	-8.534807285142858	-4.017794462918367
O	-1.1691425990816324	-8.155151645142857	-7.547067872918367
O	-0.0879415070816324	-4.743995765142857	-8.738737512918368
