89

O	3.2566996039607843	4.48545564772549	-1.6267270346666671
O	2.2445528639607844	3.8150598677254903	-0.8910418006666673
O	2.3584208739607844	3.16539999772549	0.30762753133333276
O	1.2424459739607845	2.5533064677254904	0.7988906013333328
O	0.1487510569607845	2.42901829772549	0.062072194333332775
O	-0.14496699603921548	3.5920969877254905	-0.5373061246666673
O	0.9473510939607844	4.27530873772549	-1.1047152036666672
O	-1.0951553800392155	1.4795971677254902	0.6632855813333327
O	-2.2330190160392154	1.6294309577254902	-0.1406872276666672
O	-1.2759923950392156	1.6820775977254903	2.023421791333333
O	-0.5710670735092155	-0.10565337627450982	0.38008407133333266
O	-0.7312302740392155	-0.6832318722745099	1.554624201333333
O	0.07185032896078447	-0.031869119274509805	2.545188911333333
O	1.0729247739607843	0.8845642437254901	2.8734770213333327
O	0.6887685039607846	-1.3592325422745097	3.0249126313333328
O	-0.2982114520392155	0.0564182997254902	-0.9148754616666672
O	1.1896564739607847	0.3890299715254902	-1.0448381156666673
O	1.3550391839607845	1.2130927287254902	-2.015309008666667
O	1.3770388939607847	-0.9263108922745098	-1.5234557226666672
O	1.8972588339607843	-2.07950239227451	-1.8882423186666673
O	1.1643130739607845	-3.3135630722745097	-1.9385718186666672
O	0.1620955449607845	-3.2577931922745096	-2.6397510186666673
O	0.9200449439607846	-3.8657092422745096	-0.7062731793666672
O	-0.12402503303921547	-4.52944929227451	-0.1316306756666672
O	-0.2152083840392155	-4.01230940227451	1.2459878613333328
O	1.1211188039607847	-4.107717622274509	1.574708151333333
O	1.4987564439607843	-5.307079572274509	1.1750798113333327
O	2.7861982139607844	-5.2084701722745095	0.7081238013333329
O	2.8080555139607846	-5.12035083227451	-0.6465501996666673
O	1.5949079339607843	-5.89009287227451	-1.0272995996666672
O	0.6721942639607844	-5.85353935227451	0.09825497533333272
O	0.8330102439607846	-1.4870454122745098	-0.16132161666666722
O	2.7830173939607845	-0.04675419027450983	0.4469738613333327
O	3.7485717239607843	0.2547502208254902	1.3627586813333326
O	3.9399014939607846	-0.7605971322745098	2.2548418513333326
O	3.7067660939607845	-2.06849348227451	1.8125434413333326
O	2.984378573960784	-2.1538099722745097	0.6686039713333327
O	2.1019640339607846	-1.2273681522745097	0.4404786413333328
O	-9.432486046039216	5.3937555277254905	-7.848102458666667
O	-8.591244006039217	5.10959321772549	-4.165145968666668
O	-10.384928816039215	2.8403329177254903	-1.6926490196666673
O	-7.607716736039215	1.1579976017254903	0.06319274133333275
O	-8.264302066039216	-1.2999775722745097	2.918806921333333
O	-4.351806606039215	-3.14942791227451	-0.40382219566666727
O	-5.393727246039215	-6.35344680227451	-4.604504598666667
O	-6.920932116039215	-3.95168846227451	-7.0449976486666674
O	-4.296525056039215	-2.35078000227451	-9.305882198666668
O	3.2293906039607845	-8.53762467227451	-7.050650778666667
O	6.4355171539607845	-4.28412240227451	-3.351021278666667
O	8.907425683960785	-1.9901631922745096	-1.5542678946666673
O	12.245846353960784	-3.4620434022745097	-1.7440411006666672
O	7.077532003960785	-5.9228643822745095	-9.487955918666668
O	5.600451023960785	-7.19931451227451	-12.791303068666668
O	3.1546356639607844	0.6617279367254902	-12.299177668666667
O	1.1007165239607843	1.6875113977254903	-9.333359838666668
O	1.4871915939607843	5.1645504677254905	-7.953155638666668
O	-2.3657417960392153	5.6116187277254905	-8.245001818666667
O	-5.402512886039215	3.5403742377254903	-9.158226948666668
O	-6.336534226039215	1.4889152177254903	-6.107640658666668
O	-9.310897996039216	-0.5987037752745099	-5.188628748666668
O	-8.144890616039216	-3.27264621227451	-2.7980644386666675
O	-9.932338766039216	-5.7803912622745095	-0.6107463356666673
O	-10.689724546039216	-8.237264972274511	-3.357044838666667
O	-13.992216346039216	-3.90222031227451	-1.5599157836666673
O	-1.4380946320392156	-3.17178148227451	13.345247931333333
O	-3.4233307660392156	-2.85515717227451	10.065932031333332
O	-6.155946256039215	-0.2674215742745098	9.657991431333333
O	-5.210745606039215	1.1280124157254903	6.232525541333333
O	-7.484621436039215	3.70928314772549	4.519745231333332
O	-2.2105603160392153	4.666819037725491	4.085484821333332
O	0.5670326139607845	8.26734987772549	7.282968881333332
O	1.1763184139607845	5.71816392772549	9.999283531333333
O	4.258854343960785	3.5818259577254903	9.627111731333333
O	8.233597033960784	7.13289807772549	1.8111014213333327
O	5.128871463960785	2.53084757772549	-3.4247494986666673
O	4.904124633960785	0.07408035772549018	-5.985633088666668
O	8.489708173960784	-1.0157902022745098	-6.005153328666667
O	9.999212653960784	2.04415467772549	-4.584168228666667
O	10.879181653960783	3.8516210577254903	-1.3709636586666671
O	12.217653953960784	3.29392708772549	2.0918273413333326
O	13.862401553960783	5.57669432772549	4.5915119813333325
O	11.848276353960784	-1.2629217322745097	8.091339521333332
O	8.344475793960784	-2.1000403922745097	7.428740921333333
O	7.050895963960785	-5.65256937227451	7.730564831333332
O	3.7217690639607848	-4.43901676227451	9.144722321333333
O	2.5234105639607844	-1.84793787227451	11.552532831333332
O	0.21695475796078456	0.45798417772549016	9.551144631333333
O	-2.3691653060392155	2.7805177077254903	10.926729731333333
O	-2.9504554060392154	5.43475974772549	8.307468321333333
