42

O	22.229496526921075	-2.7318419277468937	17.711913532576595
O	22.68875841823058	-3.5719797899229606	18.50516345274908
O	20.95222281637188	-2.834587958330534	17.054184567951108
O	20.99968798092004	-2.508457201564571	15.730968498309064
O	22.043850625226735	-1.6335120127158012	15.175512761167361
O	21.568579948448868	-1.3257004543803732	13.879112571564388
O	21.902395888786224	-0.4087335762807791	15.923707694649867
O	20.855313596880585	0.32160220097988645	15.398946567765513
O	22.05542836253305	-0.3833328574231969	17.399774792358883
O	22.860521731818626	-1.4973076273345896	17.710710747615305
O	20.473642739568216	-4.120018050923654	17.677578239692124
O	21.269577004535503	-4.7589219673368195	16.6892268218977
O	20.759441821807194	-5.8463818500191795	16.174461244707576
O	20.795005358369696	-6.051677666414938	14.86128083610133
O	21.216060212360706	-5.066470442882768	14.10171033601095
O	22.427239863178666	-4.715040926073325	14.720852037082532
O	22.33804528105154	-4.323019769452217	16.025036894152418
O	21.00786175347395	-5.098454756982335	12.667156339412678
O	21.59437789535358	-3.857899775836424	12.500110780367866
O	19.822456742619025	-1.6993637801196286	15.450561348239402
O	19.032757527003607	-2.750650268967067	16.096963503127927
O	18.109508109344553	-2.387661268523461	16.94792231758843
O	17.413570293321754	-3.2601474708803075	17.68021348169798
O	17.463844475168592	-4.500974170053633	17.145168263586847
O	17.850244494363146	-4.714589889684994	15.855160563555394
O	18.675553554746095	-3.7645756829944625	15.357069906106936
O	20.68267972476732	-0.40622453064006914	17.571725999406596
O	20.00334644568323	-1.0698157932058099	18.583606026599295
O	18.90801241547189	-0.3555192208239739	18.786857754271768
O	18.389472278076227	-0.398122002908206	20.028182030924455
O	18.6738685813538	-1.4234028298903372	20.858200135717563
O	19.206777020363347	-2.545420495123058	20.308518557298793
O	20.04925904787577	-2.1756374697195264	19.392747803204205
O	23.458388342382925	-1.5853219389439541	19.177912677474612
O	22.412303875896267	-0.7385172208214191	19.75995165621369
O	21.737825431349798	-0.34716635072282065	20.84291935572864
O	21.09292314297834	0.8529102234807233	20.87324104095671
O	21.101185871529566	1.6019868534399375	19.742307382678263
O	22.425376228476985	1.5801961943967586	19.445799167758445
O	22.98474401020125	0.3495551356886937	19.349097084674256
O	20.36772141925163	2.627231600096402	19.06105053701104
O	20.58572820753794	2.4863553553429476	17.717295723573994
