77

O	1.0949556852375	0.22050886167291622	-1.7777555481249998
O	0.17360518823750004	1.2859335006729162	-2.2215219881249997
O	-0.11638296376249996	1.6115769966729163	-0.7470104961249998
O	1.1797426152375001	1.5652497566729162	0.014119002075000137
O	2.0767072752375	1.200475560672916	-1.2216359681249997
O	1.3756438152375001	0.4807933007729162	0.9603128218750002
O	1.3135821352375001	-0.6533656633270837	0.21203718887500012
O	2.4767241752375	-1.1909895533270838	-0.034307366124999863
O	3.6038671552375	-0.4510345273270838	0.5058835218750002
O	3.4992648452375	0.2679283286729162	1.6342949618750002
O	4.4200708252375005	0.2023599476729162	2.6243779218750003
O	5.3195857852375	-0.8654502933270838	2.6844662818750002
O	5.7363806152375005	-1.1549968133270838	1.3802030318750003
O	4.9041886352374995	-0.8335107233270838	0.28828970787500013
O	-0.6676402588624999	0.2306999466729162	-0.3184441241249999
O	-0.6637335046624999	0.44665031427291624	1.1284422318750003
O	-1.0744225887624999	-0.9566570933270837	1.8644462718750001
O	0.3133587322375001	-1.5444477033270838	2.713807891875
O	0.9667011652375002	-2.7070479033270836	2.536609891875
O	1.7639139752375002	-3.1612829833270837	3.5516362418750003
O	2.5428551052375	-2.140499373327084	4.111551661875
O	1.8045599252375002	-0.9907570633270837	4.372645991874999
O	0.7772419852375001	-0.6051112333270838	3.591610711875
O	-1.2413246387624999	1.6544238266729163	1.2869758418750001
O	-2.3965822747625	1.7295063866729161	0.3921670948750001
O	-2.8535937347625	0.36989553867291625	0.16515565497500012
O	-2.6417526147625	2.4606064866729165	-0.8421286741249998
O	-2.2080786347625	-0.5386856833270839	2.6231778818750002
O	-1.3775143157624998	-1.946971263327084	0.8516545568750001
O	-9.0480874747625	6.5385964566729164	8.145134311875
O	-8.5395472447625	3.3914134266729166	6.096551211875
O	-8.4548668947625	-0.08936153432708382	7.609181301875
O	-5.407138904762499	-1.5417551133270837	6.021041621875
O	-4.3789814747625	-5.159620853327084	6.625102391875
O	0.06713958723750002	-1.994497983327084	6.859221851875
O	1.8773395152374999	0.4921718173729162	11.262673541875
O	-0.6816221137624999	3.1524022266729164	11.661233741875
O	0.23411564923750006	6.320078976672916	9.783026271875
O	9.7517181752375	4.520206246672917	7.865917781875
O	8.3579902752375	3.836336516672916	1.2543838818750002
O	8.222828495237499	3.415297776672916	-2.525106308125
O	3.1883642352375	12.298582096672916	4.459411701875
O	0.8676812752375	9.377418436672917	3.906502181875
O	-1.5235091267624998	9.468276026672916	0.9403814368750002
O	-4.3925297747625	8.842612086672917	3.424241501875
O	-4.8490378547625	8.097886176672915	7.124302951874999
O	-4.2031131147625	4.365523746672916	7.579972981875
O	-4.9234672147625	2.091163546672916	10.493200041875
O	-2.4710468347625	-0.7349112833270839	10.408692741874999
O	0.8234211952375001	-13.148695803327083	-1.4466795881249999
O	-0.49192155816249994	-10.615019503327083	1.1228471218750002
O	-4.2234873047625	-10.099619903327083	1.5288489718750002
O	-4.4148905947625	-6.312745453327084	1.5651859118750002
O	-7.590884484762499	-4.397129843327083	2.311637861875
O	-4.867297204762499	-2.028449553327084	-1.8014219681249999
O	-5.3887892047624995	-3.0574004933270835	-6.958608168125
O	-3.4678397747625	-6.336353263327084	-7.083762688125001
O	0.26554775223750005	-5.978654123327083	-7.6618915081250005
O	0.5654654852375001	2.3409912966729163	-15.430004058125
O	2.0941975152375	4.143918676672916	-12.479430758125
O	1.0056794252375	3.321804676672916	-8.970303738125
O	2.1454496152375	5.484803026672917	-2.0177083581249997
O	4.235743505237499	7.020432386672916	0.7248813868750001
O	7.488384625237499	7.696457896672916	-0.9887104881249997
O	6.223881705237501	7.915605406672916	-4.485493308125
O	5.4020696952375005	5.7600308066729164	-7.483822648125
O	6.5693450352375	2.794418296672916	-9.494420668125
O	5.9812898852375	1.7598350566729162	-13.068797058125
O	9.2094401252375	-4.2963642333270835	-8.973103368125
O	7.366415025237501	-4.837327773327083	-5.789161338125
O	8.964174025237499	-6.839624023327084	-3.0070042681249998
O	5.6543501052375	-8.577464773327083	-2.163236118125
O	2.7576572952375003	-9.957152003327083	-4.029077828125001
O	-0.33793021476249996	-7.981094363327083	-3.0342631181249997
O	-3.8836796747625	-9.098570573327084	-3.3469721181249996
O	-6.0475838747625	-5.973265553327083	-3.435289798125
O	-9.7324373047625	-5.391185083327083	-3.099305438125
