79

O	0.756016435132	0.6529846754360007	0.33389456839999976
O	0.07303341613199998	1.5677047584360007	-0.37965732550000025
O	-0.737769661868	2.173789564436001	0.5803163493999997
O	-1.503434464868	1.2860364584360007	1.4070546093999998
O	-1.1523991838679999	-0.14318234556399934	1.3983603593999998
O	-2.023422364868	-0.9890716055639992	0.7848027493999998
O	-1.962599224868	-2.2838538755639997	1.0832086293999998
O	-3.242098484868	-3.0666062355639996	0.8965689993999997
O	-0.805360618868	-2.6887769555639993	1.6667846493999996
O	-0.15508498686799999	-1.854823565563999	2.4895153193999997
O	-0.862415110868	-0.6528768155639992	2.6960073093999997
O	0.18793647313200001	3.1792498644360005	1.1455676093999998
O	-0.412483225868	4.085708874436	1.6804369594
O	1.3073448251320001	2.4867287044360005	1.8017937893999998
O	1.534595895132	2.8555797244360006	2.9418416294
O	1.055177755132	1.0404239234360007	1.5809963493999997
O	2.159558095132	0.22931982143600071	1.9987024893999996
O	3.188092255132	0.9393201364360007	1.1757007693999997
O	2.865873665132	1.1690530374360006	-0.11786280360000023
O	3.155806965132	2.294819204436001	-0.7299717456000002
O	3.363021855132	2.2450355944360005	-2.1775241006000003
O	3.344439345132	3.426189004436001	-0.04668464560000024
O	3.9386340751319997	3.2674720344360004	1.1592292393999997
O	3.6538347651320002	2.061848494436001	1.8028254693999999
O	-0.8640429488679999	0.6296659784360007	-1.0210560096
O	0.0020237741320000557	-0.3525825355639993	-1.5033525706000002
O	0.8990341851320001	-0.5744293555639992	-0.3633987655000002
O	2.414919605132	1.2542124764360008	-2.5179222106
O	-4.157669114868	-2.2040406455639996	1.4445798993999999
O	-11.990447624868	3.383963374436001	-4.0414025806
O	-9.167795664867999	0.9796940202360007	-4.838114760600001
O	-7.000629144868	1.2320835304360007	-7.9530074306000005
O	-3.604804044868	0.7954119718360007	-6.507024530600001
O	-0.505645234468	0.6922014124360008	-8.721326640600001
O	0.323726032132	3.8235007044360003	-4.4684847006
O	-0.427736849868	8.955723334436001	-3.9329196706000005
O	-4.151906544868	9.168338174436002	-3.8607127106000005
O	-5.546786934868	9.153851834436	-0.2997786306000002
O	3.422090415132	10.738811004436002	4.3623573694
O	3.7330851951320003	4.554865554436001	6.6544648894
O	4.313846215132	1.2032215004360007	8.4001442494
O	6.563288495132	1.7982288134360007	11.2818430194
O	1.5567600151320002	9.838772804436001	9.4056370794
O	-6.300521334868	7.754260454436	8.2186989394
O	-6.124027794868	5.380600654436001	5.3718278694
O	-7.275231914868	1.8368355574360007	5.630536879399999
O	-9.260693514867999	2.3911419644360006	2.4009983093999994
O	-9.840445874868	4.972599854436001	-0.27116154660000025
O	-7.088152814868	4.6086073744360005	-2.8095206906000003
O	-6.376735674868	5.947013834436	-6.2226750406
O	-2.615003844868	6.048356244436	-6.6621990006
O	-0.37951816786799997	6.660412864436	-9.683281450600001
O	-4.200396864868	10.049906764436	-10.8537137806
O	-3.938912174868	6.5839327844360005	-12.4774874806
O	9.915864275132002	-6.236593055564	-7.2185215306
O	6.895164735132	-3.8999685755639995	-7.568357000600001
O	3.7266054751319997	-4.951665275563999	-9.310996450600001
O	1.0766495551320001	-3.8403756455639995	-6.821021050600001
O	-2.657210154868	-4.121480475564	-7.6155123706
O	-1.601594544868	-5.618421375563999	-2.5808242606
O	-0.673007680868	-10.659857085564	-0.8514862756000002
O	2.9655456651320002	-10.791509285563999	-1.9460938306000002
O	5.502637545132	-9.552892885563999	0.5676858793999997
O	0.540679385132	-9.659445085563998	10.8680099194
O	-0.03556599386799997	-7.382041595564	7.8835677994
O	-1.572129484868	-0.29515207556399936	6.4253662793999995
O	-1.4334701348680001	3.414054624436001	7.099456419399999
O	0.7479545251320001	3.582083294436001	10.1155210194
O	0.13979918513200007	0.13684483743600073	11.3746720194
O	1.312466475132	-3.448649515563999	11.0391652194
O	4.381261435132	-5.603606415563999	10.7473218194
O	5.065948375132	-9.208239885563998	11.5774499194
O	9.692179275131998	-4.609355455564	4.1465810594
O	11.750311375132	-2.0457161755639994	2.2293385994
O	10.372589975132001	-3.2366771355639994	-1.1399346496000002
O	9.583419075132	-6.594466095563999	-2.7152594306000006
O	5.826251465132	-6.515191055563999	-3.5030790606
O	4.007061395132	-8.653179465563998	-5.965143650600001
O	0.35318445413200006	-8.760835525563998	-4.9616043506
