84

O	2.392272230553192	5.080509979774469	1.482893188319149
O	1.1051188405531915	5.2954109297744685	1.083094938319149
O	0.5612909805531917	4.601059819774468	0.05890993531914901
O	1.133052210553192	3.411955059774469	-0.252920406680851
O	2.2458728605531917	3.0098373997744687	0.49532527531914905
O	3.030968490553192	4.024655639774469	0.9000647083191491
O	2.932947540553192	1.8006083867744684	-0.03413989768085096
O	0.5190423605531916	2.4710603807744684	-1.1519651046808508
O	0.9317462205531918	1.1675631867744685	-0.9574011556808509
O	0.24761706055319177	-0.04640231022553154	-0.9126146626808509
O	0.16554877055319173	-0.9468859902255313	-2.045349691680851
O	-1.0979805144468082	0.3810488697744685	-0.798755190680851
O	-1.0787854664468082	1.4640064087744684	0.16180920731914905
O	-0.15529361844680828	1.0621233627744684	1.0903964383191491
O	-0.19444306644680825	1.2551499447744685	2.4310750183191487
O	-1.5881901484468082	0.5815283397744684	2.570051938319149
O	-1.2178588524468084	-0.7691208302255315	1.480548438319149
O	0.5103015805531917	-0.17927966022553155	1.226554858319149
O	0.4041877535531917	0.20416605977446856	-2.989093641680851
O	1.730386060553192	0.5277291197744685	-2.8876861416808506
O	2.184189330553192	1.3433561237744684	-3.854970431680851
O	1.7597740305531917	1.0892763187744685	-5.129886601680851
O	0.6290843605531918	0.37806306977446846	-5.271572431680851
O	-0.08660271844680822	0.043476609774468544	-4.181874161680851
O	-1.5256536134468082	0.5302480297744685	-2.004618931680851
O	-1.9715150794468084	2.2316691267744684	-0.16349072468085096
O	-1.4990566074468084	0.7049398487744685	4.007446578319149
O	-2.542716379446808	1.4868492617744684	2.0099285783191494
O	-0.5002997269468082	2.5854741887744686	2.5815666083191493
O	-0.9880401594468082	2.9331747497744685	3.914946498319149
O	-0.9676311084468083	4.296705069774468	4.2418227983191485
O	-1.2074435964468084	3.2574704997744686	1.829756588319149
O	4.334059250553191	3.9875629097744683	0.378415863319149
O	-0.17520892044680825	2.678697709774468	-2.117713501680851
O	0.42259255055319167	4.930550189774468	4.3233286683191485
O	-1.5620627044468083	5.032227319774469	5.381499708319149
O	-1.4443404094468084	5.046160599774469	2.980752138319149
O	-10.810825349446809	-3.3337553302255314	-6.867428451680851
O	-7.847390709446808	-4.692280890225532	-4.920252511680851
O	-8.156574309446809	-6.621704600225532	-1.6688205716808509
O	-5.576422069446808	-4.983624850225532	0.4367796043191491
O	-4.8491780794468085	-6.199462770225532	4.016379918319148
O	-5.2468073994468085	-1.1435305502255315	3.487719008319149
O	-9.767915389446808	2.1087805517744687	4.696818558319149
O	-11.420034949446809	1.5848244843744685	1.457925478319149
O	-10.565973519446809	4.208876539774469	-1.200179261680851
O	-5.7167651194468085	11.21544349977447	4.271647048319148
O	0.5739935505531918	9.435788329774468	1.732672618319149
O	4.173425430553192	9.071327149774469	0.377527015319149
O	-6.438237779446808	10.188866829774469	-5.9746631416808516
O	-5.716431139446808	6.615030189774468	-5.186512851680851
O	-3.662848309446808	4.8288011797744685	-7.594496111680852
O	-6.316998339446808	1.9971138537744686	-7.814098781680851
O	-9.538114989446807	1.0583667997744683	-6.1766982216808515
O	-8.780649769446809	-0.6011535502255314	-2.8710954416808505
O	-10.796854949446809	-2.5119179702255314	-0.3967312896808509
O	-9.221172259446808	-2.0412818902255316	2.9759685283191493
O	-9.873259899446808	-3.8389597502255315	6.297907928319149
O	6.3402603605531915	-6.507392810225531	9.847956358319149
O	2.8833908005531916	-6.022514970225531	8.19139993831915
O	1.3947553905531915	-8.806419130225532	6.123116898319148
O	0.18715068455319173	-6.901687820225532	3.0988059983191487
O	-1.826939519446808	-8.526234630225531	0.263576089319149
O	1.9256000105531919	-5.291434020225531	-1.649128131680851
O	7.087478030553192	-6.606639680225531	-3.153165211680851
O	8.516720500553191	-6.605960000225532	0.30431188631914907
O	9.848641750553192	-3.2835495302255318	1.5393139283191493
O	11.590036350553191	3.9316237397744684	-7.317968081680851
O	8.439554400553192	2.7070582097744684	-5.707150501680851
O	1.4688755205531918	5.450971369774468	-3.989779831680851
O	-1.1045677394468083	7.815650279774468	-2.9082339716808505
O	1.1431136205531915	10.759737859774468	-2.5800736216808513
O	3.995964160553192	9.771005639774469	-4.830184631680851
O	7.239449670553192	7.778312109774468	-4.846034801680851
O	10.319052850553192	6.967577809774468	-2.8213915316808507
O	13.788895950553192	5.771089719774468	-3.7328142616808506
O	9.801323050553192	3.2578735497744686	4.821420768319149
O	8.188166720553191	3.6524299997744682	8.175349948319148
O	7.010114540553192	0.017410369774468526	8.25975772831915
O	8.337577630553191	-3.3121397702255315	7.323005708319148
O	5.9814746105531915	-4.663107110225532	4.633258088319149
O	5.715804850553192	-8.263755600225533	3.668062558319149
O	4.322833650553192	-8.291028410225532	0.14962292331914906
O	2.960307500553192	-11.14442443022553	-1.943403311680851
