88

O	3.7559105083877555	-2.615210176726531	4.42091874367347
O	2.7021872583877555	-3.370916136726531	4.13467552367347
O	2.1765097483877556	-2.8082954467265306	3.0560186836734697
O	1.2690311483877554	0.7529956732734691	1.1947899436734697
O	2.2323395383877553	-0.5463688117265308	1.8574587936734697
O	2.4611764983877555	-1.566233366726531	2.8289449936734696
O	3.3534240083877553	-1.409047786726531	3.9198144736734695
O	1.3588010683877556	0.42394516683346906	-0.37180803432653037
O	2.6242913783877553	-0.03651737172653097	-0.39981990632653036
O	3.141303698387756	-0.42654414172653093	0.7873477406734697
O	0.49071373838775556	0.6664140522734691	-1.7213738363265303
O	-0.12050515161224462	1.985416503273469	-1.7200716663265303
O	1.3765607983877555	0.672383610273469	-2.8762711463265305
O	-0.8037309576122446	-0.39016093472653096	-1.6408336363265303
O	-1.6835410626122447	0.19694444227346905	-0.8737764763265303
O	-1.4879709486122445	1.292325110273469	-0.12403108032653032
O	-2.8352188216122443	1.300769071273469	0.5170787056734696
O	-0.7014290436122446	1.858282403273469	0.8901940376734696
O	-0.08356034161224457	-1.471427666726531	-1.3344446963265304
O	0.34549608838775536	-1.616208896726531	-0.015976658326530335
O	1.1040827283877555	-2.633909536726531	0.056981300673469654
O	-0.7941361746122446	-1.194705446726531	0.5596337016734696
O	-0.8995415006122446	-0.969619126726531	1.8884209036734696
O	-0.7703009146122446	-2.279120836726531	2.1966401236734696
O	-0.8109885556122445	-1.9854880667265309	3.5600759536734694
O	-0.5046073206122446	-3.305801496726531	1.6395729736734697
O	-1.8911594846122446	-2.4923262167265308	4.20548283367347
O	-1.7462400276122445	-3.1946443667265307	5.35445111367347
O	-0.44144159761224455	-3.2289230367265307	5.76432647367347
O	0.31861024838775553	-2.106808886726531	5.60333956367347
O	0.05681636838775539	-1.456559236726531	4.44590357367347
O	1.3792161883877556	-1.912467156726531	6.44805974367347
O	-1.9589314236122446	-1.8858604267265309	0.006833162673469673
O	-3.3289971416122444	-0.8728528367265309	1.8985189336734696
O	-4.424267991612245	-1.063785946726531	2.6501326936734695
O	-4.815531291612245	-2.318857526726531	2.9744875036734695
O	-4.268238861612245	-3.3150360567265307	2.2394874236734696
O	-3.5020372516122444	-2.982572206726531	1.1663079006734696
O	-2.8458803616122443	-1.8512624467265308	1.1620346906734698
O	2.2702105983877554	-2.2629938167265307	-13.08578640632653
O	1.7531743483877555	0.44372916487346903	-10.46224800632653
O	-1.3099356776122446	2.6936952432734693	-10.38225630632653
O	-2.3753709916122445	2.5975368832734693	-6.85453850632653
O	-5.211092731612245	4.664010363273468	-5.44664865632653
O	-5.184679991612244	-0.2988740927265309	-3.37493347632653
O	-7.889150201612244	-4.497370606726531	-5.58498299632653
O	-5.771152461612244	-5.286721546726532	-8.55135174632653
O	-6.547955741612245	-10.88095266672653	1.2656647436734696
O	-1.6748904506122444	-7.680472546726531	4.61585096367347
O	1.0762690883877553	-6.6149374667265315	6.96659196367347
O	-2.2560010816122444	-13.772219866726532	2.7063233436734695
O	2.8772501083877553	-12.608517566726531	-3.5780419263265304
O	2.5446070983877553	-8.87816853672653	-4.08693800632653
O	5.630194408387755	-6.672153116726531	-3.86240161632653
O	4.832792078387756	-5.312398146726531	-7.31443396632653
O	2.0474114583877556	-5.5880549367265315	-9.90804520632653
O	-0.6764670536122446	-3.182313386726531	-8.84534292632653
O	-3.7115046616122447	-1.7235101367265309	-10.46823020632653
O	-6.172353001612244	-0.903379676726531	-7.69935471632653
O	-9.431345681612244	1.047221213273469	-7.67471067632653
O	-8.791952001612245	2.444576723273469	-11.91821630632653
O	-5.975466001612245	10.38506345327347	5.62229797367347
O	-5.871563591612244	8.42013860327347	2.3335340236734696
O	-4.313936121612245	9.92745400327347	-0.7709556463265304
O	-2.2253486916122442	6.999821913273469	-1.9366832363265303
O	-0.3363707876122446	7.058531383273468	-5.21849383632653
O	2.7472641183877555	4.784291953273469	-1.2559066363265303
O	6.241592048387755	7.567634173273468	1.7257722836734697
O	3.6726180483877555	8.98783374327347	4.15327067367347
O	2.7650724683877557	6.8801421932734685	7.15923220367347
O	11.037012518387757	-0.852224366726531	8.65983500367347
O	8.462472698387757	-0.5877402067265309	5.94007393367347
O	4.271254918387756	-4.910533766726531	1.4670614236734696
O	2.0825669483877554	-7.920214006726532	1.0362481926734697
O	2.4886054183877553	-9.88342306672653	4.22295861367347
O	5.643956378387756	-8.345104206726532	5.47325723367347
O	6.904393468387756	-5.348698696726531	7.42286211367347
O	6.238612478387756	-3.082762556726531	10.35634309367347
O	8.506637528387756	-0.9566768967265311	12.50180019367347
O	0.9324981883877554	1.005318666273469	13.94194269367347
O	-0.9288409496122445	1.538229273273469	10.78119659367347
O	-4.708033341612245	1.360316764273469	10.62577509367347
O	-4.855520731612245	4.261433983273469	8.17513301367347
O	-3.1512332616122447	7.542079223273468	7.74275025367347
O	-1.4515239616122446	7.493468803273469	4.35020062367347
O	-0.3758003816122445	10.37314884327347	2.2672700336734697
O	2.2691551383877555	9.076165483273469	-0.09933290532653033
O	3.9018679983877553	10.498573833273468	-3.1334123663265303
