72

O	-1.3409740117959186	0.7029888049795926	1.0960869252461225
O	-2.4802801177959184	0.41743477897959264	1.3278116452461224
O	0.28962018220408137	-0.05139114702040737	-4.3474432947538775
O	-1.0112640758959186	-4.015491466020407	-5.082688154753878
O	-1.4640500017959184	-3.532926686020408	-3.8874746147538777
O	-1.4278173277959185	-2.1345878360204074	-3.8842565547538777
O	-1.2202244077959186	-1.4009504960204073	-5.039563114753878
O	-0.43690796179591856	-2.0141188560204073	-5.973269804753878
O	-0.8271623062959186	-3.2919586760204074	-6.224115494753878
O	0.11625551220408137	0.7157718509795926	-3.1888168247538777
O	-0.7471434437959186	1.5926473639795926	-2.993278074753878
O	0.32254995220408156	-0.004590412020407442	-2.0111895227538774
O	-0.7376310387959185	-0.4026292760204073	-1.0842932392538775
O	-1.6308782037959184	0.8601297965795927	-1.2186803943538775
O	-2.8795892477959186	0.13587243497959256	-1.2803113677538778
O	-4.024144237795919	0.8729317211795926	-1.4050184897538776
O	-5.265360907795919	0.44647644397959263	-0.9108545037538777
O	-5.377529387795918	-0.8848842860204074	-0.6491575557538776
O	-4.427749827795918	-1.7398543860204074	-1.1354081799338775
O	-3.141499637795919	-1.2166188760204073	-1.2490874517538777
O	-0.9400767849959185	0.06982194697959265	-5.062083084753878
O	-0.3520551717959185	0.1913139659795926	0.19390160524612243
O	0.5337866522040815	1.2550839229795927	-0.14118134875387767
O	8.465984352204082	6.746807553979593	-2.8629413147538774
O	7.416328262204082	9.943103973979593	-1.1268139788138776
O	5.907318322204081	11.485520593979594	-4.264119474753878
O	2.0354220522040816	9.751178923979593	-2.887490584753878
O	2.1884742722040817	10.527592403979593	0.8508694452461223
O	0.6656638822040815	7.323780193979593	2.2186403552461225
O	0.4320082222040815	6.8355208839795925	5.984835795246122
O	-4.226748627795919	5.1837444539795925	3.487845315246122
O	-8.383094637795919	8.479823983979593	2.8300852552461224
O	-7.115646767795918	10.692217293979594	0.07256984524612231
O	-10.175541297795919	-2.7334621260204073	-1.4081539877538776
O	-8.27927260779592	-5.905703746020407	-2.3034953447538777
O	-9.849755307795919	3.918398313979593	-9.827576254753877
O	-6.796029927795918	4.224456283979593	-7.645808344753878
O	-3.5052771977959187	2.9684341339795925	-8.952992204753878
O	-1.8062530717959184	6.292278513979593	-8.105364564753877
O	-2.8370020177959185	9.543425643979592	-6.510439794753877
O	-2.5921711077959184	9.124165643979593	-2.7508116647538774
O	-2.6740286977959187	11.575340693979593	0.10332638524612237
O	-4.009756697795918	9.709167203979593	3.1128447052461223
O	3.926160222204082	1.7193697089795927	9.401319085246122
O	3.0958965222040815	2.4184925939795927	5.776760905246123
O	5.053359842204082	5.023814393979592	3.7662837852461224
O	4.510890122204081	0.6902069859795926	0.8982185052461222
O	7.2227422922040825	-3.8321273160204075	0.4023574052461223
O	6.362852422204082	-5.389660546020407	3.7629735152461223
O	3.331970372204082	-7.673639596020408	3.776907405246122
O	4.396664052204081	-13.123998206020406	-6.164125414753878
O	1.2502824522040814	-11.135432806020408	-6.880162714753878
O	0.7831244422040815	-7.881068666020408	-5.186109854753878
O	-4.557212487795918	-2.1003873560204074	-5.323913734753878
O	-7.611715897795919	-0.5741519160204074	-5.572230714753877
O	-9.72171339779592	-3.636409346020407	-6.058833114753877
O	-7.150352117795919	-5.957426366020407	-7.5015270047538785
O	-4.430870227795919	-8.412949766020407	-6.468745034753878
O	-3.5444753677959184	-11.083689806020407	-4.012439894753878
O	-1.1112016917959187	-13.960069006020406	-4.1065142247538775
O	-4.039599027795918	-13.044241906020407	3.2552812552461226
O	-3.824058207795918	-9.526155806020407	4.340091985246122
O	-6.048103157795918	-8.072535686020407	7.055557405246123
O	-3.198406557795918	-6.005149696020407	8.435594495246123
O	0.5117265022040816	-6.479288996020408	8.875837385246124
O	2.2283002522040816	-3.7857148960204072	6.793296845246122
O	5.7101433322040815	-2.4518241160204073	7.3506774952461225
O	6.840918962204082	-0.9431050360204074	4.040728275246122
O	9.67254346220408	1.3426778599795925	3.0333695952461226
O	12.109463162204081	-1.5133273560204072	2.564651525246122
O	12.21464276220408	-1.9204751760204073	6.335195985246122
O	11.15540556220408	1.6224770059795928	7.394489265246122
