88

O	-1.4543026837111113	-4.297461249888889	-0.8908799053111113
O	-0.4497182219111113	-4.278830269888889	-0.009700247311111188
O	-0.21190362791111128	-3.145766379888889	0.7202974196888888
O	-1.1656913489111114	-2.278337009888889	0.9306958796888888
O	-2.3391682409111114	-2.699687529888889	0.6331120196888887
O	-2.502439247911111	-3.649121829888889	-0.33313361631111127
O	-1.1814744889111113	-0.7770590778888892	1.7825588796888887
O	-0.22662212791111136	-0.9571315898888892	2.8172108796888886
O	-2.421703397911111	-0.36431816488888924	2.3940969696888885
O	-0.3070957379111112	-0.2844067998888892	0.5478365096888888
O	0.9757962120888888	0.08880781051111084	0.7654434996888887
O	0.15139393208888863	1.2713053001111108	0.5101904896888888
O	-0.9661867119111113	1.5853847001111108	1.4429684796888886
O	0.2023893220888886	2.139574200111111	-0.5801380643111113
O	-0.1902677579111114	-1.117009569888889	-0.5163500383111113
O	0.5405460420888888	-0.34223975788888916	-1.4582435913111111
O	0.3055434220888886	0.17177777361111082	-2.638759420311111
O	1.2179093120888889	-1.5907071798888892	-1.834097114311111
O	0.30315638208888873	-2.319631829888889	-2.482134050311111
O	-0.8908017009111113	-1.5644843398888892	-2.8419543003111114
O	-1.4976376500111113	-2.518198259888889	-3.0557536303111115
O	-1.8413123479111113	-0.9865465498888892	-1.9280084393111112
O	-2.5996647479111115	0.019048144111110832	-2.627362700311111
O	-4.268373647911111	-0.9589516898888892	-1.4251261883111113
O	-3.3851770179111114	-0.7449913568888892	-0.47186640531111124
O	-3.0211735379111113	0.48915986211111084	-0.3205190093111112
O	-4.250025067911111	0.9893933041111108	-0.3611912083111113
O	-4.518851967911111	1.3779485201111108	-1.6901699713111111
O	-3.2336167479111113	2.1387586801111107	-1.733828741311111
O	-2.4095692789111114	0.9613669761111108	-1.5462825743111113
O	1.9552979320888888	-2.127411949888889	-0.6647422603111113
O	1.7702936720888889	-3.977760079888889	-2.3617340203111112
O	2.4111921620888888	-5.070281469888889	-2.8732569803111114
O	2.6208398620888893	-6.099862389888889	-2.001135030311111
O	3.031739872088889	-5.682599889888889	-0.7929521343111112
O	2.7199679220888893	-4.4134382298888895	-0.4033688513111112
O	2.1369753320888885	-3.490663639888889	-1.1783049793111113
O	-1.6404886329111112	-5.0847900398888894	-1.9661289113111113
O	-0.8332002019111113	-5.67628878988889	-2.855087090311111
O	-3.271858697911111	-1.2992330398888892	-2.3773393403111114
O	-3.1464829879111114	2.815090710111111	-0.41566520331111123
O	-4.487218737911111	3.271186540111111	-0.18730440831111128
O	-5.091536517911111	3.634352550111111	-1.5069782853111113
O	-9.226908217911111	-2.200759679888889	8.716824149688888
O	-5.971219957911111	-0.3646350758888892	8.094580669688888
O	-2.878803057911111	-1.005767559888889	10.178201539688889
O	-0.29508957791111134	-1.2478124698888893	7.5457775096888895
O	3.3769101920888893	-1.7049889298888892	8.168063509688889
O	1.3671726020888888	-4.65422959988889	4.075725999688888
O	-0.02121103791111123	-10.07314846988889	4.625696749688888
O	-3.4185041479111113	-9.40111628988889	5.9827858996888885
O	-6.034519147911111	-9.07146938988889	3.165842219688889
O	-0.6389084709111112	-12.33488876988889	-4.937517300311111
O	-0.3492637079111114	-5.886562139888889	-7.630188640311111
O	0.2377573320888886	-2.744863179888889	-9.61146404031111
O	-10.047506107911111	-7.46682866988889	-4.407263780311111
O	-8.276934897911111	-5.298614799888889	-2.0510083903111114
O	-8.859992077911112	-1.6871895698888892	-2.0408305703111114
O	-9.333198907911111	-1.8591216398888892	1.7703024896888886
O	-9.149225597911112	-4.213817159888889	4.5881676896888886
O	-5.6120877579111115	-4.354284489888889	5.788311179688889
O	-3.810516097911111	-5.758060479888889	8.689809649688888
O	-0.32972279791111125	-6.571974499888889	7.651524959688889
O	13.213697652088888	3.094389100111111	1.9910551796888885
O	10.228896752088888	1.3509760901111108	3.6550664896888883
O	8.343540232088888	2.968448970111111	6.489595979688889
O	4.758155402088889	2.463514610111111	5.430940069688889
O	1.8569827320888888	3.438179770111111	7.7859798096888895
O	0.7567839820888886	4.82421479011111	2.6902717096888886
O	1.956302862088889	9.64142140011111	0.3372847996888887
O	5.675682102088889	9.074147430111111	-0.16486757631111126
O	-2.0447719749111113	8.66144275011111	-10.863905600311112
O	-1.6863525719111112	6.487342330111111	-7.809314550311111
O	-4.051666477911112	-0.11137023188888914	-5.718839540311111
O	-4.713912527911111	-3.943624029888889	-5.786025480311111
O	-4.098786197911111	-4.382739809888889	-9.386715040311111
O	-4.531808787911111	-0.8758909198888891	-10.560104210311112
O	-2.704336037911111	2.440292680111111	-11.00772106031111
O	0.5946163020888886	3.892509100111111	-12.07567426031111
O	1.5664273420888886	7.30258481011111	-13.369846560311112
O	7.873649622088888	1.9358533801111109	-8.208898180311111
O	10.078620852088887	-0.9309469798888892	-7.205885970311112
O	10.603680452088888	0.44502428311111086	-3.6537345003111112
O	8.083933532088889	4.28882181011111	0.30868459968888884
O	7.894084632088888	6.674397890111111	3.193161549688889
O	4.194967262088889	7.4371272901111105	3.7410031796888887
O	2.3700697020888883	9.11395812011111	6.552866259688889
O	3.0533146020888893	12.610058230111111	5.272281409688889
