90

O	0.268744454767347	-6.06040650132653	-2.5267996273469393
O	-0.5618628642326531	-5.04824349132653	-2.512658737346939
O	1.1276722847673468	-5.69364926132653	-1.050258054346939
O	-0.719881859232653	-4.32566234132653	-1.4116164323469391
O	0.38508643476734683	-4.20258610132653	-0.6028038423469391
O	0.49836605476734697	-3.0161317213265306	0.09760073265306102
O	-0.4579677272326531	-2.098377251326531	0.40181381265306104
O	-1.6887310002326532	-2.512290961326531	-0.11543939734693898
O	-1.7140381482326532	-3.461457781326531	-1.074546127346939
O	-0.6598043092326531	-0.6237726553265307	1.249137602653061
O	0.36542447476734696	0.13685719567346935	1.944125892653061
O	-1.820778743232653	-0.41337498032653064	2.092913702653061
O	-1.4761530472326532	0.7245932826734693	0.344426732653061
O	-2.1329285752326532	-0.11129838932653066	-0.557261523346939
O	-3.449243515232653	0.35243309167346937	-0.637955308346939
O	-3.942611985232653	0.46738626467346933	0.8208058326530612
O	-3.6721649152326528	1.8628944386734694	-0.8127267473469391
O	-0.3134012112326531	1.1924142786734695	-0.22153260734693903
O	0.18110211476734683	-0.31824698232653065	-0.514948371346939
O	-5.148573615232653	2.091618428673469	-0.38944586534693904
O	1.325348394767347	-0.21882807232653065	0.10141492265306096
O	-0.2882504202326531	-0.6441776373265307	-1.7177902343469391
O	0.05053124476734694	-1.4174315013265306	-2.746304437346939
O	1.4102785147673471	-1.7417876413265305	-2.810965407346939
O	1.389128324767347	-2.881894781326531	-3.115559507346939
O	2.5421719447673468	-1.3453455513265304	-3.389409247346939
O	3.5460529647673473	-0.7966490573265307	-2.7430617873469387
O	3.551970374767347	-0.3459756163265307	-1.339875186946939
O	2.916940114767347	-1.6049758613265306	-1.178114113446939
O	4.162371534767347	-2.1521779313265306	-1.090025162346939
O	3.4794448847673474	-3.3811199913265306	-0.926284960346939
O	4.006097604767347	-4.11006415132653	-1.9196043083469392
O	3.9123846347673474	-3.177605561326531	-3.0783234373469393
O	4.5231811547673475	-1.9888226213265308	-2.563210867346939
O	0.7579658547673469	0.5631251136734693	-1.774101035346939
O	0.204757304767347	0.43179659267346937	-4.019677487346939
O	-0.7913165132326532	0.38738903867346935	-4.9323565973469385
O	-2.0167901402326533	0.8114912256734693	-4.452402777346939
O	-1.970875950232653	1.9568363086734695	-3.660265637346939
O	-1.008087133432653	1.8637732986734694	-2.729080257346939
O	-0.0009842452326531692	1.0040102586734694	-2.842025887346939
O	-4.243801045232653	-4.144709581326531	11.70247765265306
O	-2.897947455232653	-1.0436988113265306	9.95545735265306
O	0.610488094767347	0.33948615367346935	10.543145652653061
O	1.8202908047673467	1.0092872356734695	7.19575929265306
O	5.189344614767347	2.523192778673469	6.318162332653062
O	4.277019114767347	-1.5954953413265305	3.037559352653061
O	5.6471876747673475	-6.72893480132653	3.872261332653061
O	3.170837894767347	-7.69406569132653	6.4929990726530615
O	0.018670344767346858	-9.21465353132653	4.958774792653061
O	3.6050839347673476	-10.45936604132653	-4.402844427346939
O	-0.07755114823265308	-5.523405961326531	-6.772406797346939
O	-2.149543905232653	-3.1515096013265307	-8.888618397346939
O	-2.198701825232653	-4.220730571326531	-12.37225964734694
O	-1.015941529832653	-11.753940441326531	-6.608388097346939
O	-6.295167345232653	-11.21648354132653	-0.460830620346939
O	-5.399551525232653	-8.02384655132653	1.142117092653061
O	-7.938083895232653	-5.251732571326531	1.4929608226530608
O	-7.007069655232653	-5.008737321326531	5.243312902653061
O	-4.549886205232653	-6.49552919132653	7.71400751265306
O	-1.279861190232653	-4.59412731132653	7.373900652653061
O	1.883403174767347	-4.399040681326531	9.36938995265306
O	4.649620144767347	-3.488686801326531	6.955952292653061
O	8.260491534767347	-2.4713753613265306	7.371009772653061
O	9.590783224767346	-5.94575791132653	7.957421162653061
O	7.746938384767348	-2.1743259813265308	11.927944852653061
O	8.310458084767346	10.42220425867347	-2.8913371173469393
O	7.422243614767347	7.71845200867347	-0.29679236634693906
O	6.093933004767347	8.75525456867347	3.099624692653061
O	3.2271996847673474	6.28964062867347	3.442762352653061
O	1.0821621947673468	5.9809617686734695	6.590613432653061
O	-1.5577820132326532	5.46690119867347	2.018622462653061
O	-4.453745175232653	9.76345131867347	-0.076595157346939
O	-1.490852333232653	11.25834035867347	-1.947040575346939
O	-0.905133237232653	9.88402630867347	-5.428425387346939
O	-8.378230145232653	3.972090678673469	-6.416646087346939
O	-5.640192255232653	-2.2449641913265306	-3.417930057346939
O	-4.377375435232653	-5.797904471326531	-3.646753517346939
O	-4.533736975232653	-6.620097111326531	-7.200172617346938
O	-7.117719735232653	-4.1273119013265305	-8.01879227734694
O	-7.816204205232653	-0.5480728883265307	-9.080410597346939
O	-6.459949265232653	2.192864838673469	-11.29390634734694
O	-7.973593975232653	5.33747319867347	-12.696744447346939
O	1.614419504767347	4.96172231867347	-10.46950447734694
O	5.197267374767347	3.6846846786734693	-10.291778297346939
O	5.894148124767347	5.75275059867347	-7.153521227346939
O	5.078547264767347	9.19675334867347	-5.818083997346939
O	3.155433714767347	8.59088102867347	-2.545865667346939
O	2.6452385747673466	11.01443785867347	0.26857685265306097
O	-0.4335886082326531	9.82364702867347	2.150834562653061
