100

O	5.026308520770834	0.9753247000000002	1.4440047540000003
O	6.3645299907708335	0.8115232922570002	1.385465678
O	6.962293630770834	0.016419036000000164	2.288358269
O	6.278725880770834	-0.213188571	3.4393866890000004
O	5.425967280770833	0.8711525394000001	3.7519912090000003
O	4.589895750770833	1.212408023	2.7243227790000004
O	2.0055881407708336	-0.8452157209999999	4.395150159
O	3.3072871007708335	-1.3525916210000002	4.274663639
O	4.037709620770833	-1.615715051	5.398679479
O	3.3065127607708336	-1.383547701	6.559901419
O	2.5302030007708334	-0.22787878099999992	6.507489549
O	2.1420539407708334	0.23279008000000012	5.306117019
O	1.2451037667708333	-0.6766920409999998	3.2715912690000004
O	1.6614382207708334	-1.145024511	2.083137819
O	0.4327142627708334	-1.118535391	1.4080785640000002
O	0.2964695067708334	-0.532984131	0.08160620400000018
O	0.8342221097708334	0.8292898488000001	0.15903434000000022
O	2.2231358607708334	0.7516814729000001	-0.16067094199999976
O	2.5691101507708334	-0.640636361	-0.4048696009999998
O	1.8875139407708335	-1.5992109710000002	-0.8137059309999998
O	3.7432545307708334	-1.0113941509999997	0.20594366900000022
O	2.9774535707708334	1.405727588	0.7107538039000002
O	4.2689270407708335	1.7623067110000001	0.5008036340000002
O	-0.0027467942291665715	1.7087033310000002	-0.38715809099999976
O	-1.0411958192291666	-0.48779913099999994	-0.21481434999999982
O	-0.32398041022916657	0.03940160800000014	2.055496159
O	-1.3443973792291666	0.5681483810000001	1.6321746420000003
O	0.5426662733708334	1.110654068	2.273390719
O	0.3068156917708334	2.047957299	3.158379109
O	-0.9673752192291667	1.795710696	3.9105705690000003
O	-1.4743187492291665	3.047585589	4.167840039
O	-0.8317088492291667	1.0847998110000001	5.110041159
O	-0.7395111192291666	1.6446455420000001	6.394476249
O	-1.4519250992291668	2.848996559	6.513381469
O	-0.0611245512291666	3.251791199	2.470228549
O	-1.3624629892291666	2.998785119	1.942876209
O	-2.0812592592291668	3.381599899	5.379974549
O	-0.46089632922916657	4.104234899000001	3.6692303490000002
O	4.253132000770833	-2.226352151	-0.4881154809999998
O	4.399956070770834	-2.964748751	0.6670487042000002
O	5.604825880770833	-2.544698211	1.0947631620000002
O	3.7130051407708335	-3.567793971	1.642766136
O	4.377184390770833	-4.056485951	2.8054223890000003
O	5.609523460770833	-3.525181691	3.1825532590000005
O	5.521670180770833	-1.5544306909999999	-0.7143667109999997
O	5.321840190770834	-0.4459817209999998	-1.3800416409999996
O	6.312201290770833	-3.2812737110000003	2.0467604890000004
O	6.538926640770834	-2.184526271	-0.02733010899999977
O	1.7815617907708334	0.08862215400000006	7.571854909
O	8.093668840770833	-0.7238100909999999	2.078175819
O	3.292790160770833	1.4867975270000002	2.7767104890000005
O	3.5817557207708335	-1.336819031	3.0082997190000005
O	-3.435180529229166	10.585046319	-6.121373741
O	-4.465194379229167	7.066881419	-5.0868182410000005
O	-4.739924479229167	4.174666689	-7.436466661
O	-2.9880538592291668	1.5024203800000002	-5.702854141
O	-2.6366076892291668	-2.027797521	-7.0544042110000005
O	1.7524912207708334	-0.5698138309999999	-5.452070041
O	5.847266560770834	2.075241719	-8.145626311
O	4.432790080770833	5.459901679000001	-8.215095961
O	5.4845707807708335	7.620640739000001	-5.247172321
O	12.719846720770832	2.271065629	-0.9693174009999997
O	9.000721070770833	0.6083272950000002	4.718063899
O	7.329336690770833	-0.553460081	7.837277209
O	7.814804160770834	10.643322599000001	2.502851569
O	4.866017800770833	8.801132929	1.2928491690000001
O	1.7641411107708334	9.166999549	3.2683771490000004
O	-0.10699168322916663	10.133663039	0.021971749000000207
O	0.4706236767708334	10.331683249000001	-3.613864581
O	0.1698733147708334	6.8976742490000005	-5.077401301
O	-0.07776875422916663	5.6437324890000005	-8.561254970999999
O	1.3801154187708335	2.205358319	-8.609031701
O	1.3778452647708335	-0.600176811	-11.200818451
O	1.8152855407708335	3.533141369	-14.467881750999998
O	-1.4701887292291667	1.688905348	-13.809497351
O	-3.2026026992291667	-13.011897570999999	-1.1339375809999996
O	-2.5706166692291665	-9.594465471	-2.8665647209999996
O	-5.471679979229166	-7.720078101	-4.2628388610000005
O	-4.752246089229167	-4.245261821	-3.0247195309999997
O	-6.841107599229167	-1.2202642510000001	-3.983162701
O	-5.690581149229167	-1.1248232109999998	0.9942901650000002
O	-9.093981589229166	-3.115124351	5.097182609
O	-7.766057879229167	-6.609725750999999	4.8055325689999995
O	-4.655397729229167	-7.627264330999999	6.709426249
O	-1.9314473592291668	0.10322203500000016	11.534482449
O	2.7517288707708336	3.787139139	6.238042629
O	5.796100290770833	4.943110829	4.6984581389999995
O	8.073840520770833	4.032671539	7.533025929
O	5.695486170770834	3.919467089	10.342376029
O	3.3035220607708333	1.5080017650000002	12.166707449
O	2.7076014707708334	-2.105246851	13.205394949
O	0.5016426107708334	-3.6984700409999998	15.849248349000002
O	2.6572481407708333	-8.554578491	7.799128559
O	4.678151960770833	-10.516212270999999	5.3249251289999995
O	1.7999745807708334	-10.692866871	2.769727699
O	-1.8504254592291667	-11.379541971	2.926068379
O	-3.7395256892291666	-8.312451411	1.705079719
O	-7.164711549229167	-8.116076081	0.4032593900000002
O	-8.260566869229166	-4.527437051	0.8642571300000002
O	-11.280167679229166	-2.780383261	-0.5658317309999997
