40

O	25.030582755762612	-2.9746553366536914	19.124063072879192
O	24.345820048417746	-1.853499815875043	18.761003934306387
O	23.953484732098385	-1.654445710137668	17.36187117604458
O	23.723803991427864	-2.808777338869522	16.623647670614474
O	24.511788225951648	-3.782786355763101	16.981516664949975
O	24.988274071947547	-4.033949196350301	18.26990660043633
O	23.170682810894398	-2.949537724132754	15.066012203095816
O	23.028889501233987	-2.630694844297862	13.708995492673578
O	24.117484407454604	-3.854566461995755	14.39155347033418
O	21.548831475802558	-2.7686375240801473	15.15137353748995
O	20.61950581407724	-2.8872020288140434	14.158734703750884
O	19.401294680350652	-2.7748259607917456	14.870300942856097
O	18.31255720126837	-3.501968439032661	15.326152121049
O	19.474851784566358	-1.3718095960544385	15.330042594120641
O	21.378863797962218	-2.23276375562871	16.355857820826103
O	21.726371170644654	-3.228803683546627	17.366124207114062
O	21.92967803986679	-3.532484472780664	18.58380035608721
O	20.295876640975198	-3.236178900690391	17.97609499398645
O	19.919295372985022	-4.4545466827367886	17.597738368626366
O	20.632124200762483	-5.3241049504347355	16.77465866414308
O	21.87781364919956	-5.29821528072493	16.987114351677945
O	20.36111859764724	-5.772554950384597	15.516787944080052
O	21.345004807396638	-5.529768361370518	14.602403528878973
O	22.61956356788694	-5.755250001051065	15.274519789482794
O	23.08205559444071	-6.85894153524081	14.849201010758724
O	22.666043822974206	-6.844504328976008	13.473890633000133
O	22.839028043778903	-5.559316717427793	13.20787028960454
O	21.872033805867368	-5.33635029268218	12.373655760540988
O	20.663479332805437	-5.975249951314328	12.850504224640737
O	21.21491011619721	-6.879145706507869	13.884100139419843
O	19.9802953231125	-1.889908701153852	17.731084770592595
O	21.344476903454414	-1.3069786709094913	19.528410656863
O	21.502454175415775	-0.3555313897615888	20.476822825413166
O	21.84239433375478	0.9038402040733344	20.09473430797962
O	21.26605840428457	1.1852178564788534	18.876339831038337
O	21.198706012027223	0.18274995245627057	17.89463764900036
O	21.07890175364683	-1.0889619765183889	18.25466986253096
O	25.422019065703374	-2.73252579389326	20.438465623477697
O	24.519265471878523	-1.7635269272562764	20.969630773163978
O	24.4666091644794	-0.9692171065042836	19.810089109536726
