93

O	-0.5229805714509799	5.737472374372549	-0.8399726101960779
O	0.1110709885490202	3.2163420543725496	-0.8762221241960779
O	0.44065628854902017	4.596298174372549	-2.497019810196078
O	-0.2537662114509798	4.45674809437255	-1.492685444296078
O	-2.38370539145098	-0.5355412356274503	-0.7232745151960779
O	-0.8843652784509799	1.4910236113725497	0.5150723398039221
O	0.6581099285490202	2.0087768814725497	-1.254406201196078
O	-5.94391200145098	1.3004868713725495	1.5653681498039222
O	-2.44157345845098	0.025337134372549475	-2.764194810196078
O	1.91692953854902	1.4562678473725494	-1.7001255861960778
O	-3.99428108145098	1.2055263833725496	-1.477761720596078
O	-4.0023098414509795	2.2270742073725494	2.262076969803922
O	2.9066066985490195	2.0057564708725497	-2.600805460196078
O	-7.01125569145098	2.0124593689725496	-1.283143791196078
O	-5.65959235145098	-0.1799857456274503	-1.9693728121960778
O	3.6859462985490197	3.0014603003725497	-1.807294493196078
O	-3.7353292014509796	5.53528802437255	-0.3286979801960779
O	-6.47253357145098	1.7665863123725496	-3.445947560196078
O	3.7251590785490203	4.40984829437255	-2.244334358196078
O	-5.71207951145098	5.380275944372549	-1.672057215196078
O	4.5864377085490196	4.33616468437255	-3.5066701701960783
O	-3.7903297614509794	6.710119134372549	-2.266263100196078
O	3.60327664854902	3.66034456437255	-4.419772690196078
O	2.56445982854902	2.8500211483725497	-3.7746673101960777
O	0.08667640854902015	1.0195406943725496	-0.27493984019607787
O	0.12890918854902012	-0.14780506562745055	-1.026014364196078
O	-0.4709683214509799	0.09303280437254968	-2.299468898196078
O	-0.3438665514509798	1.5044214623725496	-2.9553224301960777
O	-1.5846907774509797	1.9854717513725495	-3.310184760196078
O	0.21487263854902006	0.8915661343725496	-4.273777910196078
O	-1.87150563645098	0.32711912437254953	-1.6708074761960778
O	-3.79595444145098	-0.9426573656274506	-0.865191927196078
O	-4.70725503145098	-0.5668644456274503	0.27024314980392217
O	-3.7471775614509797	0.3152850543725496	1.0672717398039222
O	-4.56612009145098	1.1866796303725495	1.897546309803922
O	-4.36678147145098	-0.08334257562745062	-1.8720778891960779
O	-4.65728165145098	2.2849681593725495	-2.115388834196078
O	-6.05326914145098	1.8991844423725497	-2.302856505196078
O	-4.54300237145098	3.0049676523725495	-0.8227653841960779
O	-3.09172745145098	3.2685913643725497	-0.6353180411960779
O	-3.12894684145098	4.459709334372549	0.23708041980392203
O	-4.47226131145098	5.9479658543725495	-1.248999936196078
O	-4.3307715414509795	-10.34299283562745	1.2110687598039223
O	-2.9927918414509795	-12.81981853562745	-3.646548270196078
O	-1.59945881045098	-10.43854313562745	-8.264658490196078
O	-0.7411394134509799	-9.13748703562745	-4.793206200196078
O	2.58980578854902	-9.83413673562745	-3.099335690196078
O	3.4440852685490198	-6.350456835627451	-1.883480264196078
O	6.5860438485490205	-5.8418982356274505	0.16341813980392206
O	6.15390131854902	-2.0873441656274503	-3.442608700196078
O	8.33011124854902	-2.2634322956274504	-8.465577200196078
O	5.96886360854902	-4.660357465627451	-10.107151970196078
O	2.9640297085490195	-2.8844653556274507	-11.673344100196077
O	1.6455803485490204	8.360148924372549	-6.280127620196078
O	-0.63714301145098	9.86071442437255	-3.7622529601960784
O	-3.3067888914509798	2.7040583373725497	-13.641763900196079
O	-2.62166760145098	0.6226676343725497	-10.615721290196078
O	-5.45792343145098	-0.26879751562745025	-8.370253030196078
O	-4.52143323145098	-3.99372996562745	-8.469530970196077
O	-1.82024209545098	-6.105861385627451	-9.936898440196078
O	1.19948369854902	-5.988307605627451	-7.671647360196078
O	4.36240131854902	-7.93779543562745	-7.415725660196078
O	6.931649598549019	-5.69752221562745	-5.860348070196078
O	8.13898862854902	-0.3886571956274505	6.681237199803922
O	6.66019174854902	-3.8680721156274505	6.874082929803922
O	4.03400757854902	-3.68891780562745	4.032432749803922
O	2.27300170854902	-6.969270745627451	3.1102112998039217
O	-1.08030513145098	-2.71397984562745	3.207183429803922
O	-3.97612445145098	-1.0050585056274506	7.504444569803923
O	-1.14528411945098	0.6783686643725495	9.257730099803922
O	-0.4550504114509799	4.305559904372549	8.487426249803923
O	-11.11518598145098	8.201903544372549	6.897109519803921
O	-9.86061638145098	8.512353384372549	3.359055989803922
O	-7.23123993145098	6.2620024043725495	2.2174130198039217
O	-3.59219912145098	4.35852690437255	-4.399379390196078
O	-2.07375510645098	4.935365924372549	-7.513358150196078
O	-2.6756048614509798	8.571313524372549	-7.700475600196079
O	-5.57454897145098	9.01251758437255	-5.4626472701960775
O	-6.38971908145098	9.54183396437255	-1.8001455461960778
O	-5.37088015145098	11.25040885437255	1.4053549198039221
O	-7.28802211145098	12.11480846437255	4.539343909803922
O	0.46313578854901993	13.031298764372549	5.851906809803922
O	2.41951348854902	10.088421264372549	4.893239549803922
O	6.08322487854902	10.180021224372549	4.051568279803922
O	6.79753034854902	6.78159087437255	5.713317939803922
O	5.43802220854902	4.838223914372549	8.615473999803921
O	3.73507712854902	1.6875708583725495	7.278332709803921
O	3.00960318854902	-1.4436561356274504	9.167040299803922
O	0.0938077285490202	-3.19872690562745	7.456494289803922
O	-1.3224965794509798	-6.67530356562745	7.785523879803922
O	-3.54258673145098	-5.79422651562745	10.721754299803921
O	-0.4640384114509799	-5.6087394256274505	12.905545699803922
O	1.8649572285490204	-7.892123825627451	10.888475599803922
