66

O	22.671697806726122	-5.349495643638147	17.39121790406556
O	18.31683742026697	-0.2424205068912102	19.784962749065432
O	21.910758329489333	-6.081847717176721	16.527140256486806
O	22.215275919955126	-1.2493098984838786	14.348971982629358
O	20.911843126752004	-0.04216577259301335	15.08512903571933
O	19.64609066460811	1.8082248579449685	17.367649421587124
O	20.99666909476007	3.063966915977753	18.69718295056044
O	21.474319171846663	-3.6711427556152456	15.535738347528016
O	21.916459153241764	-2.5598426223869204	15.938396487758084
O	19.517964740047855	-4.1903084759531195	15.889946369260361
O	20.332513870608825	-3.4816335368251012	16.222752046926466
O	23.214458417696616	-1.3057566073116647	17.937555418694096
O	24.027792277621547	-2.879968105667372	16.387828862869664
O	22.14679394240406	-4.037003913753035	14.408380567022581
O	20.74525158565467	-4.291678334808168	14.046078753993665
O	24.175510182766313	-3.159451773253112	19.411919928213067
O	24.52334628837965	-0.0793965020009677	19.10947063646714
O	20.869197197678123	-5.208303896016348	13.113501414722682
O	19.728644862166878	-5.781238015072209	12.693080012388645
O	18.57083384355414	-5.358942559086508	13.276796470747314
O	18.58394714985055	-4.015611618589018	13.411020715229863
O	22.199898549164036	-3.8707506319605236	19.93801835430379
O	19.79021602484768	-3.3742090273340715	13.773200993012555
O	22.678378957616882	-4.443891436403597	18.1406198728851
O	23.01695242590895	-0.8309524708642002	16.688977512512317
O	22.987013901833137	-2.2873128085822683	16.493838280775055
O	22.217176875736723	-0.3169699323065336	15.617157889286243
O	22.515911444469896	-6.680709723601875	15.539934616024318
O	21.876962827957612	-7.652636273401366	14.863648218295705
O	20.56932881077915	-7.805815474330262	14.984000505497871
O	19.895200438260265	-6.9585477184516735	15.780698309806922
O	20.68687786306779	-6.471034535722587	16.76003662001819
O	23.95008041132032	-1.8932702413159705	19.975948216402262
O	24.240812712417412	-1.1908972408731984	18.762864332758298
O	25.15273527642759	-1.7829329648745462	20.80259744570499
O	22.910614228057824	-3.5039785928585467	19.045386030489283
O	18.954721980269717	0.6323735537916755	20.76678318703344
O	20.63611195195928	-2.322602795049675	17.72312727045871
O	21.13132638081489	-1.4623170101001945	18.58344431259107
O	19.78144817056392	-4.27427939290491	18.362464647337774
O	20.326046945205277	-3.3949279744491863	17.643745664920722
O	21.607289891526083	0.3507719711675805	19.83272032259586
O	19.830285455656668	-3.4113537377589154e-05	17.958643611325293
O	19.941075349614614	-1.4916949710669998	16.774460819835408
O	18.691621502720547	-1.9217210832990514	16.848485571085714
O	21.045070169364934	-1.8533521290020376	21.359448130386866
O	22.984637963953713	1.201580269513777	21.213851718359166
O	18.01307110132234	-2.5781636752507766	17.733647540458612
O	16.90588968666674	-3.182869009724447	17.380691643101297
O	16.63545401825084	-3.3010442800362503	16.04726470170791
O	17.042605058854377	-2.224959808320265	15.37082390723541
O	19.455539149942737	-2.803672397282827	20.653423979834933
O	18.07090158235616	-1.4646795475121483	15.795740648698063
O	18.94328090435543	-1.3978852118563925	19.86147437102437
O	21.61451837609326	0.9526928355048399	18.729506468126047
O	20.92848388341117	-0.16907144863958257	18.236082918357365
O	21.007437939184385	1.8807674135736088	17.88576383581137
O	19.360449338615556	1.8653172159090867	20.712937954840765
O	20.10613084755593	2.532765503795801	21.61835877313392
O	20.340051046424534	1.8989033288961492	22.783760219644037
O	19.775355087806165	0.6820450040766528	22.972578555893236
O	19.246534191509436	0.02249936920444018	21.940770925940235
O	22.089776394766314	-1.108925144676633	21.241888685441264
O	22.302030224850885	0.26700502462565945	20.93529994035924
O	22.559316154278672	-0.7763949322894097	22.617287555174904
O	19.914393712216864	-1.695481216361328	20.65358716181752
