108

O	2.0457782515784313	2.0426953589019607	0.32491231309803925
O	-0.4305068104215686	-0.42245578109803905	6.998870744098039
O	2.9323864815784315	1.532715008901961	0.9040344300980392
O	-2.3406916984215687	-0.004985693098039035	5.8080787040980395
O	1.1663870015784314	2.663433378901961	1.211410554098039
O	1.6589249815784315	3.403498658901961	2.343226404098039
O	0.42024622257843136	1.689795478901961	1.7705982840980392
O	0.9799663715784314	0.6782200819019609	2.2603797240980392
O	1.5613163615784316	-0.4050147620980391	2.078202244098039
O	-2.551772238421569	0.5324101309019609	4.446974514098039
O	1.7165217215784314	1.4897995789019611	3.240199564098039
O	2.5895487215784314	-0.730371831098039	2.515278174098039
O	2.2108589215784313	0.8094212589019609	4.230348764098039
O	-2.228221208421569	1.817244538901961	5.2944983840980395
O	2.8825922315784314	-0.281844090098039	3.944264244098039
O	-2.0723248984215688	1.110051005901961	3.358139464098039
O	-1.3109769884215685	2.073241788901961	3.0428980240980392
O	-0.7437600444215686	1.962343918901961	5.255049994098039
O	-0.6146076134215686	2.768019138901961	4.335233304098039
O	2.3137313815784313	2.4603547989019607	-0.9336840159019608
O	2.7801490815784313	1.7379209689019608	-2.0148900559019607
O	1.9833682015784315	0.580988661901961	-1.8517479559019607
O	1.1399642015784315	0.18786871490196094	-2.579314725901961
O	2.9242840815784312	1.742037778901961	-3.3840072159019607
O	4.232549271578431	1.8082777489019608	-3.9407503659019607
O	2.4189720715784313	0.7055569199019609	-4.269006545901961
O	2.021358761578431	0.15758695390196095	-0.5712461049019608
O	1.1793584115784315	-0.8776554810980391	-0.3148667009019608
O	1.5251739115784315	-1.7107366010980392	-1.5948561459019608
O	2.9571180815784315	-1.463966521098039	-1.3778854259019608
O	3.6266273915784315	-1.3166667110980392	-0.23524540690196077
O	4.687309791578432	-0.547800823098039	-0.12832879590196078
O	5.153498211578432	0.058440719901960925	-1.2846115659019608
O	4.8826846515784315	-0.6732454210980391	-2.379924085901961
O	3.7486844515784314	-1.384932011098039	-2.406617585901961
O	0.08526178657843145	-0.220822847098039	-0.8797357459019608
O	-0.7760380204215686	1.5854451789019608	-0.9950776959019607
O	-0.7032102254215686	0.5719301999019609	-0.21996002590196073
O	-1.5778213484215684	-0.4761080750980391	1.289456714098039
O	-1.0435689334215685	-0.728525901098039	0.03412506509803924
O	-0.4793220974215686	-2.034470471098039	0.16304107998803924
O	0.4070792635784314	-2.6998124910980392	1.1067609250980392
O	0.6036772015784314	-3.277503041098039	2.292926674098039
O	1.7346403015784315	-3.554472071098039	2.982550154098039
O	2.875786321578431	-3.5230744910980394	2.1996581240980393
O	2.6367591815784315	-3.724031861098039	0.8883322740980393
O	1.3685591015784315	-3.4939275710980393	0.49136397509803925
O	-1.1251278234215685	-0.879327851098039	3.6846355140980394
O	-1.2063573984215685	-2.162358601098039	3.2246983040980393
O	-1.4039711684215685	-1.605919011098039	1.9992492840980391
O	-2.200179998421569	-2.3343413510980393	1.452022564098039
O	-2.292888598421569	-2.7261154810980393	3.8997670240980393
O	-3.3846540284215685	-2.023317411098039	3.350557494098039
O	-1.8268375884215684	-2.6881580210980394	5.2199720040980395
O	-0.37268630342156855	-0.657128121098039	4.668911384098039
O	0.47367902857843136	-1.450758671098039	4.6869899140980396
O	-0.8498890384215686	0.02002682990196092	5.705196354098039
O	-2.927406868421569	10.970990598901961	-6.445194625901961
O	-3.1912786484215685	7.1787782789019605	-6.754641635901961
O	-6.381151778421568	5.158800878901961	-6.557066975901961
O	-5.424942128421568	2.418284128901961	-4.299549915901961
O	-7.871197738421568	-0.339025845098039	-3.2675288859019607
O	-5.144466038421569	1.491483688901961	0.5764174030980392
O	-6.712439788421568	5.355361678901961	4.07276016409804
O	-6.124673338421569	8.371541398901961	2.179961174098039
O	-2.667178908421569	9.860192788901962	2.8512086740980394
O	-0.07164705042156856	4.823314628901961	11.17314801409804
O	4.094448451578431	0.6008407099019609	7.837078654098039
O	6.793354051578432	-1.822176611098039	6.654740964098039
O	8.794087441578432	-2.831824901098039	9.56807988409804
O	5.034018211578432	5.833849278901961	11.38049721409804
O	5.741295421578432	10.592989398901961	4.972046974098039
O	3.9243625715784316	8.731469608901962	2.409842804098039
O	5.788423371578432	7.622634248901961	-0.6110674039019608
O	2.9285553915784313	9.188682418901962	-2.7747523659019606
O	-0.4439071414215685	10.642545198901962	-2.511114185901961
O	-2.9413847984215686	7.875191748901961	-2.1849942459019607
O	-6.626914618421568	7.764185608901961	-2.276575945901961
O	-7.623844308421568	4.828156858901961	-0.24604402390196078
O	-10.960838718421568	3.141841288901961	0.28766001109803924
O	-12.377695118421569	5.70488859890196	2.667376304098039
O	-12.789224318421569	8.072946758901962	-0.20939828690196077
O	-12.970062618421569	5.490167708901961	-3.009100735901961
O	-5.540974038421568	-12.645304301098038	-1.3381518459019608
O	-6.229393898421568	-8.834672291098038	-1.5963720159019608
O	-7.051522938421568	-7.195872081098039	-4.86584041590196
O	-4.814977558421568	-4.170364921098039	-4.503904015901961
O	-4.897868648421568	-1.5343183910980391	-7.241398975901961
O	-0.16150999192156856	-2.808450661098039	-5.576553745901961
O	3.426485591578431	-6.273621681098039	-8.17515759590196
O	1.9778825715784316	-9.311458451098039	-6.573424595901961
O	3.5416662315784313	-10.292716201098038	-3.296299845901961
O	13.914384781578432	-5.313931591098039	-2.015465805901961
O	10.458961581578432	-3.871533771098039	-2.043512445901961
O	6.481001141578432	1.735752968901961	1.641508644098039
O	5.678621291578431	3.9898509589019606	4.312564324098039
O	8.095776501578431	2.703768638901961	6.908870644098039
O	10.550623381578431	1.174351887901961	4.619289354098039
O	11.389463681578432	-1.9693539810980392	2.7219950040980394
O	11.412616781578432	-5.691452801098039	2.949901794098039
O	13.490736881578432	-8.384176331098038	1.3033346440980391
O	4.451725621578432	-10.118995901098039	4.05223282409804
O	1.4603306615784315	-10.298230801098038	6.264302894098039
O	-0.9321447774215685	-10.532148701098038	3.291346064098039
O	-1.1806904214215685	-12.129409301098038	-0.07356017390196076
O	-1.4553615884215685	-9.259969361098038	-2.543420655901961
O	-2.6985360184215685	-9.336182761098039	-6.020950075901961
O	-1.2155878084215685	-6.357670321098039	-7.685122985901961
