92

O	-0.6425766635607846	1.316489734411765	0.7003578207450978
O	-0.2995135019607845	0.4313664904117651	1.5938569707450976
O	0.18894489403921544	0.089972126411765	2.7379035207450975
O	0.21953187503921545	0.8910963054117651	3.7755267607450977
O	1.3549645110392154	1.544348544411765	4.113779480745098
O	2.472399311039215	1.4206274054117651	3.3943874507450977
O	2.3887151110392155	0.4629796634117651	2.4549718507450975
O	1.3574169510392153	-0.217695993588235	2.138132530745098
O	3.0620989110392154	2.491063556411765	2.8713473007450974
O	2.878334681039216	2.822261386411765	1.568015440745098
O	2.6318440210392158	1.735258415411765	0.6854710707450977
O	1.7893132510392153	2.153969645411765	-0.44230228775490227
O	0.9227507810392155	3.101625266411765	0.1426364287450977
O	0.5124771510392154	3.9592087364117647	-0.6324772702549023
O	0.6378618310392155	3.074685646411765	1.4466810307450977
O	-0.30644087896078454	3.7793033764117654	2.2325658907450974
O	0.32323266103921555	3.977083536411765	3.5241627607450976
O	1.3633316210392155	4.9616711164117655	3.4556693007450976
O	1.5701984010392154	5.678812676411765	2.2594240207450977
O	2.2660346810392156	4.930730056411765	4.308722110745098
O	-1.2445968009607844	2.609478216411765	2.4724258807450976
O	-2.066361278960785	3.114305926411765	3.2544758007450976
O	-1.6538972279607846	2.033237961411765	1.2924720707450978
O	-1.1978365529607846	0.8422885744117651	-0.5606534982549023
O	-1.6769557459607847	1.883615061411765	-1.1507557602549023
O	-2.2832831089607843	0.17937649941176503	0.05271180674509773
O	-1.6280479839607844	-0.8944744235882351	0.8988373607450979
O	-2.9420244089607843	-1.393399723588235	0.5997708707450977
O	-3.838656088960785	-0.43594568358823493	1.3312435707450978
O	-3.2518525689607847	-0.4048217735882349	2.6138473507450977
O	-3.0034441989607847	0.303024114411765	3.754036600745098
O	-2.5617809189607845	-1.695249043588235	2.8504708907450977
O	-0.5968441079607846	-1.4655115735882351	-0.3927196635549023
O	0.23079094703921543	-2.375481913588235	0.3132945687450977
O	0.35344453103921536	-0.561690673588235	-1.0283108462549022
O	-1.8160334189607845	-1.8628753435882348	-1.562987919254902
O	-2.5060689289607847	-2.936301863588235	-1.1018635012549023
O	-3.5825399489607843	-3.381102133588235	-1.8802385892549023
O	-4.645788288960785	-2.455237173588235	-1.866106759254902
O	-4.124000298960785	-1.214601853588235	-1.9555060692549022
O	-2.798010228960784	-0.9538132035882347	-1.8320480292549022
O	1.6538996810392155	-2.0682377235882345	-12.642868639254903
O	1.6330800010392152	-4.015567343588235	-9.389422529254903
O	4.733566221039216	-5.328357973588235	-7.619034949254902
O	4.155818371039215	-4.196268103588235	-4.094314889254902
O	6.637597461039216	-5.1252076635882355	-1.3558933772549022
O	5.009466241039216	-0.13369719358823495	-0.9194222092549023
O	7.492812371039216	4.133196616411765	-3.1351453992549025
O	6.618320561039216	3.779179246411765	-6.738951499254902
O	3.437104391039216	5.6897871364117645	-7.683324779254902
O	2.8636859410392157	11.094524596411764	0.9270892607450978
O	-2.4053257889607846	7.757581806411765	3.1804730907450978
O	-5.576096248960784	6.354793746411765	4.849503280745098
O	-6.962323828960784	8.933520426411766	7.094264970745098
O	-2.0572026289607845	13.135665626411765	-0.06739005525490227
O	-0.38261423396078453	15.429786526411764	-2.6463324892549025
O	-4.248212168960785	9.509202716411766	-7.053834539254902
O	-3.2450018789607844	5.956115906411765	-6.462743769254902
O	-5.792859938960785	3.232287546411765	-6.727077489254902
O	-3.400623508960784	1.442434445411765	-9.164510359254903
O	0.040577921039215425	1.7563796114117651	-10.626862239254903
O	2.463377501039216	0.37864281841176506	-8.070732939254903
O	6.100046051039215	-0.515943813588235	-8.156160759254902
O	7.443226331039215	-0.09811350358823501	-4.655711459254902
O	10.692925141039217	-1.054364793588235	-2.9852433692549023
O	12.708498941039215	1.851752643411765	-4.346526209254902
O	12.621620341039216	0.23052478141176502	-7.759357089254902
O	12.054284241039216	-3.391232573588235	-6.674125359254902
O	4.252880781039216	-7.842224933588236	10.688268460745098
O	4.986500941039216	-6.661986043588235	7.078219480745098
O	5.064230931039216	-9.173680573588236	4.240917490745098
O	3.0444040310392158	-7.203068843588236	1.6728357607450979
O	2.6941219410392154	-8.613326253588236	-1.8835788492549022
O	-1.7707292389607845	-6.511339193588235	0.18326834774509776
O	-5.863244868960784	-9.301708873588234	2.5530709707450976
O	-4.175485938960785	-9.506407073588235	5.935537210745098
O	-4.906529998960784	-6.707227253588235	8.361367430745098
O	-11.008259658960784	-1.458948703588235	3.0267190407450975
O	-6.2558338189607845	2.975158536411765	-0.5583771432549023
O	-4.4980238089607845	6.191723446411765	-1.2831039862549023
O	-6.359229448960784	8.578067116411765	0.9317682407450978
O	-9.499458308960785	6.597039286411765	1.4059044007450978
O	-11.043437458960785	3.820487916411765	3.5158693007450976
O	-11.272896158960783	2.464551086411765	7.049757770745098
O	-13.698675158960784	0.20178543641176505	8.812059250745097
O	-4.082370158960784	0.11820392641176514	11.276730260745097
O	-0.6102617339607845	1.399762061411765	12.185146860745098
O	1.0697355410392155	-1.814436583588235	10.935254060745097
O	0.3618740410392154	-5.5473445635882355	11.007143560745098
O	0.10522784603921542	-6.586215783588235	7.294682480745098
O	0.46633688103921545	-10.043968973588235	5.917893890745098
O	-1.2905246569607844	-10.113280673588235	2.576301500745098
