99

O	3.2280894791509436	-2.644204181358491	3.4985421174905666
O	2.4420535391509435	-3.587407991358491	2.915595907490567
O	1.1323918491509435	-3.364233411358491	2.7159241274905668
O	0.5708528391509436	-2.188248011358491	3.015356687490567
O	1.1212404991509435	-1.9416128213584907	4.221680527490567
O	2.4482614591509435	-1.9485426713584908	4.419309477490566
O	-0.9286442018490564	-1.8236136513584906	2.293639537490567
O	-1.3876880788490564	-2.790008091358491	1.4780360774905668
O	-1.5801250828490563	-1.4140693903584907	3.473404217490567
O	-1.6484550008490566	-0.49124222045849075	1.4324028074905668
O	-2.8873321708490565	-0.33199129535849076	1.2181123974905668
O	-3.5383774708490567	0.8742066686415093	1.1862600374905667
O	-3.8997361708490565	2.079525988641509	0.5123944774905669
O	-3.0339533408490564	1.6749796186415093	2.3285415574905666
O	-1.4458700648490566	0.5338685766415092	2.3016958374905667
O	-0.09891737884905644	0.07901873064150927	2.574504537490567
O	5.030189419150943	-2.718927851358491	5.017562227490567
O	0.2234942071509436	0.39801472564150925	3.703176957490567
O	0.3386233451509436	-0.6206747433584907	1.4311469174905667
O	4.5802219491509435	-2.832147301358491	3.690775147490567
O	1.7109182491509434	-0.5102043611584908	1.3386123774905667
O	1.9910009391509433	0.5950815986415092	1.7826875774905666
O	2.5571537391509436	0.4126654436415092	2.8485838374905668
O	0.11688345415094359	2.750451648641509	0.8974176474905668
O	0.8331715591509435	1.6716981486415092	0.4594348714905668
O	0.27617652215094357	2.960670278641509	2.1693355674905668
O	-0.5452208510490564	3.2151207786415092	3.040245467490567
O	1.5242639591509435	2.462842648641509	2.3617829474905667
O	2.1008122991509435	1.9115394486415094	1.1495763574905666
O	-0.0976699858490564	-0.8772509503584908	0.15977881149056677
O	1.8763764791509434	-2.237681061358491	0.09601601749056682
O	3.2722072291509434	-2.2892098813584907	0.12310626449056677
O	3.9095836491509433	-1.3205808883584909	-0.5671807170094332
O	3.1322683891509433	-0.36689545185849076	-1.1237631375094332
O	1.7627659091509433	-0.4498622942684907	-1.1224817835094332
O	1.0558793691509436	-1.3482341153584907	-0.4738934730994332
O	-2.2478373408490566	2.287728618641509	-2.218997212509433
O	-1.9632906508490566	1.2522836186415094	-1.4384071705094332
O	-0.9533653608490564	1.4854161686415093	-0.6846833675094333
O	-0.7875998708490564	2.640571798641509	-0.02255326650943318
O	-0.8994241818490565	3.6245815886415094	-0.9264416105094332
O	-1.9341442008490564	3.583968278641509	-1.8109246525094334
O	-2.1218755408490564	-0.10368936335849077	-1.8850866625094334
O	-2.0153365908490564	-1.3122975593584907	-1.3244438585094331
O	-3.3885202408490565	0.10240059864150924	-1.8379987525094332
O	-1.0151554048490565	-0.15501429135849076	-2.5707163925094334
O	0.6533662991509436	-0.7506427503584907	-13.714614852509433
O	-1.9147371608490564	-1.5064229413584906	-11.064338352509433
O	-2.9741203608490565	-4.98967573135849	-9.958166752509433
O	-2.7220440708490563	-4.749710391358491	-6.167145782509433
O	-3.7176528508490567	-7.65924752135849	-3.945456162509433
O	0.6950112391509436	-5.272134841358491	-2.2535722925094333
O	5.835058579150943	-6.82517596135849	-3.7346545425094333
O	5.963191879150943	-5.4972301113584905	-7.2127546525094335
O	14.230464249150945	-1.0624048373584907	2.7496141374905667
O	10.464376149150944	-1.5442849713584907	2.412201887490567
O	5.780997289150943	2.642045498641509	4.121318527490566
O	3.6184024391509437	5.25567429864151	5.7803306074905665
O	5.331055029150943	6.668064118641509	8.695370767490568
O	8.423031309150945	4.5749533086415095	8.133428087490566
O	10.630000249150944	2.5695698186415092	5.805060677490567
O	11.817168049150945	3.6146773586415093	2.3468950374905666
O	14.941581149150945	2.748475758641509	0.28617509049056683
O	9.509967949150944	6.1646045886415095	-5.1019630825094335
O	6.178629149150943	4.49380821864151	-5.443011072509433
O	3.1598511391509434	6.47713096864151	-6.062287842509433
O	2.3857759691509433	4.22307391864151	-9.074482022509434
O	3.642655669150943	1.1118272786415093	-10.726224952509433
O	2.1519989891509437	-1.7617330113584906	-8.770548322509434
O	2.0054216591509433	-5.45424458135849	-9.414182332509434
O	1.9185166091509434	-7.124166031358491	-6.036542182509433
O	1.3069001791509436	-10.70317669135849	-4.942938962509433
O	4.734471179150943	-12.033780591358491	-5.7956493125094335
O	0.0627072771509436	-11.92889549135849	-9.167140272509434
O	-9.479765730849056	-7.24412434135849	7.221650877490567
O	-7.474509590849056	-7.459332461358491	3.958371587490567
O	-9.174840840849056	-7.47956000135849	0.5869577074905667
O	-7.107623030849057	-4.9126559713584905	-1.2508901685094331
O	-7.719870660849057	-4.25296742135849	-5.008658032509433
O	-6.903489380849057	0.20347858664150925	-2.141400962509433
O	-10.748969050849055	3.447686218641509	-0.21522474150943322
O	-11.426255050849056	1.3767766686415093	2.882482297490567
O	-9.345431250849055	2.210294278641509	5.907363567490567
O	-4.394882170849057	9.42866346864151	2.8043468074905666
O	1.5307904691509435	6.23613965864151	-0.12790794750943318
O	5.068795909150944	5.21698342864151	-0.3381280855094332
O	6.5640978791509434	7.066159328641509	2.643901097490567
O	3.986917299150943	9.77174210864151	2.973956987490567
O	0.5160967191509437	10.40960610864151	4.437618387490566
O	-1.5953351738490564	9.90794340864151	7.525980977490567
O	-4.6067218408490564	11.75929340864151	8.826656597490567
O	-3.7499771208490564	4.836809638641509	12.677590347490566
O	-3.4302550508490564	2.111768328641509	10.230367947490567
O	-1.9148324808490562	-1.1373962043584906	11.141058747490566
O	-4.4066705108490565	-3.113705881358491	9.038418397490567
O	-8.056838000849057	-3.078599131358491	8.328297577490567
O	-8.256180370849057	-2.605339381358491	4.545326627490566
O	-11.183761450849056	-3.258776701358491	2.3564370474905667
O	-10.802534750849055	-1.1218658193584907	-0.7492947195094333
