93

O	-1.1391185838723397	6.120085672744681	2.722407499914894
O	-1.0834311608723397	3.8019862327446807	1.1302945799148938
O	-2.9290953888723394	3.1680279827446807	2.4660637199148936
O	-0.9454928918723398	5.032411092744681	0.3951279529148939
O	-2.1142846388723395	5.141342252744681	2.915737499914894
O	-1.8711815488723396	1.3453989271446807	1.199754499914894
O	-2.08109226887234	3.9813640927446805	2.1134322499148936
O	0.1321186861276603	1.9796320137446806	0.8927221529148939
O	0.0389272461276603	-0.0012781272553192835	3.533601149914894
O	1.6851116011276606	-3.3102211272553195	1.787862109914894
O	0.47738661112766023	-1.4305833172553195	1.8693931399148938
O	2.2978628111276604	-0.6593778872553193	0.49280065191489386
O	2.0495034611276606	-2.3584595072553194	2.6535189199148936
O	-1.6742622508723397	-1.5723980472553192	1.6074071999148938
O	1.8246914211276604	-2.60495800725532	3.9730828799148936
O	0.9337460811276602	-3.557356077255319	4.346530999914894
O	0.5204127311276602	-4.401874097255319	3.396741879914894
O	0.5143783611276603	-3.8796187772553195	2.140986829914894
O	-1.5443773588723397	3.166419492744681	-0.05592076208510611
O	-1.1147222118723397	1.8726329667446806	0.4481403729148939
O	0.9330630811276602	0.8440228497446807	0.8189566769148939
O	-0.9325434488723398	3.1288172027446803	-1.3954976200851061
O	-0.4145985758723397	4.361976392744681	-1.7548585000851062
O	-0.7490162405723397	1.7984583937446805	-1.8891519900851061
O	2.0783511811276605	5.17879144274468	0.8654629689148939
O	2.8412221111276605	5.044080022744681	1.9596851699148938
O	3.51646276112766	3.8263183227446804	1.934025849914894
O	3.0256447411276604	2.7509207927446804	1.2757969199148937
O	1.8450507111276604	2.7845640427446807	0.6719352699148939
O	1.6910165011276606	4.02204969274468	0.28473506091489387
O	1.9252593011276602	1.4606305432446807	-0.07913893008510611
O	-0.030531397872339716	-0.08529517725531943	0.37184536391489387
O	1.0843632411276602	-0.7863674472553195	-0.28296496108510616
O	0.5746749011276603	-1.8794580472553195	0.5147391579148939
O	-0.7654760706723397	-1.4171377672553194	2.426044589914894
O	-1.1846205798723397	-0.2170993872553193	2.970395099914894
O	0.3006927011276602	1.3129147254446807	3.313733199914894
O	1.5330673611276602	-2.924005797255319	0.3893108409148939
O	-0.6801902068723398	1.9968564617446807	4.0770738499148935
O	-0.3587327168723397	3.2752303027446805	4.381890949914894
O	0.7088720211276603	3.7130870827446802	3.5667781999148938
O	1.7454567411276605	2.9471930927446808	4.097385189914894
O	1.5905382311276606	1.6302947847446807	3.744896109914894
O	2.57949501112766	0.6605075907446807	3.3074270599148936
O	-2.03023918887234	1.3681251484446806	4.248933109914894
O	-0.7263926045723397	6.025573622744681	1.292150379914894
O	12.02833287112766	-4.679960157255319	-3.287775440085106
O	8.34468071112766	-4.668100537255319	-4.2353386000851065
O	6.9332819011276605	-3.198388057255319	-7.4396659300851065
O	4.04328452112766	-1.2696041872553192	-6.185075890085106
O	1.7045424711276604	0.7178289287446806	-8.484989390085106
O	3.1064276511276603	3.1133843527446805	-4.071554150085106
O	7.09992361112766	7.1286169627446805	-4.160332560085106
O	9.980303971127661	4.74598688274468	-3.683849270085106
O	10.77652827112766	4.008457602744681	0.02820763391489389
O	4.914783281127661	11.21040940274468	4.600912539914894
O	0.4101674811276602	6.514369342744681	6.682935629914894
O	-2.42778374887234	4.641898062744681	8.436721059914895
O	10.01446057112766	2.7418764027446807	8.737839519914894
O	8.44708827112766	1.1861568637446807	5.735013689914894
O	7.146059621127661	-2.0317751972553193	6.125017769914894
O	9.18035414112766	-3.2036842372553194	3.0341183799148936
O	11.35719197112766	-1.8637091872553195	0.33418427791489386
O	9.123103121127661	-0.5120839172553193	-2.3610593300851064
O	9.53332937112766	0.7684259067446807	-5.835042130085106
O	6.727241181127661	3.229091072744681	-6.419527930085106
O	5.51884054112766	5.05357123274468	-9.535676740085105
O	-10.78904741887234	2.1493793117446804	-7.806881210085106
O	-6.9081989288723396	2.0319350967446805	-7.826000810085106
O	-5.06332960887234	-0.7644895672553191	-9.418146050085106
O	-2.5155055688723396	-1.6031768872553191	-6.802364180085106
O	0.13441947112766028	-4.269728217255319	-7.5123852400851066
O	-2.0726368688723396	-4.489596667255319	-2.712788490085106
O	-6.20233982887234	-7.9273268072553185	-1.113529300085106
O	-8.84134548887234	-5.629011077255319	-2.2899681300851062
O	-10.04524992887234	-3.0817765972553195	0.2081443919148939
O	-6.885159868872339	-6.0426093072553195	10.877692699914896
O	-4.89905150887234	-4.752001857255319	7.978902339914894
O	1.13632323112766	-0.3846449072553193	6.964016979914894
O	3.6039855611276606	2.3283865687446808	7.650213169914894
O	1.8106024311276605	4.05544270274468	10.407697999914895
O	-0.09102372187233976	1.0779935587446807	11.615789299914894
O	-3.3139825988723395	-0.9025167172553192	11.148470199914895
O	-7.0332603188723395	-0.4872823572553193	10.598676099914895
O	-9.98983812887234	-2.7291862972553194	11.369548399914894
O	-10.24026529887234	3.325994262744681	3.7679753099148936
O	-10.01684180887234	6.495921302744681	1.8063090999148939
O	-9.65765431887234	4.70308052274468	-1.5744459500851062
O	-11.02971962887234	1.6972244777446805	-3.252381060085106
O	-8.09334976887234	-0.6128337372553194	-3.8604000100851064
O	-7.965690238872339	-3.397998377255319	-6.316420250085106
O	-5.3052308388723395	-5.741538537255319	-5.104681370085106
O	-3.6887507888723396	-8.68240742725532	-6.818107080085106
