60

O	21.319089686461037	-2.506839467138481	19.544939563555708
O	24.687807278588405	0.9353111452157739	20.758336875222312
O	20.620591275888895	-3.235689243682496	18.950432633550673
O	23.10246623284223	2.558963847143988	20.893918251990627
O	20.919101493016505	-1.766834505536682	20.591897460465738
O	19.88318351813717	-1.5542430952627515	21.50550924584205
O	22.085968671518362	-1.508690523395842	21.2875595039387
O	23.391769468604494	-1.71561211944259	20.81090499299734
O	23.74049102294429	-1.928070672254697	22.178838303123236
O	22.363255886291604	1.6422326420668638	21.77520582930594
O	24.464357968491328	-2.0965370952208318	20.15691038890464
O	24.997493637399536	-1.748294956496469	22.745746648383594
O	25.569702803423937	-2.6068344468291436	20.700691258578956
O	21.257444234083003	1.2512132252685706	22.302275599236605
O	25.992945508652717	-1.915923215805232	21.83117548327641
O	23.392225743800996	1.2280136636670627	22.638765252504978
O	23.24832083423145	0.8446510482823222	23.948440570197405
O	20.999199054673756	0.7059637017249767	23.482867439294758
O	22.046868810692885	0.16201296444281899	24.163780231909247
O	22.41681423315684	-2.044951227563083	18.81799152203039
O	22.533255059503897	-2.810201098513169	17.71848856481896
O	21.46788337046365	-3.6061709794585193	17.169014591680167
O	22.210737099367627	-4.494957512695289	16.747288664899738
O	23.270870221587522	-2.2387324503789197	16.75254097981077
O	23.796300274140776	-1.0729468616566604	17.23636894107853
O	23.153426005021768	-2.9360016524754746	15.52789907183134
O	20.59216784845591	-3.345917004769306	16.276988244729527
O	20.269629164707087	-3.1151381448675917	14.959523648599369
O	21.12264316689974	-3.96482074228192	14.116220210820341
O	20.67076225787591	-5.171283864526381	14.883660146605987
O	21.191902476398838	-6.280461526287867	14.430952405795345
O	20.328921945058163	-7.250813030191853	14.04690973387233
O	19.211367847826697	-7.309880402627891	14.785502449259788
O	18.827885853762183	-6.340083394091513	15.661603371629823
O	19.641077906893347	-5.2964200335347575	15.74659118586916
O	20.23247066341024	-1.8264994534515702	14.635737789041647
O	21.686705130824834	-0.3223634158594889	15.206991305178443
O	20.060809358408754	0.21804478560714702	15.487221296588432
O	20.800703830144695	-1.0292441531973626	15.735972402713692
O	20.78095767561984	-0.30297270661452047	17.568744087679747
O	20.170611555243266	-1.3669446045816143	16.819381424805755
O	18.791719071424406	-1.380944692441462	16.67801180036586
O	18.193393283174487	-2.096066374833327	17.778113007315575
O	17.9668882475559	-1.7760495879841716	19.041329474773136
O	17.592176730330284	-2.7062547465685727	19.92166893275897
O	17.83328373920518	-3.991906641095273	19.60621399940485
O	17.786181262682923	-4.312509669854664	18.277994389490175
O	17.783378024170833	-3.318523129038722	17.378836849278535
O	21.358623299800332	0.873859673276929	19.875429783660103
O	20.035502125022003	0.9008285880763671	19.584459391280223
O	19.907743890114723	0.06087473939706789	18.4622062929891
O	18.92984300972357	0.4706818670270505	17.75333985690839
O	19.81458882761367	2.2437042068323665	19.15728634307584
O	20.294613334425097	3.249378493943066	19.94698854969557
O	19.982760722096224	2.3753070056125702	17.736805696278648
O	22.54502373598346	0.9964112909068421	19.2888428687849
O	22.309920212852965	1.266683681570928	18.14987755878698
O	23.612096329847933	1.4566991800721685	20.00499887437006
O	18.903277015736606	-1.4459502392580927	14.4706754544348
O	20.818398707193605	-1.6096125396050343	13.417741134379709
