16

O	19.835792859489654	-0.062460804798514014	16.981469310118573
O	21.624816117749802	-3.2125428367172475	16.933258443090395
O	22.558722017991133	-2.682929849147481	16.39045518525726
O	20.19298246799444	-5.124427165135215	14.253289245254079
O	21.249057345969096	0.05513272510168554	16.567020164541617
O	19.99783662349722	-1.5535422840112316	17.298583158437246
O	19.733687032970085	0.5662210101548404	18.28951484591278
O	20.24827792463574	-0.018980109386769417	19.508989922093797
O	20.19822951708658	1.1136650609766743	20.5441461389359
O	19.213147272059924	-1.015009900334308	19.948288776579158
O	18.931741514923054	-2.292226023687068	17.58101406915989
O	21.060939424602847	-1.5919705636245638	18.169690290687573
O	20.25345513577544	-1.971491503001085	15.880601291434079
O	20.379150788259878	-3.3710862447601704	16.074462064893346
O	20.796952792443822	-4.298967457831743	15.092771388565833
O	22.183924663290256	-4.1554321439179365	14.725653350115728
