87

O	3.91094156212766	0.5058154770000002	-2.9788963882553188
O	4.29317679212766	-0.3604253189999998	-1.995229398255319
O	3.3631577821276606	-1.1866093709999999	-1.440491762255319
O	2.1158493421276603	-1.2258304309999997	-2.073055788255319
O	2.1386426421276603	-0.8264459139999998	-3.4257323682553187
O	3.1389446821276605	0.007473250600000189	-3.958912788255319
O	0.7914380521276602	-0.9258681219999998	-4.002472178255319
O	3.9697439121276608	-2.426036221	-0.829337641555319
O	1.4870288721276603	-2.4602175809999998	-2.043114888255319
O	1.7311079721276603	-3.275586041	-1.036531763255319
O	1.7067364421276605	-2.5067042809999998	0.14640365074468098
O	2.1218278821276604	-1.6435168409999998	0.8952916517446811
O	0.3870826221276603	-2.887076821	0.37300481174468103
O	-0.32359149387233976	-1.8506327609999997	1.143759531744681
O	-0.8367660738723397	-3.9974823909999997	1.822567101744681
O	-1.1819455928723397	-2.560791691	2.0081762617446812
O	-0.13483704787233974	-0.7858758069999998	0.36521892174468096
O	0.7283762521276603	0.3188533330000002	0.024019005744680966
O	-0.16770523387233977	0.9138020390000001	-0.970784186255319
O	0.04974288112766023	1.1727249190000002	-2.303954218255319
O	1.2557016021276604	1.958964919	-2.452522388255319
O	1.9693525121276605	1.8734330490000002	-1.203009380255319
O	1.5800258921276602	2.8813569990000003	-3.476894328255319
O	-1.77271654787234	0.5223416460000002	-0.372261058255319
O	-2.1116885778723398	-1.1105447109999997	-0.7689744380553191
O	-1.9301007778723398	-1.3196807909999997	-2.051618568255319
O	-1.5963635698723397	-2.6455774809999997	-2.329545368255319
O	-1.63478137787234	-3.750370351	-1.532713093255319
O	-2.6790085278723397	-3.3529602709999997	-0.666065818255319
O	-2.8941706678723396	-2.049620821	-0.22816558825531896
O	0.3329074621276603	-1.1460770709999997	-0.846542227055319
O	-2.4396639478723396	1.4055558190000002	-1.221265995255319
O	-1.7264053478723396	0.5043432900000002	1.0859647117446811
O	0.5121841821276604	-4.177402090999999	1.9268405917446811
O	1.15117135212766	-5.3268934109999995	1.447814741744681
O	0.40765427212766026	-6.4511802209999995	1.5199476117446813
O	-0.8914082738723397	-6.3261550909999995	1.8425562617446811
O	-1.4997536488723398	-5.123978051	1.706801711744681
O	-1.4811679428723399	-7.7247679709999995	3.084468391744681
O	-0.8554377508723398	-4.875600111	-1.477878338255319
O	-8.09354641787234	6.165738569	-8.43251362825532
O	-6.20121011787234	6.492608399	-5.148311288255319
O	-7.92774459787234	6.983407609	-1.789394877255319
O	-6.10937899787234	4.651793809	0.3342976117446811
O	-6.64512833787234	4.057485519	4.030251961744681
O	-5.962694417872339	-0.5630377309999998	1.4940344517446813
O	-10.32643453787234	-3.5122120609999996	-0.513610868255319
O	-10.83581923787234	-1.6682418009999997	-3.635395608255319
O	-8.73283592787234	-3.012428951	-6.535931878255319
O	-5.24524675787234	-11.555964841	-2.537974648255319
O	1.0557703221276604	-9.091633571	-2.175679088255319
O	4.806519692127661	-8.457469061	-1.676945810255319
O	-2.54868092787234	-6.488073711	-11.529224518255319
O	-2.5634950978723396	-3.5858969409999997	-9.184000498255319
O	0.0032611501276602617	-0.9363336919999997	-9.696902038255319
O	-2.8486851078723396	1.6556196590000003	-9.58146156825532
O	-6.57411705787234	1.8632509490000002	-9.12727743825532
O	-7.28526064787234	2.0274626590000002	-5.433100638255319
O	-10.264949757872339	2.7969311390000002	-3.322697508255319
O	-9.81843540787234	0.9050810320000002	-0.08301785225531899
O	-11.71044483787234	1.0852092190000002	3.190603231744681
O	1.5849715221276606	1.7945014390000003	13.202703781744681
O	-0.9776740058723397	2.095190789	10.323535381744682
O	-1.9502843778723395	5.485178139	9.04274446174468
O	-1.7332014878723396	4.985157869	5.320905411744681
O	-2.8712208678723394	7.700108719	2.890885811744681
O	1.7116320321276604	5.278980729000001	1.3156719017446812
O	6.83530842212766	7.0397267690000005	2.434026651744681
O	6.9269608121276605	5.5778758690000005	5.8896587417446815
O	8.15091557212766	2.038263499	6.224010381744681
O	13.77710266212766	-1.064995043	-3.285746528255319
O	10.15213306212766	-0.4144091449999998	-2.749658438255319
O	3.5268248321276605	-3.450290891	-5.147194528255319
O	1.10200366212766	-5.837375131	-6.079404218255319
O	3.3570619721276604	-8.807687091	-6.008825058255319
O	6.682712812127661	-7.097808881	-6.470491698255319
O	9.40630306212766	-5.393055231	-4.408379048255319
O	11.319044662127661	-5.567182161	-1.156888677255319
O	14.71430556212766	-4.237833611	-0.14927953625531898
O	7.642453812127661	-5.349661541	6.444821171744681
O	5.002927262127661	-6.982051631	8.55015532174468
O	3.46838547212766	-3.6334478509999997	9.63776738174468
O	4.717408552127661	-0.23078832999999982	10.576920081744682
O	3.3495256621276606	2.203608629	7.946237771744681
O	2.9727084721276604	5.858827619	8.36908306174468
O	2.9158749921276605	7.354077109	4.903259911744681
O	2.0443728921276603	10.841793159	3.7377330017446813
