107

O	4.414956490679245	1.768555068879245	-2.073264754075471
O	4.397740100679245	0.391500606679245	-1.983942896075471
O	1.354932020679245	-0.22854135332075498	-2.662385330075471
O	-0.606140597320755	-1.4580344833207548	0.005725379924528928
O	-2.4107927193207552	0.167475256679245	0.12343586992452904
O	0.516439508679245	2.136991901679245	-0.27738979007547093
O	0.5070386436792451	2.349173884679245	-3.675748330075471
O	4.704429030679245	2.669010776679245	-3.092768180075471
O	4.455898130679245	2.217691917679245	-4.212519940075471
O	4.435657760679245	-0.7621150333207549	-1.221088248075471
O	1.4876397506792451	-1.1377152533207548	-3.705663380075471
O	-1.620812739320755	-1.4771631733207549	-0.9265973460754711
O	-3.537224469320755	-0.357494583320755	0.874349929924529
O	0.749301160679245	3.2335893966792453	0.5383932499245292
O	1.823215800679245	2.723152776679245	-3.459298820075471
O	-2.499205329320755	-1.5130720133207551	-1.969740013075471
O	0.12222573067924497	-1.3573416233207551	-3.922536630075471
O	3.544011740679245	-1.771919803320755	-1.840819738075471
O	2.6054073506792452	-0.4971512233207551	-4.4175783500754715
O	-4.580649659320755	-0.2760914733207549	-0.06325523007547096
O	2.088383890679245	2.758979826679245	0.8795607699245291
O	1.8682715606792453	3.585183416679245	-2.393998000075471
O	3.6193994906792453	-0.9510839633207551	-0.043144310075470926
O	-3.0547718493207547	-0.7242822933207551	-3.029054410075471
O	-0.5620941343207551	-2.5911293033207548	-3.844543450075471
O	-4.509280289320755	0.946071485679245	-0.8940871560754711
O	2.881991530679245	3.6300357866792448	0.034142699924528896
O	2.111590250679245	4.597482576679245	-3.363937540075471
O	-2.787496029320755	0.11995458667924508	-4.07856926007547
O	-5.493543099320755	0.803919499679245	-1.929991049075471
O	2.4014909806792453	5.780064876679245	-2.648465860075471
O	2.625227260679245	4.976171576679245	0.2833978099245289
O	4.041089620679245	3.330327116679245	-0.12335080007547106
O	1.311810320679245	6.500989986679245	-2.689811210075471
O	5.170010870679245	4.042923436679245	-2.987901460075471
O	0.8321486406792451	6.720600406679245	-4.0221505400754705
O	0.5982804606792451	6.631555626679245	-1.509446922075471
O	3.019826610679245	0.5938152966792449	-1.533645235675471
O	2.416667140679245	0.49864502667924504	-2.626872730075471
O	2.415844670679245	0.6257165866792451	-0.564138440075471
O	0.6177352506792451	-0.5938169133207551	-1.658816034275471
O	0.6978509906792452	-1.2250447033207548	-0.4991982400754711
O	-0.399675113620755	-0.36133749332075493	-2.274274062075471
O	-0.288285078320755	-0.32010151332075476	0.902534359924529
O	-1.6049886793207548	-0.18452117332075502	1.206335709924529
O	-2.162437609320755	1.8840128836792451	-1.431236022075471
O	-1.8579079493207549	1.269358188679245	-0.460234400075471
O	-0.616591739320755	1.560792649679245	-0.011115820075471072
O	-0.403817151920755	3.7163924666792454	-1.520504252075471
O	0.16913752167924506	2.578636489679245	-1.487765739075471
O	-0.136478564320755	1.959664340679245	-2.592616112075471
O	-0.16804434532075502	0.8884939396792451	-5.142625110075471
O	0.5694687406792451	1.812651657679245	-4.9590669900754705
O	1.7284429906792451	1.9533051696792452	-5.789103320075471
O	-3.724789439320755	3.653576196679245	11.91265271992453
O	-2.910889629320755	0.537443716679245	9.92598571992453
O	0.261227591679245	-1.530242063320755	10.308738819924528
O	1.2641605306792452	-1.938605293320755	6.660331909924529
O	4.359438570679245	-4.057734023320755	5.908615059924529
O	4.093881290679245	0.3977751166792449	3.405041059924529
O	6.565589060679245	5.177886736679245	4.604879289924529
O	4.268703910679245	6.282457576679245	7.21789418992453
O	1.4891411806792452	8.583426476679245	5.885370369924529
O	5.339322810679245	9.698979486679246	-3.504992040075471
O	0.8300545606792451	5.855656426679245	-6.376754510075471
O	-1.614820839320755	4.119967806679245	-8.64165775007547
O	-1.312330498320755	5.468684846679245	-12.031718780075472
O	1.130806970679245	12.190822716679246	-5.605788740075472
O	2.203313560679245	15.296340516679246	-3.6123717900754713
O	-4.1286520093207555	12.114380916679245	0.4539023199245289
O	-3.920994619320755	8.709104926679245	1.801374109924529
O	-6.843001339320755	6.483848156679245	1.867622889924529
O	-6.146822059320755	5.674767406679245	5.586656809924529
O	-3.527880569320755	6.368353836679245	8.158898399924528
O	-0.6971447073207551	3.9372488066792446	7.621270339924529
O	2.322859770679245	2.9700415266792453	9.611904119924528
O	4.942443600679245	1.814713661679245	7.15463046992453
O	8.289088550679244	0.10858124667924507	7.696002899924529
O	10.216292650679245	3.2129011266792453	8.659064319924529
O	8.457540570679244	3.130222686679245	12.006236619924529
O	7.558827640679245	-0.5754593333207552	12.08293461992453
O	9.320810360679245	-8.595474383320754	3.0991982599245294
O	5.945507490679245	-12.011407783320754	-3.738312870075471
O	5.636533300679245	-9.311925683320755	-0.9713773750754711
O	4.023012560679245	-10.118162183320754	2.3114544299245288
O	1.760103360679245	-7.044986503320755	2.673782869924529
O	-0.177512726320755	-6.750065613320754	5.959169529924529
O	-3.092262329320755	-5.5557722833207555	1.6913143199245289
O	-6.454651989320755	-8.891270483320755	-0.997433682075471
O	-3.783930729320755	-10.738178183320754	-2.922340650075471
O	-2.950839269320755	-9.311489583320755	-6.292381360075471
O	-11.465348349320756	-2.1723918633207546	-9.56595736007547
O	-8.943100299320756	-1.868158783320755	-6.790319150075471
O	-4.635516069320755	3.569449276679245	-3.467631880075471
O	-2.957581079320755	6.701307506679245	-3.1124656100754713
O	-3.238630049320755	7.902109706679245	-6.662137880075471
O	-6.251335339320755	6.033563306679245	-7.700618520075471
O	-7.426826649320755	2.6788932976792452	-9.019017380075471
O	-6.649219489320755	-0.05489117332075488	-11.446655060075472
O	-8.726831349320756	-2.668402253320755	-13.188005180075471
O	0.48960130967924503	-4.511742373320756	-10.881853460075472
O	4.180868230679245	-3.993753473320755	-10.632420870075471
O	4.478061840679245	-6.607426963320756	-7.779840780075471
O	3.059451250679245	-9.931267283320754	-6.630762170075471
O	1.3062854506792452	-9.071620883320755	-3.292661150075471
O	0.281738808679245	-11.509310483320755	-0.661868089075471
O	-2.493755359320755	-9.852766083320754	1.2624176199245292
