83

O	-4.681729783777778	2.1949569117977776	3.8911060513333333
O	-3.700936063777778	2.247181291797778	2.8869086913333337
O	-2.292261941777778	2.289202591797778	2.9403058713333334
O	-1.5821867420777778	2.3969532417977777	1.6956856013333335
O	-2.143883682777778	2.3969830417977778	0.49826424233333366
O	-3.2544660437777777	3.1406976617977778	0.6389762513333336
O	-3.936657783777778	3.228313871797778	1.8910398013333336
O	-1.806952792777778	1.9713024117977778	-1.0666124376666664
O	-3.130157973777778	1.828801341797778	-1.8164542886666664
O	-1.3948141217777779	3.206680481797778	-1.5688436986666665
O	-1.2979396697777779	0.45719028591777783	-1.3024667186666663
O	-0.11755906377777792	0.2764961107977778	-1.8628047486666661
O	1.005031416222222	0.6883631577977778	-1.0815217256666663
O	1.9433651362222222	-0.10040206920222217	-0.3449171496666663
O	0.5246833462222222	1.8414863717977776	-0.35080408466666635
O	-2.359519148777778	-0.3498567342022222	-0.9560737256666663
O	-2.9542850037777777	0.3335810147977778	0.2837191783333337
O	-4.089894933777778	0.0910006157977778	0.8326028913333338
O	-2.358592662777778	-0.5056377312022222	1.2140308913333335
O	-2.658488896777778	-1.8498614582022221	1.0418662813333337
O	-2.513315739777778	-2.535564658202222	-0.13310410266666634
O	-3.379810853777778	-2.550527898202222	-0.9483366456666663
O	-1.2680059287777778	-2.865444248202222	-0.5167756851666663
O	-0.6043589737777779	-2.968685748202222	-1.6896465586666665
O	0.7737081362222222	-2.601923108202222	-1.5473245686666663
O	0.9255871562222222	-2.973433388202222	-0.20745963266666634
O	0.6553783862222222	-4.201472248202222	-0.3536636076666663
O	0.021931346222222148	-4.7341435882022225	0.7089212213333337
O	-1.3073724507777778	-4.8051391582022225	0.5508777013333336
O	-1.636057797677778	-4.739896018202223	-0.9049650586666663
O	-0.28138562377777787	-4.542385558202223	-1.4546134636666663
O	-1.051792368777778	-0.47864974920222214	0.37872329733333365
O	-0.647599943777778	-2.032042528202222	2.1007675413333335
O	0.3652881562222221	-2.548822478202222	2.8378290013333336
O	0.9722522262222222	-1.5860241482022222	3.545259521333334
O	0.9028835562222219	-0.27288734420222216	3.2207611313333335
O	-0.032357583777777865	0.017402795797777815	2.3175565413333334
O	-0.3513464237777779	-0.9230463982022222	1.4016014313333338
O	-8.817079973777778	5.1890887917977775	-7.814629398666666
O	-5.233856073777778	5.646246131797778	-6.728695138666666
O	-2.1903299847777777	5.1454425217977775	-8.993209458666668
O	0.03051878622222204	3.092079361797778	-6.945287718666666
O	3.4892531262222217	1.8838988317977776	-7.934862298666666
O	0.649238606222222	-1.9709351782022222	-5.349675198666666
O	-2.181105219777778	-5.734946298202223	-8.189656678666667
O	-5.209893233777778	-3.712337928202222	-8.967421998666667
O	-7.748806163777778	-4.064997328202223	-6.169772958666666
O	-3.916752273777778	-11.737084358202223	-1.1837055656666662
O	-2.0916141357777778	-7.994102298202222	3.9395459013333336
O	-1.072392897777778	-6.616294308202223	7.268494181333334
O	-11.804422013777778	-5.340939578202223	1.2535017213333335
O	-9.334358803777778	-2.789007978202222	0.1461559083333337
O	-9.105164103777778	0.4309686858977778	1.9600204513333335
O	-9.474933603777778	2.2946527117977777	-1.4438707286666663
O	-9.475405523777777	1.5208470617977778	-5.048369538666666
O	-6.057631863777778	1.0436003677977777	-6.446408038666666
O	-4.472453153777778	0.6991439487977777	-9.746634498666667
O	-1.4034812507777779	-1.407242748202222	-9.268289868666667
O	1.4655694062222222	-2.344058938202222	-11.546549168666667
O	13.679038786222222	0.10148706179777783	-0.8711533736666663
O	10.495144886222223	0.3576970327977778	-2.9887755686666666
O	9.478242386222222	3.653036541797778	-4.574975548666666
O	5.778739446222222	3.725219591797778	-3.6922014986666665
O	3.4381509462222217	6.430337091797777	-5.025240318666666
O	2.5176687262222215	5.006178191797778	0.30007465633333363
O	4.662744156222222	7.957058631797778	4.470413111333334
O	8.087437576222221	6.250132891797778	4.392623891333334
O	-0.34805369377777784	3.003150921797778	14.075734131333332
O	-0.5477999037777779	2.648566011797778	10.346783931333333
O	-4.142674653777778	-1.3239729582022224	5.230099601333334
O	-5.791396883777778	-4.419361478202222	3.728117431333333
O	-5.605079203777778	-6.717323238202223	6.647416351333334
O	-5.215741673777778	-4.192811598202223	9.372171671333334
O	-2.675457223777778	-2.122439888202222	11.330695831333333
O	0.8299929062222222	-2.280355928202222	12.762463631333333
O	2.6379604362222215	-0.2822760872022222	15.377473931333332
O	7.596853226222223	-4.335494918202222	7.708646231333334
O	8.772179386222222	-6.863577298202222	5.107479941333334
O	9.806465286222222	-4.130836158202222	2.6843175313333334
O	9.020799386222222	1.7549529817977776	1.4744771513333337
O	9.750689586222222	5.203498871797778	0.16028295333333364
O	6.377964046222221	7.003120631797778	0.3261080333333337
O	5.351232416222222	10.339991621797777	-1.1337136126666665
