41

O	22.41339818238615	-1.7960869287130123	16.31422108430697
O	22.21233995131872	-2.897570901304797	17.128732487739406
O	21.173002164806828	-3.4285739668695117	16.51342017986452
O	20.33221344403923	-2.4248435138873896	15.810758166609611
O	22.750755076213757	-0.8237761854641339	17.10712850583083
O	21.905989127273465	-0.9912936850895836	18.223775970163242
O	20.614992167936116	-0.9498750631310547	17.59119563400156
O	19.360582835524728	-3.4157121747983172	15.698279221545697
O	19.10121488080067	-3.6558241150079143	17.174999137688996
O	19.862135573930548	-3.8323019744928484	18.25591462302031
O	19.29330995875095	-3.734815880517684	19.477427951743962
O	18.139119499198678	-3.0570653568759694	19.642679369467803
O	17.422966278709637	-2.861060712844519	18.53850171815934
O	18.096751590827843	-2.756609586314594	17.370554986275135
O	21.18026713632782	-2.2100027923365237	14.374910843416613
O	21.356617554927695	-3.847923399110531	13.912637926157327
O	22.221989977415724	-4.433112290442913	14.773570168233626
O	22.243260663555862	-5.73778391235191	15.20635611894522
O	21.051101236054638	-6.314321203084361	15.51308543863217
O	20.200042272436235	-5.948019761826725	14.454665930569837
O	20.28789990764316	-4.615159633576947	13.933517576678982
O	21.14581797371613	-7.757315904103027	15.647477463293287
O	22.49654135429069	-1.723648641257584	14.034733720573277
O	20.383864377531854	-1.2725577522923535	13.712726370184702
O	19.747043978691952	-0.4731663016250316	18.56918896203086
O	20.37456891556488	-0.7455658015503572	19.859019978654075
O	21.45680375380379	-1.536959330804811	20.12577688419818
O	22.296712898931958	-1.187525246365071	21.13511234823111
O	21.633423546905192	-0.48325964567086155	22.12253841168695
O	20.29113888863176	-0.22715117783018068	22.138744253640184
O	19.67761164094358	-0.4063362695375723	20.929914743169483
O	20.721595697976824	0.4207271994675923	16.565620352324196
O	21.154797414709222	1.5007417375773742	17.77499129801724
O	20.240796767800816	1.8308680526720875	18.647331403882966
O	20.53077505768927	2.5594693528168273	19.850233290392946
O	21.683455312939735	2.2782301961193694	20.50925243268606
O	22.63990476537427	1.650345744066114	19.800342597649323
O	22.24541692735743	1.2248714966621044	18.518739344331763
O	21.971905680918738	2.581021532192307	21.880963035267385
O	19.472447622143825	0.35739955212046737	15.953386881044484
O	21.75127525157364	0.551862173700387	15.613019124057814
