48

O	20.391024864448095	-3.420092042935492	17.77229777034333
O	21.36777260831339	-2.829861083079961	17.120747465636615
O	23.573389402678256	-1.9553011394835023	16.67124773962966
O	22.989330309477953	-3.991209537712903	13.561486994133698
O	21.968258493048587	-3.7003263728423725	16.147242043918627
O	21.825393728814106	-2.8770610064093214	13.957996558077268
O	24.145542979867407	-4.174709775326134	14.355807734146872
O	23.628814396725016	-0.6835810329746546	23.41148610794822
O	23.13818758010056	-2.8682247155967158	15.81150213819944
O	23.142081840352922	-1.9692542924953407	21.781524241706123
O	23.240596382336214	-3.9666406017664224	12.135930794063633
O	22.232831745559167	-4.869979200415311	16.613272591175164
O	20.514106224288767	-1.3306613636165834	18.85344419909681
O	20.34969655309993	-4.584977269967119	18.122439770205695
O	22.07685769481642	-2.127276456879934	15.106059846173531
O	22.353633163191304	-0.32100839925683733	19.113854193157678
O	21.015942636130838	-0.6902892693672134	20.917714884931655
O	20.87302063536009	-0.745166347301165	17.718442887233216
O	23.022836118881465	-8.133482243996273	16.3605032103343
O	19.566355961635807	-3.1075522761503396	14.45911674542138
O	23.774181697824915	-7.456158249355254	17.316358103349366
O	20.789955247052642	-3.722395507896306	14.466798829777474
O	23.11656833883606	0.13500763575425823	21.97427164106287
O	23.65701411856819	-0.4467262867498636	19.637459741608666
O	23.113187765059678	-4.299841890548848	17.65093655157712
O	22.87224766355216	-3.4777081371091576	18.695294755321395
O	23.677644441357067	-3.756651469318716	19.72460351982646
O	24.958805508296237	-3.34236652027446	19.49164868976276
O	25.309820483810118	-3.7510169763607024	18.251783490595148
O	24.40134575151492	-4.273169935458177	17.335484551035105
O	18.541708046230717	-3.932137186795492	15.063642555723536
O	19.847314999913543	-1.6881953271841184	14.633492730955577
O	19.715895093240814	-2.490156738870538	18.78229584312973
O	21.3223831777109	-0.8630784821311346	19.740497477159607
O	18.654586713700084	-2.017410163558096	17.721242812577586
O	18.19731758132263	-3.276493396351376	17.19458258816444
O	19.044998852808607	-0.9266035878899426	16.90890068462369
O	23.45170827990272	-0.8422472567996682	21.026233324932832
O	24.534437410716336	-3.439490903203762	23.206708705438928
O	24.260322545368176	-2.0925158044231056	22.55875589677912
O	21.843115509826163	0.05737527533783626	17.907634636157084
O	22.513203416237605	-6.6034502527600045	12.82140628441536
O	22.194598242450006	-7.5448900782381685	13.758913902873815
O	21.44558365349227	-7.247747654880915	14.918962290916394
O	20.4251309351016	-6.462487832481924	14.516235410012634
O	20.709526515221192	-5.610201937891014	13.469415218124361
O	22.035361268002468	-5.438243067160773	13.209045906658858
O	21.834011197168742	-7.98206912939358	16.006500818543834
