84

O	-2.8816043262326083	3.4715117757608693	0.3779386137978259
O	-2.426958886232608	2.8673714757608697	1.484597013797826
O	-2.5836385162326083	1.5481089177608696	1.6051515437978257
O	-3.087928166232609	0.9001609366608695	0.6244467937978259
O	-3.957427906232608	1.5064445537608695	-0.15312493220217416
O	-3.881443916232608	2.8354275957608697	-0.26890367620217415
O	-2.4222732262326083	-0.5536098642391306	0.06487439179782584
O	-3.0447092262326083	-0.9125998542391306	-1.1801743762021741
O	-2.6065355062326083	-1.2616287942391304	1.2728230337978257
O	-0.8339843422326084	-0.3495279942391306	-0.2620397342021741
O	-0.1641815972326084	-0.3472809942391305	0.853488693797826
O	0.9188056337673915	0.3583754387608695	1.3520379537978258
O	0.4732110837673915	1.4884549767608695	2.1769841437978257
O	2.193494143767392	0.7688157857608695	0.8718600037978258
O	-0.8897832402326085	-0.03674738723913051	-1.617986723202174
O	-1.9567942742326085	0.9258070107608695	-1.862685911202174
O	-2.573390276232608	0.8479201267608695	-2.9734441862021743
O	-1.2431381182326084	2.1752709857608696	-2.165183816202174
O	-0.3609347442326084	1.7914353767608695	-3.2046746462021742
O	0.048367713767391685	0.5649860847608694	-3.7027084962021743
O	-0.8405809092326084	0.04861135476086953	-4.376129906202174
O	1.0872183437673917	-0.2648505542391305	-3.4080276862021743
O	0.8515835137673915	-1.4027876742391308	-2.629669826202174
O	1.4373161337673916	-1.6206215542391305	-1.162632281202174
O	2.2614823137673916	-0.5671255542391306	-1.394138334202174
O	2.9848494437673914	-0.21538573423913043	-2.412920066202174
O	3.1144968937673916	-1.0125515342391305	-3.5062337962021743
O	2.9489017737673917	-2.2748343142391305	-2.798006406202174
O	1.5485666837673915	-2.3826074042391308	-3.3340237762021743
O	-0.7040941872326084	1.6438182927608695	-0.8601359440021741
O	1.3570730937673916	2.3943126257608696	-1.987502446202174
O	2.5694996537673918	2.9115080057608695	-1.720962120202174
O	2.5904419637673914	3.7627127257608692	-0.6701740242021741
O	1.5538375237673916	3.914960535760869	0.1884847737978258
O	0.3847222837673916	3.3341445757608694	-0.2015497002021741
O	0.5037618237673915	2.2395870357608696	-1.005966090102174
O	-2.820193416232608	4.804066825760869	0.270300943797826
O	-3.9863078462326085	5.24591231576087	0.982008803797826
O	-11.738771036232608	-4.55266220423913	-0.5692260952021742
O	-8.720447786232608	-4.464420414239131	1.6914612737978256
O	-6.606672366232608	-7.53624618423913	2.5307889137978257
O	-3.1947232162326085	-6.3707662942391305	2.0818452637978258
O	0.05435471376739165	-8.187612864239131	2.598468673797826
O	0.14222869376739156	-5.25849964423913	-1.720145270202174
O	-0.9232458542326084	-7.16847914423913	-6.827920476202174
O	-4.594505396232608	-6.96791802423913	-6.627589316202174
O	-5.877547876232609	-3.64682689423913	-7.9137946762021745
O	2.505399053767392	-0.1945388442391306	-11.818183356202175
O	3.4129375437673914	4.168271075760869	-7.256856966202174
O	4.459721433767391	7.31799569576087	-5.426196026202174
O	-6.737735136232609	4.62661592576087	-10.185001126202174
O	-6.185205196232609	2.9393591757608695	-6.909656366202174
O	-7.1496533662326085	4.72009469576087	-3.882984096202174
O	-9.126423826232609	1.5944320967608694	-2.701639556202174
O	-9.771432056232607	-1.8736077842391308	-3.7879527562021744
O	-7.076869196232608	-4.18959876423913	-2.675466306202174
O	-6.429372196232609	-7.8050831842391295	-2.5365408162021743
O	-2.7092249162326083	-8.25791983423913	-2.816101456202174
O	-0.4821512312326084	-11.275574014239131	-2.417092406202174
O	-4.624085586232608	-13.66805811423913	-4.656370986202174
O	11.095441563767393	-4.30405704423913	6.816372323797826
O	7.784628813767392	-5.42233421423913	5.239707203797826
O	4.884951073767391	-6.52789990423913	7.446339293797825
O	2.038217923767392	-4.6147491642391305	5.748564203797826
O	-1.6018573832326084	-5.20671058423913	6.849208343797826
O	-0.3707423252326084	0.0028828197608694595	5.723730523797826
O	1.0614451537673915	3.627104525760869	9.723682343797826
O	4.718397633767391	2.5549209557608696	9.992782243797826
O	1.9918637637673917	14.043061285760869	3.996188623797826
O	1.1488716137673916	10.508180975760869	3.2279253937978254
O	-1.2168053572326083	6.53374258576087	-2.7940242162021742
O	-1.5492250232326084	5.39882348576087	-6.255511606202174
O	0.6129027037673915	7.99037400576087	-7.797575416202174
O	0.3362292837673917	10.687115765760868	-5.168080936202174
O	1.9026819037673917	11.801346985760869	-1.857452528202174
O	5.256867913767391	12.21464708576087	-0.1354533572021741
O	6.423874483767391	14.294830485760869	2.7616624737978257
O	10.439360363767392	5.40824916576087	0.9187844137978259
O	12.051577563767392	2.5150754757608693	-0.971241364902174
O	10.901183463767392	0.014300945760869488	1.627138603797826
O	7.023891843767392	-0.6691362642391304	6.254794233797826
O	5.559230163767391	-2.0198409642391306	9.460549543797827
O	1.8945025137673916	-0.8990107442391305	9.401945843797826
O	-1.0140648525326084	-1.8798741242391306	11.616117743797826
