68

O	0.3609430927555549	-0.6869437542355559	-2.9615025803533332
O	-0.778600169944445	-0.09941077623555572	-3.4456316903533333
O	-1.256347692244445	-1.5641145442355557	-5.160224390353333
O	-0.19506789324444507	-2.3197358842355555	-4.691011270353333
O	0.6913904927555549	-1.7726027142355556	-3.7836404103533328
O	-0.9738318152444451	1.0992754397644442	-3.1601331303533335
O	-1.607924151244445	-0.5552161142355558	-4.3694402603533335
O	2.002737172755555	-1.9672229342355556	-4.0456630203533335
O	1.6784491127555548	0.9411162606644442	-1.4235396463533332
O	2.913852402755555	0.7743022227644443	-0.7327052063533332
O	3.373763922755555	1.6382962177644442	0.2581162096466667
O	2.605855532755555	2.7958034457644443	0.3852665596466669
O	1.2368679927555548	2.5454628957644445	0.3944325396466668
O	0.8100565227555548	1.6693662127644442	-0.5773547243533332
O	1.0580748027555549	-0.3493031942355558	-1.790269653353333
O	1.310693732755555	-1.3027569042355558	-0.6974640383533333
O	2.8121365827555547	-1.5615324242355557	-0.4846565423533332
O	1.2265134127555548	-0.3375543842355557	0.5642649796466668
O	-2.345581157244445	-2.3349144842355556	-5.608621140353333
O	-2.357942597244445	-3.7289653542355556	-5.467844710353333
O	-1.111325800244445	-4.3292695042355565	-5.623540470353333
O	-0.002240730244445044	-3.5766884042355556	-5.257138850353333
O	3.299226742755555	4.115377305764444	1.5556920296466668
O	-9.572004777244445	6.976112445764445	2.4285499296466666
O	-6.775595207244445	5.243256205764444	4.296073049646667
O	-7.358993607244445	2.077632185764444	6.343469979646667
O	-4.536782797244445	-0.04883350623555571	5.248349819646667
O	-3.7834418072444453	-3.483915324235556	6.596280819646667
O	-3.277959167244445	-3.845407584235556	1.1747883996466666
O	-7.257951097244445	-4.857274164235555	-2.168424210353333
O	-9.198775257244446	-1.6733289242355558	-2.0208783143533333
O	-8.011342647244446	0.8493384979644443	-4.590445050353333
O	-2.160568997244445	-5.402253524235556	-9.897344360353333
O	3.2029472227555544	-2.345015594235556	-7.892120880353333
O	6.628603112755555	-0.8236971442355558	-7.319783050353333
O	8.812061912755555	-1.780779634235556	-10.194460950353333
O	-0.2814637602444451	-1.4957849342355556	-13.059531390353333
O	-3.5972939872444454	5.337868975764444	-10.183758460353333
O	-3.153937677244445	4.989951205764445	-6.474403340353333
O	-1.309111561244445	7.623060255764445	-4.455788150353333
O	-4.286115057244445	7.809228305764444	-2.072443907353333
O	-7.653472847244445	6.0907974057644445	-1.6487858393533332
O	-7.003578727244445	2.8766486057644443	0.28111181964666687
O	-9.310516807244445	0.4511254287644442	1.9908988296466668
O	-7.600508107244445	-2.918404254235556	1.9377924996466669
O	-8.240597257244445	-6.224099774235556	3.674716379646667
O	-13.290153387244445	-4.729949924235555	2.871673439646667
O	-11.541104687244445	-4.335379094235556	6.246555529646667
O	3.794341022755555	-7.3230828742355545	7.763084439646667
O	2.0668892927555547	-5.000444664235555	10.249165509646668
O	1.055663932755555	-2.1938791742355557	7.821538689646667
O	-1.155389124244445	0.6852689707644443	8.967637109646667
O	2.807382682755555	2.582634985764444	5.780971029646667
O	7.598560572755554	4.209531455764444	7.438714869646667
O	9.177417262755554	0.7883820161644443	8.136488429646667
O	9.894687112755555	5.932324195764444	-1.2821832263533333
O	3.661062592755555	4.118033355764444	-4.412054120353333
O	1.473151822755555	2.6108463157644444	-7.062946650353333
O	3.9015993527555546	1.8889067457644442	-9.800664890353334
O	6.583375312755555	4.2815964257644445	-8.728878180353334
O	9.536913812755555	4.545523175764444	-6.352768690353333
O	12.515665612755555	2.676885055764444	-5.035052780353333
O	11.383448712755555	-4.748836344235556	-1.0354078614533333
O	9.774925712755556	-8.193441844235556	-1.352005167353333
O	8.257447882755555	-7.931219244235555	2.1211302796466667
O	6.955980032755555	-3.8099723042355556	6.371542999646667
O	6.348544792755555	-2.4967952642355558	9.841059609646667
O	4.925988582755555	1.0168428777644443	9.458536009646666
