109

O	1.8553721296298225	-0.525788117385965	2.9674299125789476
O	1.3655483196298226	0.26084630961403493	1.9619783625789475
O	0.11263615962982243	0.6584756322140349	2.1723578225789475
O	-0.6015745403701775	0.756725586614035	0.9845304225789475
O	-0.6682347403701774	0.609720734764035	-0.29581157042105244
O	0.5481586696298226	0.423622640614035	-0.3930445614210525
O	1.4623050196298224	0.006233839614034897	0.5703286815789476
O	-1.5333579823701775	1.203851808614035	-1.5360680774210524
O	-0.9328595593701775	2.128128982614035	-2.4649843574210526
O	-1.9721743733701775	0.28404574961403495	-2.4921800574210526
O	-2.9128212103701774	1.770295692614035	-1.3108230974210524
O	-3.3929331503701774	2.366085962614035	-2.3475634674210526
O	-3.5035618803701776	3.748233312614035	-2.2276258174210524
O	-4.147934890370177	4.012273892614035	-0.9365639734210525
O	-2.2875254133701777	4.491302242614035	-2.5809416574210524
O	-4.006478230370178	1.785894802614035	-0.6262916004210525
O	-3.2272361703701775	0.9337417046140349	0.22425172357894754
O	-4.427722430370178	0.673685517714035	0.8562623685789476
O	-2.6377166263701772	1.7942529826140348	1.1085109425789474
O	-2.3626962903701774	0.763563038614035	1.8560457125789476
O	-3.0682881603701775	-0.19245504338596509	2.3738270325789474
O	0.8686962596298224	-1.110788177385965	3.7145983925789476
O	-3.8123280303701774	0.42967257661403496	3.1129276525789473
O	-3.5421107103701774	-1.301630607385965	2.0784614925789473
O	0.021240709629822607	0.41735341361403494	3.9004389125789474
O	-4.432586360370177	-2.257266457385965	2.2919410325789475
O	0.4216182296298223	-2.413361757385965	3.2663296325789477
O	-4.264222090370177	-3.425468207385965	1.5921881325789475
O	-3.6278857203701778	-4.462380657385965	2.2350364825789475
O	-3.1129401903701774	-3.8913667273859653	3.2076272025789474
O	-2.0418624993701773	-3.7724851273859654	3.9470812125789476
O	-2.0127329213701777	-2.448947477385965	4.537910232578948
O	-2.6223943143701773	-1.747122347385965	3.5015522725789476
O	-3.8828857403701775	-2.6767592173859653	3.5560816525789476
O	-2.4661819363701776	2.850102282614035	0.3609476595789476
O	-0.7699786403701774	4.137644842614035	-0.7540142034210525
O	0.4770805096298223	4.472779722614035	-0.9288574304210525
O	1.2384113296298227	3.458283452614035	-0.4142368314210525
O	0.9584844796298224	3.322079562614035	0.9008633815789475
O	-0.39021843037017745	3.1612790826140347	1.1209084725789475
O	-1.2040171903701775	3.2684944526140347	0.09949668757894756
O	-0.6229267903701774	-1.962360517385965	2.1978757625789473
O	-0.5309213503701775	-1.823064167385965	1.0054075725789475
O	-1.3397295173701775	-1.5492979873859651	-0.07970992152105245
O	-2.3696267613701774	-2.134142917385965	-0.6619722034210525
O	-2.1696383373701775	-2.9720172873859654	0.41250649757894753
O	-1.0910579963701776	-2.915765687385965	1.3390248025789475
O	-3.2945462103701777	-1.340406357385965	-0.5932043854210525
O	-3.9445065803701773	-0.936424477385965	-1.9165714274210526
O	-5.252449910370178	-0.30347485238596505	-1.6042753674210526
O	-5.5427973603701775	-1.038474547385965	-0.32621677542105243
O	-4.4954199103701775	-2.042459847385965	-0.5371577424210524
O	12.399603179629823	3.675911642614035	-8.579516997421052
O	9.388924579629823	1.811712402614035	-7.182653637421052
O	5.682726639629822	1.6503568026140352	-7.8585678174210525
O	3.938235049629822	-1.5027156173859653	-9.080273017421053
O	1.0253100596298226	-1.634388017385965	-6.892422537421052
O	-1.6099200323701774	-4.302325577385965	-7.369269497421052
O	-0.1674710903701775	-3.303150407385965	-2.3826286874210525
O	3.377162319629823	-6.205248237385965	0.4945559125789475
O	6.551802539629824	-4.823868517385965	-0.8415810164210524
O	7.662644479629822	-1.8566097473859653	1.2786133525789476
O	6.710376969629824	-6.217254387385966	11.911371482578947
O	3.5871508096298226	-4.087805827385965	12.264742182578948
O	1.6831479696298226	-3.334405577385965	8.987606412578947
O	-1.8441118122701774	1.8230558826140348	7.591010912578948
O	-4.201308980370177	4.761927582614035	7.743261752578948
O	-5.427777770370177	5.456236022614035	11.274650982578947
O	-3.4280421203701774	2.588335572614035	12.676885082578947
O	-0.5432597403701775	0.20128308261403494	12.350794582578947
O	3.0137317996298223	1.114018193614035	11.532120882578948
O	6.362501429629823	-0.47050698738596497	12.465766982578947
O	8.562678579629823	-1.7472859073859652	9.701511612578948
O	9.838325979629824	1.5516453556140348	6.707425052578948
O	8.078678009629822	4.902880642614035	6.458845472578948
O	6.3874617196298225	4.489972272614035	3.2252678225789477
O	5.387639229629823	7.531772312614035	1.0781459725789475
O	7.105853739629824	5.754380672614035	-1.9356127874210525
O	8.778028779629823	2.412047822614035	-2.6770542774210524
O	5.998649069629822	-0.09012842038596502	-3.4583453474210524
O	6.267720109629822	-3.4643157673859655	-5.110383867421052
O	3.2432476996298223	-5.274846797385965	-3.8777381474210526
O	1.6202563096298226	-8.530684477385964	-4.850720937421052
O	3.9999408896298223	-10.734706567385965	-2.9936228374210523
O	6.661900929629823	-9.989466367385965	-5.620007217421052
O	4.333702659629823	-9.012110337385964	-8.479172717421052
O	7.4769723996298225	-11.722318667385965	-11.893427617421054
O	-6.204225680370177	-9.056069537385966	-3.8760378174210524
O	-7.725517330370177	-8.260242467385964	-7.303152287421052
O	-11.360353870370178	-7.941716447385964	-6.201449767421052
O	-10.168778290370177	-3.622925187385965	-5.723835317421052
O	-8.403409040370178	-2.8544882573859653	-9.053609077421052
O	-5.414785510370177	-0.8432258673859651	-7.721409857421052
O	-2.5950949593701775	0.31737582161403494	-9.922883987421052
O	-4.140732220370177	3.819950572614035	-6.285139067421052
O	-7.658353770370178	8.036312072614034	-7.275581937421052
O	-5.763862170370178	11.636703932614035	1.2642165725789476
O	-0.7692210503701775	6.638862512614035	3.1739767625789477
O	1.5303889096298224	4.6623523126140345	5.491577362578948
O	0.1412596896298226	5.863579572614035	8.770433972578948
O	-1.2517778863701774	9.214764242614034	7.850396482578948
O	-4.323954780370178	10.812314032614035	6.2829679425789475
O	-8.077097350370178	10.743233432614035	6.271952132578948
O	-12.126448720370178	3.7165279026140348	3.8950175725789475
O	-12.441342720370177	0.0648358016140349	4.637684172578948
O	-12.261420520370176	-0.872414747385965	0.8980118745789475
O	-10.668726560370176	1.147502675614035	-4.508281547421052
O	-10.601132760370177	1.573533071614035	-8.244477447421053
O	-7.617895790370177	3.7818405026140347	-9.079954227421053
