46

O	19.294753729247198	-6.684333017773671	20.585268645393935
O	20.33292939226304	-6.756408576890445	21.458238791420726
O	20.76549544211774	-4.358769958411653	17.607662517424316
O	21.990101192714466	0.1817943930508581	18.51588525096767
O	19.559827294057627	-5.835886347331575	19.493100108517222
O	22.913584590581426	-3.4135213205160078	18.542635662071923
O	21.037254217306128	-3.8966551934554516	13.367088564181577
O	22.441354731104166	-8.495708041269177	13.517340216652798
O	20.516459436374525	-4.807182511449623	19.620198072488016
O	22.720580283932318	-2.950804555016114	15.918673890056994
O	23.976182439925843	-4.697313069529423	17.057549058657813
O	21.149641366915485	-4.6592841709745425	20.90513576833976
O	22.51295655729706	-6.106559232518526	14.84230738566447
O	23.58429351573442	-4.207177343841411	14.215292295665872
O	21.281311973339463	-5.8001045970297795	21.644055478034314
O	21.933976371591747	-6.418628821273305	12.482006647865617
O	19.83196454974181	-6.7291696976824245	13.293347289522782
O	20.69507386396081	-3.740751138111454	18.788240326714913
O	21.514733762052387	-1.4324605865403448	16.968911414263314
O	20.310616062498976	-2.575256838333675	19.328824965035793
O	20.66922208697675	-2.2864361026421696	20.613064651971005
O	21.23768830237364	-3.3357832623665713	21.379232576873257
O	21.731886581635663	-5.134840304760545	17.212252784332822
O	22.917219430092718	-4.430476529378552	17.584549754874757
O	22.97806836143653	-1.0953059780859724	19.066593970482135
O	22.58936663177357	-1.9715550154203967	16.906597047392633
O	21.741187734184457	-2.8500669997035537	14.952590033801199
O	21.334447945742316	-4.197866534418868	14.618286563377765
O	20.60378553683302	-2.115839001755493	15.263874156501945
O	22.547859288704526	-4.7980369366194555	14.267733580500774
O	21.26506913858106	-6.774195836299064	14.832321223088062
O	21.23241325157405	-8.270780712750089	14.797930393688013
O	23.265989918017457	-7.078922185200492	14.178053006492764
O	20.969082814806463	-6.446156475572311	13.465848751860445
O	21.627997225690358	-6.43170942103623	11.084520012787188
O	20.204968926216942	-6.878661300681713	10.971234836626076
O	21.914245796503977	-5.06749597698041	10.561749270880298
O	22.424041956384716	-7.396665978250137	10.276771268124302
O	23.339384645117875	-2.145736427280629	18.135634402383292
O	20.353529750409706	0.4997034544577499	18.188263828194277
O	19.61939902207927	-3.043886124023239	15.820762225778356
O	19.2005858494774	-4.238123562586146	15.24142022727212
O	18.504911534006794	-5.182983706604286	15.923407251878764
O	17.786320650381036	-4.650798236001325	16.95195517355563
O	17.85895224907276	-3.3665173822133365	17.331281533298647
O	18.64655385198131	-2.511508255955725	16.59394328647952
