112

O	3.1002150160245283	-0.9643621101886797	-0.8959904922452837
O	1.7789314460245282	-3.0216660801886794	0.37571352275471637
O	-1.950444133975472	2.8857480598113208	-0.6162799102452837
O	2.6131596360245286	0.3038554018113204	-0.46470366124528373
O	-0.7926806089754719	0.15394403981132043	0.08352670275471619
O	-1.7822110039754717	0.42882914581132037	-2.7954581272452836
O	2.6969873860245284	-1.8805037301886796	0.028626832754716336
O	3.2884276860245283	-1.4900542501886795	0.9882964427547163
O	3.6399487460245283	0.5483207108113204	0.42249908275471637
O	-3.413160463975472	3.3084450198113204	-0.7336998312452837
O	-1.879364633975472	-0.5399860501886795	0.3796640627547163
O	-1.9182086839754717	1.9467764798113203	0.5259373527547162
O	-2.7331740539754716	0.5086625968113203	-3.715738097245284
O	-3.0100192939754717	1.2357221568113204	0.8136625427547164
O	5.013321456024528	0.3711199778113204	-0.07990644724528373
O	-1.4168945539754718	-1.4456551701886797	-0.6760853242452838
O	-3.5042211539754717	3.7278272098113208	-2.2046018972452837
O	-4.103941733975472	0.7904160391113204	-3.3582482272452836
O	-4.077756613975472	2.0303305398113203	-0.9070596502452837
O	-2.7125511239754716	-0.8545730401886795	-4.218775737245283
O	-0.5486792459754718	0.06339129781132036	-3.195460047245284
O	-1.237560633975472	-2.79395570018868	-0.2670778312452837
O	-5.120516253975472	-0.2281136301886797	-3.126208807245284
O	6.151361756024528	-0.22647561018867957	0.3646266327547163
O	-2.8303872139754715	-1.3676983001886798	-1.0857235063452837
O	5.591801076024528	1.5884289348113203	-0.1668024902452837
O	6.923328946024528	1.4964191058113205	-0.44051783524528376
O	-0.8584301569754719	-3.5470524201886793	-1.4701089552452837
O	-2.8193577139754717	-2.3864113501886797	-2.1055392912452837
O	7.116287456024528	0.1835930268113204	-0.5166207872452837
O	-1.5087288939754717	-2.9293177101886796	-2.5499770472452834
O	-0.5928136929754718	1.4549231618113203	0.47239067275471625
O	0.6397086660245281	1.7136341778113204	0.7503890027547162
O	1.7930045860245283	0.6104690158113204	-3.527084577245284
O	2.4001465560245285	-3.09879210018868	-1.9084514542452837
O	3.696270876024528	-2.82978565018868	-1.8512965832452837
O	0.39335095002452813	-0.6188713801886796	0.5331329527547164
O	1.8121658460245282	-3.6103893501886795	-0.8092086042452837
O	1.7492450460245281	-2.578221910188679	-2.944802407245284
O	-2.2350447039754715	1.3442412338113203	-1.9708329712452837
O	0.8405092880245282	-1.0011252501886796	-1.1050419776052838
O	2.2835728560245285	-2.48820749018868	-4.167184757245284
O	0.6230778380245282	0.6245897188113204	-2.855518907245284
O	-0.1545782992754718	2.2267979298113203	-1.5446364762452838
O	3.6083276060245284	-2.8004471601886793	-4.260888277245284
O	4.307703756024528	-2.83686013018868	-3.0924328372452834
O	-0.5454657839754719	-1.0286238601886797	-3.7066844472452836
O	5.648479896024528	-2.6926393901886794	-3.1065866372452837
O	6.295013376024528	-2.5171146201886794	-1.9429214892452837
O	5.756390176024528	-3.03256122018868	-0.8303664172452837
O	4.493358956024528	-3.5403939901886794	-0.9556756242452837
O	1.2092192260245282	-0.1082295121886796	-0.3858012412452837
O	3.5143537360245283	2.0572970798113204	-2.4164972772452837
O	3.0975166260245284	0.9770092708113204	-3.0785632772452836
O	4.149596456024528	0.1789321398113204	-3.3343074472452834
O	5.482137336024528	0.4631662338113204	-3.3223279372452836
O	5.727451876024528	1.7912859678113204	-3.3395256172452834
O	4.791687656024528	2.4994407298113206	-2.6313316772452837
O	-1.306490873975472	1.8592449298113203	-1.4070469852452838
O	-1.4877579339754718	9.179941869811321	9.362227432754716
O	-3.3472100239754714	6.0978770998113205	8.189999742754717
O	-3.3504773639754717	2.6992670898113205	9.877328132754718
O	-2.7314794139754714	0.38149676781132036	7.033016412754717
O	-2.5655384139754718	-3.3948397301886795	7.625867592754717
O	1.4532292560245281	-1.8099718401886797	4.432448302754716
O	6.444095636024528	-0.45397432018867967	6.105684432754716
O	5.744416276024528	2.8430433298113202	7.512826752754717
O	6.300885036024528	5.77625810981132	5.161139702754716
O	14.26945979602453	1.0916690358113204	-2.671347947245284
O	10.719095596024529	-0.0795375771886796	-1.9146971952452838
O	5.437384036024528	0.20493809381132033	-5.798981777245284
O	3.2148575260245282	0.1507422158113204	-8.561729057245284
O	4.994998226024528	-0.5596414201886797	-11.754829767245283
O	10.53434269602453	0.37999369981132036	-7.243814927245284
O	10.78638429602453	3.79221838981132	-5.634342637245284
O	13.612233596024529	5.51945574981132	-3.7206543772452836
O	6.775429056024528	10.01426784981132	-2.2394081272452837
O	3.8727016360245283	8.40583421981132	-0.6068015362452837
O	0.33909800902452825	9.41277984981132	-1.4566377962452837
O	-0.3288847399754718	9.82085703981132	2.3680722627547164
O	1.3620925360245282	9.18267497981132	5.675221652754716
O	0.9885084260245283	5.49942629981132	6.470929892754716
O	1.623289356024528	3.4196885698113206	9.495185432754717
O	2.3906314060245286	-0.03939695718867964	8.270934502754717
O	2.8105215060245285	-3.3435820401886795	10.041745032754717
O	6.278842376024528	-2.7184593201886793	11.371538632754717
O	4.862314516024528	-0.23008435018867957	13.843200432754717
O	1.3065972560245283	-1.5740965201886794	14.017034932754717
O	-6.263985063975472	-12.81383746018868	0.11871444275471621
O	-4.878355983975472	-9.98474196018868	2.3716239327547166
O	-7.140318833975472	-8.17173208018868	4.869605652754716
O	-6.202776873975472	-4.549820080188679	4.218555232754716
O	-7.410998643975472	-1.5726506401886795	6.2331545627547165
O	-7.168133903975472	-0.6827767001886795	0.9165441827547165
O	-11.417694303975471	-1.0163681301886796	-2.521299817245284
O	-11.105182003975472	-4.78119369018868	-3.0852717972452837
O	-8.796618873975472	-5.821709080188679	-5.946011317245284
O	-6.146882333975472	2.8542560998113204	-9.651452957245283
O	-0.2039158332754718	4.4428140798113205	-5.294712517245284
O	3.441789116024528	4.92487900981132	-4.663894237245284
O	5.030334966024528	4.375803049811321	-8.070027357245284
O	2.0236169160245283	5.05271507981132	-10.074402147245284
O	-1.1644955739754719	3.5409774598113204	-11.547455167245284
O	-2.5614306439754717	0.4127330998113204	-13.184562667245283
O	-5.601232843975472	-0.29650933018867964	-15.335124667245283
O	-2.179520413975472	-7.13702983018868	-9.201710477245284
O	0.3146794090245282	-9.351272660188679	-7.454539577245284
O	-2.007346843975472	-9.99663656018868	-4.479237077245283
O	-5.737215093975472	-10.55933936018868	-3.8153498072452834
O	-6.831317833975472	-7.625456970188679	-1.5459323972452836
O	-9.814195463975471	-7.309734980188679	0.6716142327547163
O	-10.488863203975471	-3.6022145501886795	1.2200156127547161
