104

O	0.7886585341239999	-4.719332864040001	0.8912233779000012
O	-0.08520251587600017	-3.6949488840400004	0.9154861779000012
O	-2.789975355876	-2.8731142540400003	-0.7010194910999987
O	-0.42381097587600014	-0.09803307604000056	-0.7195979650999988
O	1.5122701741239997	-2.96664528404	-1.5163896690999987
O	2.278397454124	-0.34562071584000054	1.0086289779000013
O	4.416682204124	-0.8908109200400005	-1.746324336099999
O	1.0727445141239997	-5.809938854040001	0.008910897900001213
O	0.4003855351239999	-5.829729834040001	-1.0095996846999988
O	-0.04786818587600017	-2.7694367740400003	1.959922777900001
O	-3.670782885876	-3.4403603240400003	-1.5110635030999988
O	-0.7064718348760002	0.03360156795999947	-2.1391416120999986
O	1.1995557541239998	-3.8531409040400004	-2.5265852220999987
O	3.477316184124	-0.22008178104000053	1.8661096779000013
O	3.755541954124	0.012533762959999473	-2.604307712099999
O	0.09019074512399985	-0.6817740470400006	-3.188233992099999
O	-3.398213465876	-4.899282114040001	-1.5998698640999987
O	1.2195491441239998	-2.9932095240400005	2.625585177900001
O	-3.437498175876	-2.9525475840400004	-2.8493997120999985
O	-0.25005668657600016	-3.9829316840400004	-2.7829475620999986
O	3.708108784124	1.1961534159599994	1.449967887900001
O	2.799692164124	-0.6786664550400006	-3.3890570620999987
O	-0.31452498377600013	-1.4787548840400007	2.0440483579000013
O	-0.020691976876000162	-1.6303635940400005	-4.295811762099999
O	-4.286776955876	-5.155037814040001	-2.7322425020999987
O	-0.8588855398760001	-4.878271014040001	-3.711717322099999
O	4.754332824124	1.5101920159599993	0.5726462979000011
O	3.325310724124	-1.9113491240400007	-3.7380513320999986
O	0.6250938701239999	-2.3195808240400004	-5.285579402099998
O	-1.7702766358760003	-4.562261294040001	-4.798848392099998
O	3.858466954124	-2.4662746740400006	-4.861536882099999
O	6.083914454124	1.2064684459599995	1.049367487900001
O	4.936613654124	2.0553647559599995	-0.5168595700999988
O	3.650738554124	-3.6341489040400003	-5.381273342099998
O	0.8723037641239998	-7.299007164040001	0.061130057900001145
O	3.541821814124	-4.82765792404	-4.632891742099998
O	3.156609534124	-3.62298114404	-6.6954288220999985
O	-1.2844117058760003	-4.02421818404	0.32649857790000114
O	-1.6138814158760002	-3.64199380404	-0.8875059830999987
O	-1.5144332658760002	-5.292391094040001	0.13630679790000122
O	-1.8305739058760002	-1.9338751040400006	-1.272688727099999
O	-1.4604851858760002	-1.0177371540400006	-0.29049237309999876
O	-2.060900755876	-1.5761710940400007	-2.374988752099999
O	0.4751617141239999	-1.1580224740400005	-0.9613223120999987
O	0.46919469012399984	-2.0828575340400004	-1.719988633099999
O	3.094912354124	-3.0050955240400006	0.2526736379000012
O	2.409287314124	-2.4520998840400003	-0.5624939520999988
O	1.8499971341239998	-1.4406060840400006	0.33140891790000127
O	2.449052174124	0.7306123359599994	-1.2307843130999987
O	2.872423794124	0.24685917895999948	-0.2023936610999988
O	3.760312754124	-0.7386068250400005	-0.5484422610999988
O	6.134867904124	-1.2092112240400006	-0.24025491209999883
O	5.783510834124	-0.8445911700400006	-1.3614877730999988
O	6.782791294124	-0.9990607520400006	-2.288160442099999
O	3.632168974124	-1.4091164590400005	12.426692657900002
O	2.083209894124	0.9022162659599995	9.805878057900001
O	-1.5125123558760003	2.07258754596	9.940632057900002
O	-2.460206855876	1.4708615259599993	6.278671117900002
O	-5.941280445876	2.5254506859599997	5.214930127900001
O	-4.944924955876	-1.8525943240400007	3.414870097900001
O	-5.723522155876	-7.02049446404	5.752843057900002
O	-3.145565685876	-6.959500874040001	8.344423277900002
O	0.18169453912399983	-8.586422764040002	7.433031287900002
O	-2.5622967058760002	-12.90542011404	-1.6819957020999987
O	1.0262912841239997	-8.10195835404	-5.280313892099999
O	2.798266324124	-5.912998904040001	-7.803324792099998
O	7.145590674124	-11.25640711404	2.681053567900001
O	5.716838064124	-7.902721604040001	3.388354967900001
O	7.649149964124	-4.925715574040001	3.0012187579000016
O	6.735705344124	-3.88672499404	6.604697047900002
O	4.341844074124	-4.694035904040001	9.261618457900001
O	0.9588491741239998	-3.3092809040400004	8.449519487900002
O	-2.281521515876	-2.8864695240400002	10.142834557900002
O	-4.972174865876	-2.9115827540400003	7.536775597900002
O	-8.755772755876	-2.1042919740400006	7.838802687900001
O	-8.165685875876001	-4.32437382404	12.539039257900003
O	-8.232004345876001	-0.5430563880400006	11.975939557900002
O	-9.538477625876	7.728457085959999	-5.6435098320999995
O	-8.522390925876001	5.794354425959999	-2.447269982099999
O	-7.370391715876	7.591663865959999	0.6485431079000012
O	-4.256778155876	5.505768295959999	1.5079180079000012
O	-2.397998415876	6.286135655959999	4.725684607900002
O	0.8621319841239999	5.333650195959999	0.6858947379000011
O	3.050604114124	9.374719705959999	-2.5302002420999985
O	0.02326511412399984	9.763305085959999	-4.745285692099999
O	-0.19846174807600014	7.462006435959999	-7.7587726320999995
O	10.755501524124	6.378939115959999	-10.946939762099998
O	10.220298624123998	2.8580610359599996	-9.696289532099998
O	7.693866914124	2.2306588459599994	-7.015846272099999
O	5.375831984124	-3.8820596840400006	-2.7967512020999985
O	4.697905284124	-7.095195854040001	-1.8419867300999988
O	5.455894114124	-8.63570689404	-5.144453672099999
O	7.824506494124001	-6.136655334040001	-6.561125422099998
O	7.889498134124	-2.8458486840400004	-8.501503552099999
O	6.375916754124	-0.8834000230400005	-11.318261542099998
O	7.681052614124	1.9564168759599994	-13.423366742099999
O	-1.9102153758760003	1.1791827159599995	-11.420752242099999
O	-5.376239115876	-0.22654052404000055	-11.199055142099999
O	-6.513887135876	2.39296968596	-8.624766082099999
O	-6.022887235876	6.075555025959999	-8.075025152099998
O	-4.243647295876	6.531998335959999	-4.742476302099998
O	-4.115574185876	9.55776482596	-2.5629344320999987
O	-1.019121032876	9.06427808596	-0.41141874909999876
O	0.007656522123999837	11.161572485959999	2.573759147900001
