54

O	21.708199204240177	1.482718307795418	20.92339335839324
O	20.790966390529135	1.895750695736487	20.06316974732654
O	19.996216433241315	-1.1259124436509085	18.510477084822597
O	19.8933124001437	-1.7879821374620217	15.18376231670849
O	21.100574952658718	-3.70845340026625	15.752092026955399
O	23.034841708241977	-2.4418546057727317	18.506950362876232
O	20.73404270633584	-1.5744194430366758	21.299698444271616
O	22.120329610117185	1.4805140085127027	22.23301408558135
O	22.918978477309977	2.4134806390377106	22.17495165095677
O	20.235952209776112	2.6480618082543685	19.019646218874808
O	18.57295824338676	-1.2769333381599732	18.69241402846383
O	19.13468570698887	-2.946790345706293	14.835811609493607
O	21.36518641227236	-4.567233053124198	14.63907670970981
O	23.961114933149048	-1.4936051671526607	18.249146553362227
O	21.98235082420709	-1.1695452729017746	21.76730533092038
O	18.344447019956093	-3.6999357352929243	15.753704517221351
O	18.272894892577135	-2.6404917536505454	18.790665714508823
O	18.916724536532666	1.9479928538932845	18.864200886017127
O	18.138355783010777	-0.8484523168589619	17.345953186831096
O	20.515590957805056	-5.677594003313652	14.3662179560832
O	24.16305626687648	-0.13432365219083442	18.109617956245472
O	23.07349572166893	-1.3922506760472182	20.99994414694814
O	20.57912848527625	2.2736773244376245	17.659064376601037
O	18.309404890883012	-4.883721935236991	16.54289945366382
O	16.839105618989663	-2.6913255698659038	18.359341761121932
O	20.92114476308589	-6.541709817398957	15.513417069312055
O	24.6916769227902	0.33116687557700963	19.370065615998463
O	24.017222283733073	-2.362004809574504	21.450946904025173
O	18.84967910418761	-5.244283057159672	17.783213005194316
O	20.033896746577028	-7.585068444952707	15.78543303870448
O	24.903280256871003	-1.7713608184592349	22.38693147938337
O	25.865181411902554	-0.386316462336844	19.76932013021126
O	24.501989622799066	1.26524660332669	20.11816588415612
O	24.35625094043021	-1.014068616492256	23.286806536791953
O	21.743496003250158	1.110423415306726	23.591732249045798
O	23.417781371295114	-1.642985299360544	24.1298213587218
O	24.91139801095676	0.2705488636518838	23.426131971589857
O	21.063500148206305	0.7225321809118055	19.167561900931776
O	19.953333847044657	0.1694652630481508	18.84949844894973
O	21.98433393794715	0.9755532840455328	18.499582068266136
O	20.416007676903785	-0.8871268981828534	17.20681801187323
O	19.91442851990372	-2.00949514105245	16.591890603168572
O	21.449846649975495	-0.47464150717681863	16.8408403247097
O	21.283407362704416	-1.4438327396597794	14.961017394012062
O	21.87697634342847	-2.6092699696414963	15.268548651198996
O	22.064896576169296	-4.962516440147152	17.29910412694983
O	21.615093159372453	-3.851861561310776	17.096179805254547
O	22.705060406259854	-3.020426461157614	17.332249522830903
O	21.276700724151436	-3.663210026068013	19.310142028591684
O	21.925973024172453	-2.5459996120366606	19.30428816454837
O	21.04471761677581	-2.050282157681027	20.11489750927241
O	19.14308002136854	0.2566676856396355	21.87885339265493
O	19.61272284329062	-0.8732047082676633	21.7890785055519
O	18.500077977992753	-1.800009984195375	21.830157826607266
