91

O	3.8224674104920005	-1.8782025457200004	4.2840048393200005
O	2.734296340492	-2.392988065720001	3.72128146932
O	3.664092400492	-0.27093245572000046	3.55109375932
O	2.661391100492	-2.0478902357200006	2.40315463932
O	2.755300310492	-0.6615717477200005	2.18371545932
O	2.1128187604920003	-0.2003492987200005	1.0763361443200001
O	1.1825703904920002	-0.8952568757200006	0.22992069632000006
O	1.8319379204920003	-2.0486127757200006	0.07359871732000003
O	2.3319731504920003	-2.6606131157200004	1.23003359932
O	-0.10191885850799987	-0.2108182047200005	-0.6407579006799999
O	-1.4859814675079999	-0.5714190967200006	-0.7055542936799999
O	0.06569963249200017	-0.16527492872000055	-2.14621878068
O	0.2130255674920002	1.4833720142799995	-0.23566260567999997
O	1.547418160492	1.3654039042799995	-0.62224555068
O	2.1754969104920003	0.3299764653799995	-1.50395103068
O	3.5236006204920005	1.0550620952799994	-1.42403387068
O	2.163230390492	0.8141165582799995	-3.00203057068
O	0.5876525604920002	1.5277253542799996	1.23152895932
O	-0.10103022750799984	0.3766433029799995	1.7089669393200002
O	3.3603641104920006	0.5118644732799995	-3.81965083068
O	-1.3420554345079998	0.6506921702799995	1.31612125932
O	-0.2802263255079998	-0.7920565757200004	2.19235219932
O	-0.05608496350799985	-1.0944037157200006	3.5046507293199998
O	-0.014198179507999842	-0.08601238572000053	4.324545549320001
O	-0.9147726145079998	-0.4428831507200005	5.3991033893200004
O	0.9802580904920002	0.5879659692799994	4.46301696932
O	-2.276073719508	-0.7187647677200005	4.93347311932
O	-1.4307608585079998	1.6269502342799995	4.230641509320001
O	-2.4515989095079997	0.6008626782799995	4.1857770393200004
O	-2.9690701295079998	0.8865141652799995	5.59688397932
O	0.8992836204920003	-1.9660412857200005	6.31375857932
O	-0.4217887145079998	-1.6246795757200005	6.03542698932
O	1.6252158304920004	-0.9606688557200005	6.4296194593200005
O	1.1873135304920002	-3.3206942457200004	6.807516849320001
O	-1.597375870508	-1.4101717657200006	1.94574549932
O	-1.2133821365079998	-3.0429231657200004	3.5042287593199997
O	-0.5841478435079999	-4.117002725720001	4.03997668932
O	0.41779169049200027	-4.630718695720001	3.21512735932
O	-0.0062921965079998365	-4.65942379572	1.91546880932
O	-0.4974429795079998	-3.450598275720001	1.43442005932
O	-0.8031220735079998	-2.557971125720001	2.3315769993199997
O	-3.5441829195079997	-7.828279385720001	-10.123026100679999
O	-3.807107509508	-4.252560915720001	-8.86442175068
O	-7.013901769507999	-2.6717092457200007	-7.6212347206799995
O	-5.903273459508	-1.0300889857200006	-4.47538959068
O	-8.312462379508	1.0804772022799995	-2.39038744068
O	-5.412619549507999	-2.1002399057200005	0.6027917593200001
O	-6.6490035295080006	-7.123262495720001	2.2779080393199997
O	-6.113744229508001	-9.039384995719999	-0.9043953606799999
O	-2.5215901195079997	-10.40404444572	-1.17757447068
O	0.5950182904920003	-8.70988042572	8.45842083932
O	4.483623330492	-3.567094525720001	6.368414239320001
O	7.211600150492	-0.9328200957200006	6.125412309320001
O	9.434414500492	-1.0041765957200006	8.96534528932
O	5.7256793204920005	-9.76421434572	7.553346389320001
O	6.043413910492001	-11.51218794572	-0.41203334568
O	4.011955600492	-8.76102475572	-1.89952988068
O	5.5235220904919995	-6.4354246357200005	-4.416912240679999
O	2.547950770492	-7.170383065720001	-6.687676530679999
O	-0.7246714071079998	-8.98410922572	-6.66117918068
O	-3.2282493595079997	-6.69323992572	-5.0069066506799995
O	-6.988666279507999	-6.763013245720001	-4.727347120679999
O	-7.8576739495079995	-4.9390287957200005	-1.53182020068
O	-11.144874299507999	-3.6677780257200006	-0.10030274467999994
O	-12.294204999507999	-7.01607281572	1.21026606032
O	-13.380002499507999	-4.631845455720001	-3.9298476506799997
O	-5.701193309508	11.79626255428	3.73765467932
O	-6.4811977295080005	8.35004084428	2.15241814932
O	-7.542266689508001	8.10170026428	-1.47574562068
O	-5.304675069507999	5.23222463428	-2.5431927506800003
O	-5.511368779508	3.77470201428	-6.04260958068
O	-0.5880046485079998	4.319659644279999	-4.23363823068
O	2.699379230492	8.59579110428	-5.7143973806799995
O	1.3961672904920004	10.83537085428	-2.94880809068
O	3.145452980492	10.53115905428	0.3851914243200001
O	9.917055700492	4.306756474279999	-1.4876148306799999
O	6.496637010492	-2.0330474357200004	-0.24573421067999995
O	5.929574550492001	-5.337891775720001	1.6372109593200002
O	8.352492740492	-5.037506475720001	4.40305308932
O	10.819967100492	-2.79985593572	2.72926118932
O	11.566571200492001	0.8704173422799995	2.11412032932
O	11.554381400492	4.2561577242799995	3.75981434932
O	13.462997300492	7.420343784279999	2.9435079593199998
O	7.725075100492001	8.89584927428	8.19922304932
O	4.517992510492	7.602111864279999	7.0011854193200005
O	1.7671342004920003	7.005646394279999	9.511381829320001
O	-0.8587154485079999	8.256332904279999	6.98927085932
O	-1.277819848508	10.92497175428	4.39672172932
O	-1.717688429508	9.04748682428	1.0704478963200001
O	-3.191850699508	10.514022154280001	-2.0411604806800003
O	-1.8570473695079999	8.492681214280001	-4.9294816806799995
