101

O	-4.526758150983019	0.823591406659434	3.2262592421128686
O	-4.845646940983019	2.232631086659434	3.2936023321128682
O	-3.104319910983019	0.777928404659434	3.3702837921128683
O	-4.848761280983019	0.6802559886594339	1.8118747521128684
O	-3.5992617409830188	2.826301482659434	3.6970990621128683
O	-4.944102760983019	2.875865422659434	2.1397892421128684
O	-3.032382480983019	2.074229130659434	2.6867100521128684
O	-1.9701878459830189	0.608103573659434	2.7897795521128685
O	-5.2073952209830185	1.9946605716594341	1.2554538721128685
O	-1.069996472983019	-0.281017047340566	3.1011554221128685
O	0.28448167901698107	-0.05596111734056608	2.9345958221128683
O	-1.2104426159830188	-1.2875009873405658	3.7559940721128684
O	0.9063001690169812	-0.7854771573405661	2.0183740721128687
O	0.14720673901698111	-1.824507377340566	1.3820942221128685
O	1.8913062090169812	-0.08673699734056606	1.4226990821128684
O	-1.1423531369830189	-1.382756097340566	1.0019275821128684
O	2.596031429016981	-1.383774277340566	1.0273407521128683
O	2.841273199016981	0.679380113659434	1.4709142121128684
O	-1.2446567747830188	-1.3129762373405662	-0.38697667888713155
O	-2.4757810009830186	-1.4862190073405661	1.0679832921128685
O	1.6428249790169813	-1.4755078073405659	0.0003169163128684434
O	-1.7270385729830189	-0.07976526734056599	-0.8465381758871315
O	-3.276437640983019	-0.5294790773405662	0.43452278411286843
O	1.4187607490169811	0.10325113265943409	-0.5213918948871316
O	1.8619212690169813	-2.556263617340566	-0.6871509388871315
O	-2.6221247609830187	0.5260014526594339	-0.10903098338713156
O	0.5746646690169812	1.394382535659434	0.19637734611286844
O	0.9684756690169811	-0.314169787340566	-1.8410480378871314
O	2.852254759016981	0.15606420265943388	-0.8451450218871316
O	2.9139449290169814	-3.3890427973405663	0.04155027151286844
O	-2.593399870983019	1.828395270659434	0.01658574761286844
O	0.042978439016981174	1.993600077659434	1.2442936721128686
O	0.37632473901698127	2.408427238659434	-0.6859490998871316
O	2.630043149016981	-3.6144541473405662	1.4983576721128684
O	4.1894357290169815	-2.6175618273405656	0.005370519612868444
O	-2.743416650983019	2.946120272659434	-0.4476341988871315
O	-0.2922907709830189	3.172037752659434	1.7716227621128684
O	0.38465575901698124	3.798095092659434	-0.33241008588713156
O	-2.9416971909830187	4.271394532659434	0.17254032411286846
O	0.11025080901698114	4.1835390826594345	0.9597430471128685
O	-0.8391584019830188	3.819326002659434	2.8480072521128683
O	-3.171849530983019	4.820239722659434	1.3340952921128684
O	-2.436709520983019	5.3680753326594335	-0.5410160058871315
O	-0.1415373509830189	5.3923220126594344	1.5331734021128685
O	-0.6729319579830189	5.203421492659434	2.8194543021128684
O	-3.668360200983019	5.986503832659434	1.5794609921128684
O	-2.6561322909830185	6.7935812426594335	0.43579983011286844
O	-4.006756150983019	6.521327052659434	2.9388177821128685
O	6.147926619016981	1.975402424659434	-11.832861677887133
O	4.497363669016981	-0.933436927340566	-10.027868777887132
O	1.0586113090169813	-2.319473627340566	-10.948974777887132
O	-0.5474785459830188	-2.590883287340566	-7.584775957887132
O	-4.030111510983019	-4.0612715173405665	-7.245438857887131
O	-3.598149990983019	0.442446242659434	-3.9741998278871313
O	-4.838772450983019	5.4152098626594345	-5.842794947887132
O	-1.9103709789830188	6.084043332659434	-8.034224737887133
O	1.014381019016981	7.739286872659434	-6.2329335078871315
O	-4.156528530983019	13.467839592659434	2.9703244421128683
O	-4.0250727809830185	9.807803582659433	2.2836176621128685
O	-0.6049449799830189	5.302200532659434	5.558141352112869
O	0.874505529016981	3.098536182659434	8.108248432112868
O	0.48741399901698124	4.632363522659434	11.537510822112868
O	-1.3861530638830188	7.610575402659434	10.201249222112867
O	-2.159965013983019	9.902924052659433	7.3037709721128685
O	0.3423811390169811	11.443449912659434	4.907032122112868
O	0.2672916290169811	14.672326792659433	2.8543403321128684
O	6.530860249016981	10.264825972659434	-0.24083908488713157
O	5.8682799790169815	6.859094882659434	-1.5932398178871316
O	8.436049589016982	3.985847992659434	-1.3100007578871316
O	8.005624669016981	3.3610176126594338	-5.100205887887132
O	5.946225779016981	4.676556152659434	-8.051266007887133
O	2.593898179016981	2.843417972659434	-7.9251220578871315
O	-0.2549262109830188	2.5263054856594342	-10.329861377887132
O	-3.365296040983019	1.859467646659434	-8.228478577887133
O	-6.8716499109830185	0.798572380659434	-9.217123017887133
O	-8.05570378098302	4.180488892659434	-10.347526977887133
O	-5.6441636309830185	0.0772502826594339	-13.586844277887133
O	-8.65248490098302	-11.022660807340566	2.1396280721128687
O	-7.3751719509830185	-8.595285907340566	-0.5636156418871315
O	-5.540692730983019	-10.035796407340566	-3.6092800978871313
O	-2.6227675909830186	-7.636770157340566	-3.8261645478871316
O	-0.012883510983018764	-7.551796467340566	-6.566208617887131
O	1.708836979016981	-6.558728967340567	-1.7200154378871315
O	4.4037061490169815	-10.612277207340567	1.2384019221128684
O	1.1507639090169812	-11.830467107340567	2.7939086421128683
O	0.07685942901698106	-10.104646507340567	5.953283662112868
O	7.349150889016981	-4.1617266973405656	7.371688392112868
O	5.397660179016981	1.530027556709434	3.5488032121128685
O	3.972967669016981	5.141634222659434	3.1628388521128685
O	3.6722113790169812	6.445883652659434	6.635137112112869
O	6.008596429016981	4.047635252659434	8.141471862112867
O	6.445306529016981	0.582264080659434	9.634311372112867
O	4.755559889016981	-1.9011031773405662	11.875855122112867
O	6.065971639016981	-4.893111327340566	13.776976822112868
O	-2.9846569709830186	-4.853972397340566	10.114878522112868
O	-6.495437190983019	-3.6822497673405663	9.337719262112868
O	-6.793767430983019	-6.036742857340567	6.292188782112868
O	-5.864686320983019	-9.536253407340567	5.375129742112868
O	-3.4755907009830187	-9.108177907340567	2.3759492021128685
O	-2.585581670983019	-11.845999807340567	-0.01853298886913156
O	0.7746039690169813	-10.901866107340567	-1.5340076678871315
