80

O	-0.42080314590800016	1.2416313198599997	1.3767015491199996
O	-0.49875112190800014	1.8857842138599996	2.4209925891199995
O	0.690917542092	0.34513887985999975	1.1475300191199997
O	1.009500512092	-0.10057780214000023	-0.07336913888000039
O	0.03949514609199989	-0.9804061261400002	-0.6618922618800004
O	0.5778930320919999	-1.2421759261400003	-1.9092957008800004
O	-1.2362653489080002	-0.4524749561400002	-0.8432497128800004
O	-1.235541026908	0.4812556158599997	-1.7714439708800003
O	-2.0169153179080004	-0.34965933614000033	0.4075766021199996
O	-1.5170339759080003	0.9562005138599997	0.5618902441199997
O	1.421184312092	-0.03749164414000028	2.2865615291199997
O	0.9055546120919999	0.6468070933599998	3.4129820391199996
O	1.5908123520919997	1.5660379208599997	4.049513269119999
O	0.7743779320919999	1.0348406108599997	-1.0986947008800003
O	1.6181528020919997	2.0003813838599998	-0.4246697658800004
O	2.134471792092	2.94746868386	-1.2189635508800003
O	3.459686242092	3.25811981386	-1.2230819908800004
O	4.181930172092001	2.80892646386	-0.19351701388000042
O	3.6394487520919996	2.0636243738599997	0.8066757371199996
O	2.282174982092	1.9437640938599996	0.7480868451199997
O	-1.238599694908	-1.4540699161400004	1.1145890691199996
O	-2.003994137908	-1.42967027614	2.3008752691199996
O	-3.2575947079080003	-1.9012898161400003	2.2943180891199995
O	-4.162581267908	-1.6560041661400002	3.2770149291199995
O	-3.639009227908	-1.0889879661400004	4.389640829119999
O	-2.315275477908	-0.8032620661400002	4.53016932912
O	-1.553317320908	-0.9438959961400003	3.43829137912
O	-2.6034248379080003	1.8609800738599995	0.6678364131199996
O	-3.461928857908	1.2430633438599998	1.6884271491199996
O	-3.1088253279080003	1.8636285338599996	2.8342790491199996
O	-2.730135497908	5.05059679386	-11.69103673088
O	-0.772443799908	2.2500143838599995	-10.07504513088
O	-1.718140249908	-1.4223858061400003	-10.42755753088
O	-1.4169824259080002	-2.52858976614	-6.855413260880001
O	-1.9461958379080002	-6.191716876140001	-5.89761936088
O	-4.418946217908	-2.9936017661400003	-2.3232896808800003
O	-9.344310427908	-1.12790473614	-2.62933903088
O	-9.193511277908	1.3024848408599996	-5.47011994088
O	-8.482879107908	4.8593808438599995	-4.24911351088
O	-10.132573227908	2.95096940386	5.5861803191199995
O	-3.764342187908	3.4100932138599998	6.982142179119999
O	-0.36942793690800013	3.80415714386	8.54126817912
O	-0.7782263269080001	4.6762220038599995	12.11964576912
O	-8.382346767908	7.770343993859999	7.29818822912
O	-5.727492457907999	11.51230248386	0.4772397141199996
O	-3.8450569879080003	8.771710533859999	-1.2109381608800003
O	-0.22083783790800016	9.17233843386	-2.0489192208800002
O	-1.026032912508	7.98661283386	-5.56412937088
O	-3.932586707908	6.821751473859999	-7.62457965088
O	-4.215294467908	3.11244843386	-7.0806727908800005
O	-6.137399737908	0.33972776385999975	-8.71666958088
O	-6.6736813479079995	-2.3387745361400003	-6.09242172088
O	-7.941072447908001	-5.91719085614	-6.24047442088
O	-11.078191827908	-3.80363804614	-9.91129449088
O	-7.947322787908	-5.82064543614	-10.79756523088
O	3.933919212092	-12.70520041614	2.9813281191199996
O	1.9214572620919999	-10.61288661614	0.4689035741199996
O	3.1428992220920002	-10.31436941614	-3.12844749088
O	2.698340842092	-6.58160105614	-3.6515388108800004
O	3.2116194620919996	-4.84846183614	-7.025451530880001
O	5.175543192092	-1.79673661614	-2.86497642088
O	10.402202972091999	-2.07974570614	-1.2760307508800004
O	10.038853472091999	-5.23529966614	0.8449630851199996
O	8.935178552092	-4.719701636140001	4.42855899912
O	11.076987272092	6.169990983859999	7.24187476912
O	8.543332402092	4.74932888386	4.90237696912
O	1.522208512092	5.89074917386	2.7871130791199996
O	-2.0326271279080004	6.80518068386	3.3663052991199995
O	-2.076565757908	7.796749913859999	7.001367849119999
O	1.553126742092	8.57708528386	7.30105086912
O	4.921326832091999	6.97684818386	7.96255937912
O	6.645129762091999	4.423157113859999	10.13004626912
O	10.212761172092	3.91400683386	11.15647276912
O	4.113320972092	-3.7349110261400003	9.99948812912
O	1.068807292092	-5.935340006140001	10.33384516912
O	1.8602284120919999	-7.803701906140001	7.12747731912
O	5.039085532092001	-9.15657763614	5.544459959119999
O	5.258643192092	-7.40381070614	2.13533493912
O	7.224807282092	-8.55992652614	-0.8493211028800004
O	7.804844132091999	-5.4615330361400005	-3.0162260108800005
