44

O	21.993688273046637	-2.88590250215283	18.341186913733335
O	20.314899193904637	-2.1200443582471364	19.447005229017776
O	21.257584314129275	-1.7511366232290788	18.391892634141133
O	21.022873940207152	-0.7380135045612006	17.5253309087624
O	21.234658882271543	-0.5450373043112382	16.135135858503993
O	20.33472669894513	-0.18344744117019296	15.260720827847768
O	22.2302634820843	-1.5817057576294389	15.60071262262311
O	22.052091061338416	-1.3844816530851964	14.262033278351534
O	21.378754414815145	-2.5928541275182115	16.126728290641207
O	20.408693718650277	-3.8820424045967217	17.884292509783176
O	21.010043733496573	-2.734509447466694	17.42229167220563
O	22.095622484259522	-3.662278211203686	19.51585014782171
O	21.742264427752417	-3.2521702488274262	20.822144644264057
O	21.832915769008263	-2.9048025833725175	21.911631370140917
O	19.940618559996317	-0.7597457336205868	19.731665664797085
O	19.509854491287754	0.015643444787140748	18.768025763748277
O	19.81827253998547	1.2790180570775025	18.57876189616028
O	20.689531090662822	1.7611754863436415	19.423231423720694
O	21.01923405875677	1.1452463124294803	20.57126679895358
O	20.52733973934609	-0.11299537436530604	20.731197071790554
O	21.35893789376539	3.0118690135039294	19.079898638482348
O	22.654356200424203	2.585596722722048	19.11688414434847
O	22.22431304203456	0.008191147715318703	17.243229468379138
O	23.07680701662515	-0.8974315091847052	17.94036429191281
O	24.064312574892508	-1.7401694747501084	17.71545645801381
O	24.85320922518458	-2.0329230187591323	18.759871463010214
O	24.578917301463388	-1.6342292533667928	20.003016002699837
O	23.760698587597908	-0.6336561708044437	20.298830829075563
O	23.088197192963634	-0.4036228294037294	19.18815411611722
O	20.142660934461883	-2.407504673118405	15.37010702459148
O	19.11910861815445	-2.5860990144954332	16.383648822016347
O	18.29527654387946	-1.799405166781981	17.052882676132413
O	17.51240540201919	-2.2862198667684845	18.052516408821916
O	17.46567955506246	-3.622883540594266	18.1533756597332
O	17.513571839428117	-4.215738080659827	16.882972012550375
O	18.30831461114231	-3.596733435338902	15.990259394596432
O	21.06648003711175	-4.623750955923225	16.81355314978948
O	20.418625048862392	-5.616316093849707	16.249546712044904
O	20.38791883816522	-5.680829644841456	14.93187257034309
O	21.266392032165903	-5.116343385464104	14.205556550349336
O	22.401024395920533	-4.815168363539275	14.950852894937182
O	22.296945540215365	-4.464491411862927	16.302155735230777
O	21.128840648710376	-5.029895503769884	12.759204342425651
O	21.610602494765487	-3.7343755377336416	12.73629200864858
