138

O	-4.184063337513621	-3.258094434787931	2.061977521896551
O	-4.111420547513621	-3.788244224787931	-0.5680815541034487
O	-5.0530640575136205	-4.086701564787931	0.6445699318965512
O	-3.5770790775136208	-3.766416794787931	0.8129662318965512
O	-2.286600547513621	-2.778299394787931	0.6817768218965512
O	-1.6759920405136208	-2.784872164787931	1.971182901896551
O	-1.114069355513621	-3.5914125047879315	0.3125903718965512
O	-1.720919431513621	-2.6722014347879313	-0.8805318421034487
O	-1.466591152513621	-1.447555714787931	-1.5100201181034487
O	-1.800304656513621	-0.11967494478793128	-1.9895883581034488
O	-2.326967817513621	1.1505789962120687	-2.026560528103449
O	-2.821549167513621	1.4074151379120687	-3.2185318781034487
O	-2.362746457513621	2.595515505212069	-3.838975708103449
O	-1.711647495513621	3.555819965212069	-3.148819908103449
O	-1.908483116513621	3.4728953952120687	-1.8801094481034488
O	-1.958137447513621	4.530315975212069	-1.0990100351034489
O	-2.307790457513621	4.532029825212069	0.1901845368965513
O	-3.234083737513621	3.5951281052120687	0.2763634708965513
O	-3.1096470775136207	2.4201247252120686	-0.38393200410344874
O	-2.144139297513621	2.283327702212069	-1.3235861121034487
O	-2.268606547513621	-0.6556681047879311	-0.8243723071034488
O	-3.3303198075136207	-0.6501925247879312	-1.4217506881034487
O	-2.668901117513621	-1.1621152647879311	0.26820553889655124
O	-3.602468277513621	-0.2934849747879311	0.6923132118965512
O	-4.600714837513621	-0.918618634787931	0.2773463028965512
O	-5.50551111751362	-1.5322409447879313	-0.5391976801034488
O	-5.274987077513621	-1.233439534787931	1.5612546318965512
O	-2.334109977513621	0.3120438752120689	0.5177169588965513
O	-2.606479367513621	1.3165300531120687	0.020923857896551212
O	-1.145488233513621	-0.1284354147879312	0.46028612389655127
O	-0.02789759551362092	0.012323575212068727	0.8439874118965511
O	-0.16942870251362097	-0.5442373047879312	2.125493141896551
O	-1.294703277513621	0.18390136521206868	2.320021361896551
O	-2.455722787513621	-0.015641074787931197	2.7142147618965513
O	-3.451089017513621	0.9495283222120687	2.643630251896551
O	-3.2009664975136207	2.2372422512120687	2.569692961896551
O	-1.999433237513621	2.498194395212069	2.8075857418965513
O	-1.2762792475136209	1.3761006476120687	2.6320576718965514
O	0.277928032486379	-1.241168204787931	1.0416307718965512
O	1.092097142486379	-2.070843554787931	1.0774951418965513
O	0.916732642486379	-0.8504701947879312	-0.12477659510344877
O	0.6439418024863791	-1.743466664787931	-1.0213330241034488
O	0.5019281824863792	0.4010765852120688	0.07521770889655122
O	1.5208957724863792	-0.2481298847879312	-0.7612886551034488
O	1.1202238024863793	0.49574313421206884	-1.8640099281034488
O	0.08906663248637903	0.19230239521206882	-2.4899659781034487
O	-0.15553180751362095	0.6004285142120688	-3.742869568103449
O	0.12492321248637894	1.8480722102120688	-4.096035728103448
O	0.637213692486379	2.2721909762120687	-3.1444548081034487
O	0.676442112486379	1.6703006892120689	-2.0557218881034487
O	0.374268372486379	1.4933911362120689	-0.48022062610344873
O	-0.03759168651362099	2.5919647752120687	0.05959359589655122
O	-0.3895024255136209	3.4052979552120686	0.7678408418965512
O	0.028817386486379104	2.5009152252120685	1.3166219218965511
O	0.926913012486379	2.633275615212069	2.3730072718965514
O	0.7778556424863791	3.966489285212069	2.554149061896551
O	0.763437022486379	1.936055706212069	3.5115630518965513
O	1.203374842486379	1.6782045732120687	0.9701470818965512
O	2.190647922486379	2.416165345212069	0.45979778589655124
O	1.8507605324863792	3.406459005212069	0.6054886598965512
O	3.106145122486379	1.6902557392120687	-0.17797126310344877
O	3.116743072486379	2.4651835852120687	-1.1889120281034489
O	2.494647242486379	3.554430765212069	-1.5201721381034488
O	2.7432252424863792	3.776242935212069	-2.8244232081034486
O	1.8795436224863793	4.455335315212069	-3.566095298103449
O	0.764287972486379	4.849683395212068	-2.935186378103449
O	0.854562192486379	5.014009655212069	-1.6444593681034487
O	0.16088391248637912	5.828733375212069	-0.9020631631034488
O	0.485733472486379	6.232312485212069	0.3084027268965513
O	1.8306819724863792	6.253327795212069	0.35904223489655124
O	2.320414232486379	5.081696595212069	-0.05650942610344878
O	1.6373862324863793	4.250082525212068	-0.8889196911034487
O	3.888357742486379	0.7698804172120688	0.3699185618965512
O	3.0308257824863793	1.4141395539120687	1.7999228418965512
O	2.814158442486379	0.06398151521206885	2.171433601896551
O	2.811396322486379	0.06523222521206873	2.1708026218965513
O	3.925386402486379	2.645701295212069	1.7833144418965512
O	3.935292082486379	3.964597805212069	2.4974129818965514
O	4.869430192486379	3.331791735212069	0.7142565218965511
O	5.200239162486379	2.1941776902120687	2.282355971896551
O	-1.557599549513621	-9.43385578478793	-9.276044428103448
O	-0.8685193834136209	-9.12176468478793	-5.527696678103449
O	2.373069842486379	-9.84824718478793	-3.7903357481034488
O	2.768445112486379	-6.888736554787932	-1.607400418103449
O	5.621744262486379	-6.501424914787931	0.6217599518965513
O	4.117421062486379	-2.3581995147879313	-1.8805707881034488
O	6.41013980248638	-0.5636673047879313	-6.5050781981034485
O	4.745253282486379	-2.533850894787931	-8.902331108103448
O	1.6643530824863793	-0.7454082447879311	-10.228232718103447
O	3.021646612486379	10.82410425521207	-9.905112218103447
O	2.7053436424863793	8.089880915212069	-7.179233558103449
O	-1.8857471915136208	7.532051465212069	-2.4453609481034486
O	-4.117768007513621	8.158779165212069	0.3910051018965512
O	-4.662939557513621	11.85196441521207	0.6704652318965512
O	-0.6286202665136209	11.96543961521207	-5.260722728103449
O	-1.955078977513621	10.132552405212067	-8.19484021810345
O	-0.9506202148236209	10.308629135212069	-11.943548078103447
O	-5.607529467513621	3.933522315212069	-10.978273778103448
O	-4.410758237513621	1.4045992849120688	-8.703471198103449
O	-6.913780537513621	-0.3469037047879313	-6.729219608103449
O	-5.349962137513621	-3.660678834787931	-8.027880678103449
O	-2.315130697513621	-4.840924324787931	-9.671983438103448
O	0.411206102486379	-4.9788019047879315	-7.131225298103449
O	3.7083345224863793	-6.578630014787931	-7.2944432081034485
O	5.763821442486379	-4.654436114787932	-5.014133458103449
O	9.255871612486379	-5.209399934787931	-3.8360615781034486
O	11.038818112486378	-4.158976474787932	-7.016630828103449
O	9.998702512486378	-7.373398564787931	-8.635584418103448
O	9.558871812486379	-9.443186084787932	-5.460721028103449
O	10.68293511248638	-2.4715865847879313	3.2873385318965513
O	10.283464012486379	-5.124009284787931	5.8218045918965515
O	10.449519812486379	-2.9256884847879316	8.936617331896553
O	6.283221802486379	-1.2560624847879311	11.856268921896552
O	6.065248252486379	-2.6300906947879312	8.233961081896553
O	5.280859382486379	-6.276140434787931	7.665440401896551
O	2.869209382486379	-5.857698164787931	4.854201181896551
O	1.7022626624863793	-8.848828384787932	3.0078817218965512
O	-1.295116256513621	-4.515161974787931	4.540781511896551
O	-5.464378027513621	-4.949970464787931	8.569380561896551
O	-2.987592047513621	-3.5221615747879316	10.875651621896552
O	-3.0082857375136207	0.22719041521206873	10.846565321896552
O	-14.06601028751362	3.170794875212069	9.968580721896553
O	-12.84674848751362	4.449848675212069	6.616657171896551
O	-9.803091617513621	2.790655335212069	4.978483991896551
O	-6.051696257513621	2.8834097152120686	-1.4300658981034489
O	-4.556523917513621	4.691688075212069	-4.456007428103449
O	-5.867606197513621	8.053197015212069	-3.860722898103449
O	-8.653396077513621	7.414892945212069	-1.6447940381034487
O	-9.34733169751362	6.906625745212069	1.9812782618965512
O	-8.70376747751362	8.023945525212069	5.455628161896551
O	-10.79150938751362	7.967617985212069	8.653850941896552
O	-1.509102521513621	6.775379995212068	8.643947811896552
O	1.9107981524863793	7.605575175212069	8.131273761896551
O	3.105547672486379	4.089636085212069	8.914172221896552
O	2.6622514624863793	1.4534421332120688	11.333769621896552
O	1.5090919424863793	-1.4341622947879311	9.172360221896552
O	1.3551222324863792	-5.005080474787931	10.346779421896551
O	-1.146364480513621	-6.648290324787931	8.161821231896552
