103

O	3.4093266598551026	0.7903148573061223	-4.872107129346939
O	2.2750765098551025	1.2787878673061224	-4.400496849346939
O	1.1973759358551026	-1.5245287526938778	-3.059980349346939
O	-0.4367894481448975	-0.8490324666938778	-0.059126859346938954
O	2.5317592498551025	0.5918018943061223	-0.812452547346939
O	2.2743399998551026	-1.5534754726938778	2.078541630653061
O	2.7254040898551026	-3.5934683626938777	-0.9814048343469389
O	3.3800121898551025	-0.14350631539387765	-5.973051899346939
O	2.4736046098551028	0.20711351930612232	-6.803402379346939
O	1.3874543998551025	2.2896338773061227	-4.137656889346939
O	0.09877282085510256	-1.9287431426938777	-3.928069539346939
O	-0.5444849011448974	-2.2379727626938775	-0.243154609346939
O	3.4459248398551026	1.0669996573061222	-1.721021244346939
O	1.2196987508551025	-1.5653093826938778	3.0277003906530613
O	3.5991569098551026	-3.4043211126938777	-1.990868955346939
O	-0.5869832401448974	-3.3544337626938776	-1.127617235346939
O	0.8104985998551025	-2.0263511926938778	-5.077829369346938
O	1.1187703078551026	2.2790536173061224	-5.673873639346939
O	-0.9324147601448974	-1.0238122946938777	-3.5278559993469387
O	4.099633949855102	-0.13476888819387767	-2.094011579346939
O	0.6630329708551026	-2.9102174226938775	2.820589950653061
O	3.4124361398551026	-3.2371628926938776	-3.270935399346939
O	0.28043445405510253	1.8745732773061223	-3.4337246593469386
O	-0.07352783414489747	-4.4689260426938775	-1.894272537346939
O	0.8359130988551026	-2.2973743926938774	-6.400818799346939
O	5.288833089855102	-0.7235237816938778	-2.537727399346939
O	1.6233336698551026	-3.7443760826938774	3.5611175406530613
O	3.0875499898551024	-3.8700378926938774	-4.458854769346939
O	0.6132931558551026	-4.9934378426938775	-2.999417069346939
O	5.734152379855102	-1.0935713326938776	-3.844287709346939
O	3.7971325798551026	-3.2984373026938774	-5.554641229346939
O	2.0124891398551026	-5.090110882693877	3.5027130006530607
O	1.8858627098551026	-3.2889701326938776	4.718999530653061
O	4.757409189855102	-4.077680262693877	-5.910405879346939
O	4.547046059855102	-0.47542915769387767	-6.813224209346939
O	5.817751429855102	-4.1845138126938775	-4.937906609346939
O	4.234446969855102	-5.3624778526938774	-6.305972549346939
O	1.2884238598551025	0.18725469330612232	-4.369643279346938
O	2.0268501898551023	-0.7737617846938776	-3.7625067693469387
O	0.44765554685510256	0.31351471930612235	-5.218036359346939
O	0.6847901278551025	-0.7841246936938777	-2.005517141346939
O	-0.46496453814489747	-0.2963553336938777	-1.4494673986469389
O	0.9736394658551025	-1.8634130026938778	-1.6612807333469388
O	0.49217675985510256	0.15137540430612234	0.384712380653061
O	1.2117526208551026	0.8985859583061224	-0.662376955346939
O	4.102815529855103	-0.9094626956938776	-0.08300072934693903
O	2.9646188298551026	-0.5004757966938777	0.01096981065306113
O	2.2753208098551028	-0.5052863276938777	1.2100117606530612
O	3.3238338798551026	-3.2491335226938776	1.5828407106530609
O	2.2374092298551025	-2.6831975626938775	1.196216500653061
O	2.3757095998551025	-2.5639243426938774	-0.16610238934693888
O	1.5520596698551026	-4.780734482693878	0.5649049306530611
O	2.5093004498551026	-4.791754742693877	-0.22350681934693895
O	2.6950771198551027	-5.910693972693878	-1.0345042373469389
O	4.944271999855102	7.551699307306123	8.98558440065306
O	1.7933112598551026	6.038466967306123	7.444498500653061
O	-0.8116219601448974	8.122711197306122	5.6504401106530615
O	-1.4334451901448975	5.996174897306123	2.6364787006530612
O	-4.077007690144898	7.0321587673061225	0.06412838065306103
O	0.035968509855102554	5.754006457306122	-1.839791015346939
O	4.532724119855102	8.761375617306122	-3.673508419346939
O	6.092630489855102	9.343615047306121	-0.394597349346939
O	8.803948539855103	6.748417507306122	0.44431639065306117
O	10.277635179855102	1.8027264873061222	-8.392599279346939
O	6.774742989855103	-4.132743292693878	-6.183239429346939
O	5.084311349855102	-7.454951092693878	-5.367276299346939
O	13.483930079855103	-0.6858582096938777	1.1895731806530612
O	10.044790879855102	0.24522904130612233	2.1062278706530613
O	8.216841409855103	-1.6718630826938776	4.607865290653061
O	7.534633689855102	1.5700012273061223	6.59907273065306
O	7.616511719855102	5.186905717306122	6.007955220653061
O	4.7335720998551025	6.288402977306123	3.919207860653061
O	3.2047137298551025	9.568515837306121	3.086713490653061
O	1.5871290698551026	9.226996807306122	-0.25470243934693904
O	-0.8329412901448975	11.572545137306122	-2.181922954346939
O	2.2207443298551026	15.226632037306121	-0.019879409346938992
O	-1.2467075401448973	14.251062937306122	1.2914045006530612
O	-12.173093420144898	-0.38094866669387767	-6.089955959346939
O	-9.418172430144898	1.8676855273061224	-4.523951379346939
O	-9.990820320144898	3.4482172273061225	-1.1541966813469389
O	-6.6221861501448975	2.6486631073061226	0.4757610306530611
O	-5.828813980144898	3.9681549673061225	3.909162690653061
O	-4.281875000144898	-1.0324730066938776	3.6269402206530614
O	-7.311764620144897	-5.415250562693878	5.037392090653061
O	-9.393764820144899	-5.484140772693878	1.8907654406530612
O	-8.038941760144898	-7.487250542693878	-1.015225424346939
O	0.3683833558551025	-14.404731162693878	2.835915680653061
O	0.32248274795510257	-10.671206162693878	2.4038712206530612
O	5.466742529855102	-5.162558962693877	0.7113439906530612
O	8.066633229855103	-3.6677670326938774	-1.012856746346939
O	9.140925269855103	-6.5021887126938775	-3.207187779346939
O	7.765549069855102	-9.340366442693878	-1.2762166083469388
O	4.5660689698551025	-11.397710562693879	-0.7512839783469389
O	1.6180041998551027	-13.045604562693878	-2.462813777346939
O	-0.6322303871448974	-15.889513462693879	-1.412526270346939
O	-4.065926240144898	-8.763433952693878	-7.153118539346939
O	-4.430282750144898	-6.452596622693878	-10.101026789346939
O	-6.808903750144898	-4.011046882693877	-8.218515839346939
O	-9.592662150144898	-4.169034122693877	-5.823661309346939
O	-8.582242280144898	-2.5611166126938776	-2.535215209346939
O	-10.801105620144897	-1.3078966026938776	0.19415323065306112
O	-8.571134970144898	-1.3025163726938778	3.262357960653061
O	-9.351556500144898	0.17440266030612234	6.664138700653061
