54

O	24.417693272224586	-2.3813779865884657	18.412708911778996
O	23.654516701551852	-1.5106719088637992	17.72494674006473
O	21.584636540996954	0.8930410217262541	18.46119338435824
O	20.029315733174247	-1.4302490434635342	16.119515559568722
O	21.563417498987775	-3.4852224560988017	18.57631007363073
O	21.803373565832548	-3.810190612812902	14.879114278562236
O	20.377381080939454	-6.377661567048668	16.837149039576936
O	24.516003045657804	-2.8128314727041555	19.773879238955693
O	23.691406012301655	-2.3184797438004794	20.525862075933812
O	23.824371016016634	-1.3701471302445558	16.346463287924493
O	21.250249202384925	1.6248586378463836	19.513043846507884
O	18.854569973195776	-1.3858844338105556	16.974110894960056
O	21.359830982754055	-3.3483151771094137	19.934238192281946
O	22.50268724325422	-4.849983905930968	14.092838509937962
O	19.06493906498761	-5.86338272416964	16.789329101287024
O	18.644037466508	-2.3486529718325153	18.103615726514914
O	22.178877931820335	1.3343755210477612	20.637277669843648
O	24.61982346527645	-2.5109207689368827	15.939746839975948
O	19.96369815254647	1.1755517714363093	19.988897363362504
O	21.079069836993547	-1.9617891670500636	20.361628326276218
O	21.288500933865844	-5.1397142997682135	13.271882206714977
O	18.821903411587314	-5.053964184131196	17.9264365733186
O	23.00385850956495	-1.0870743327261327	15.351138355898744
O	18.433594117800265	-2.4272092902474354	19.548741369888436
O	21.399018800870607	2.0219661545464396	21.665024088827323
O	20.905797808714166	-1.5194187379954704	21.706694705032263
O	20.55736863863875	-6.315236790799731	13.487498988063333
O	19.43903309467432	-5.635996634258252	19.020953642538764
O	18.231538576280563	-3.2312380656936615	20.637047860680976
O	19.779945935421154	-0.7990917563318964	22.27760313486315
O	19.035548115696535	-6.3504478649428036	20.107773325559847
O	21.27281333334325	-7.54897973317884	13.256597165309731
O	19.411521677561705	-6.672773315802221	13.764383492705031
O	19.39419186569311	-6.2372208399921165	21.347031811319457
O	25.511745875906286	-2.6136334491660347	20.88250186645577
O	20.72300569137191	-6.011611967228765	21.77100835490114
O	18.351385861287955	-5.967436673422058	22.24762326893399
O	23.288722130881496	-0.427114197221967	18.490142377706707
O	22.095714841234262	-0.30135979896292775	19.028075718158604
O	23.955366830393743	-0.23782163914699206	19.593364265167217
O	20.657820563420206	-0.14326460246200767	18.017899085356007
O	20.828055689112926	-0.34124757727121113	16.64939375998149
O	19.575924451767058	-0.09690698482731452	18.490572055381836
O	20.657591807998866	-2.361893374758678	16.972432961747508
O	20.703216939775434	-2.4860364740050396	18.16131349336546
O	23.09402828431655	-4.7533004535407875	17.278223600669953
O	22.041279522428756	-4.209461495805962	17.468862803128502
O	21.970294762831948	-3.5050642944959107	16.190671385316342
O	19.452602554405086	-4.344102619030633	15.504563017150245
O	20.586145500498873	-4.593677866794423	15.152937415530376
O	21.086527565281887	-5.53130729772892	16.01879451885662
O	21.913729491699264	-7.824291082731139	15.905117619349278
O	20.798527382030564	-7.661676402693544	16.398517480953377
O	20.33381799711917	-8.801314413226194	17.00383964104427
