85

O	-5.320518372375	-2.7573289846874998	-2.2051665489437493
O	-4.526816612375	-2.3103104346875005	-3.2636093289437493
O	-3.9181192623749994	-1.1196402146875002	-3.1062699789437493
O	-3.7489429023749996	-0.6224319476875001	-1.8425001599437496
O	-4.484335852375	-1.0642335546875001	-0.7893470809437495
O	-4.955466002374999	-2.3424928446875004	-0.9588267289437495
O	-4.278312242375	-0.34849928068750013	0.5116982110562505
O	-2.808982042375	0.43183829431249987	-1.6485424399437494
O	-2.2086354243749997	0.4617837953124999	-0.3850260169437495
O	-0.8670385673749996	0.5729486383124999	-0.20387748694374952
O	-0.2491818323749997	1.8469932853125	0.16503725105625056
O	-0.39931863237499954	0.5706859443124999	-1.6660290219437495
O	-0.6815211813749996	-0.8937683346875	-1.6838382489437496
O	0.3265974276250003	-1.5758102546875001	-0.9277809719437495
O	0.09282590762500043	-2.9118798346875003	-0.6404649449437495
O	-0.5666390723749997	-2.8452021146875	0.6771269810562506
O	-0.10756594237499972	-1.3955445946875	1.4404288710562503
O	0.8309935476250003	-0.7602874546875	0.12169706105625044
O	-1.1046976663749997	2.6103929253124996	-0.8009165249437495
O	-2.2925784013749997	2.7624548253125	-0.19767392994374955
O	-2.9687286023749997	3.8560824153124997	-0.6532376909437495
O	-2.3806618933749997	4.9294199053125	-1.3120712219437496
O	-1.1785258243749996	4.6670540053125	-1.8484956489437496
O	-0.5712195603749997	3.4601490253125	-1.6385063719437496
O	0.8342546576250003	0.9542400873124999	-1.3643683939437494
O	-0.45753802237499963	-1.2776477646875002	-2.8899383889437495
O	-1.9600110673749995	-2.5218199646875004	0.5888770310562506
O	-0.5194277743749997	-4.2411075446875	1.0050929910562505
O	-1.0356694143749996	-3.5238142646875	-1.3071853689437496
O	-1.7596866293749995	-4.7047998846875	-0.8224726929437496
O	-2.6688838623749995	-5.5277322646875	-1.4824836929437495
O	-1.9214215013749996	-2.7815975946875	-1.6172401259437494
O	-5.011663732375	-3.1287058646875003	0.13444445105625058
O	-2.2659677393749997	0.9577582723124999	-2.6153979989437497
O	-2.9112082823749996	-4.9670375446875	-2.8861875389437497
O	-4.104126602375	-5.7544518546875	-1.1022319247437495
O	-2.4590152173749997	-7.0236949146875	-1.7602156449437496
O	8.840370447625	4.1914681953125	-8.52033921894375
O	8.118676297625	3.5612934653124997	-4.84426106894375
O	9.922941847625001	0.9314709863124999	-2.8076560689437495
O	7.050969497625001	-0.6736602956875001	-1.0308219546437496
O	7.6518601176250005	-3.4565473946875	1.5366018010562505
O	4.006725027625	-4.6730982846875	-1.7075333059437496
O	4.0130388176250005	-7.4985654646875	-6.430636178943749
O	5.376298457625	-4.8816404746875	-8.577910958943749
O	2.7420899576250006	-2.8051915346875003	-10.38628094894375
O	-5.651324572375	-8.0885594546875	-8.78163431894375
O	-8.041371482374998	-3.5917059546875	-3.9987996289437495
O	-9.875342632375	-1.2188157646875002	-1.6436629759437495
O	-4.474570672375	1.4310416653125	-12.55784472894375
O	-2.0906353153749997	1.7893215653124999	-9.70885794894375
O	-1.9239837653749996	5.0377972753125	-8.04144626894375
O	1.9103536576250004	5.1333155353125	-8.49643557894375
O	4.591443397625	2.8730506153124997	-9.76107401894375
O	5.514521597625	0.4268530723124999	-7.06515555894375
O	8.315313567625001	-1.9987954946875	-6.60351972894375
O	7.044795557625001	-4.7760021546875	-4.422443438943749
O	8.901166047625	-7.6014653846875	-2.59953227894375
O	11.697830047625	-7.5764570946875	-7.0084143689437495
O	1.2463950576250005	-5.4995224146875	12.21208137105625
O	2.9423504676250003	-5.1154966746875	8.76551056105625
O	6.004010157625	-2.9362184846875	8.39718939105625
O	5.123575567625	-0.9730673346875001	5.27162640105625
O	7.563848967625001	1.4604118253124998	3.6125663110562503
O	2.738695597625	3.5448486953125	3.8385986910562506
O	0.6440637676250005	6.7706448453125	7.81255064105625
O	-0.1827030023749996	3.9715276953125	10.18137847105625
O	-3.6068540723749996	2.4059741753125	9.77853657105625
O	-10.503368572374999	9.316379785312499	3.7277686010562503
O	-7.565545642375	7.2204214153125	2.6778449210562503
O	-5.539682462375	2.8917958953125	-3.3316856389437497
O	-5.869672352375	0.7895654423124998	-6.22851201894375
O	-9.559386512375	0.24571416831249987	-5.9999542989437495
O	-10.532281032375	3.3978872253125	-4.1844461089437495
O	-10.873982982374999	4.8093043753125	-0.6667281299437495
O	-12.044145652374999	4.0127252753125	2.8162947010562505
O	-13.222987352375	6.1707132753125	5.67871001105625
O	-8.668563742375	-2.2759659646875	7.32913881105625
O	-8.003152022375	-5.9590263046875	7.35526258105625
O	-4.379567132375	-5.4841332246875	8.51063762105625
O	-2.5589869323749994	-3.3641816946875	10.93601807105625
O	-0.12930166237499963	-1.2494230746875001	8.88589227105625
O	2.887014727625	0.4551785133124999	10.33276787105625
O	3.696746937625	3.3166415853124995	7.981987741056249
O	6.7523139776250005	5.5421933553125005	7.76662333105625
