52

O	20.224497368735868	-4.135276056474993	14.226533364773985
O	20.84080428079908	-5.365585745890441	14.148996429634535
O	17.77251528212853	-2.7331665789155406	14.704484624703992
O	17.719375618354906	-0.6376033702783933	17.494451604695254
O	19.226310927087898	1.4944067918826542	17.077235667043794
O	18.478451187112576	0.21061268652914955	18.936256312663303
O	19.077000639323504	-5.531885837819377	17.88454251630886
O	18.25352305089053	-4.633829424974106	18.514803489324493
O	19.962365364039826	-3.6018815502952224	17.245623755645582
O	21.288807872836944	-4.823120363822795	18.05215868895856
O	20.87207896716998	-3.403812299426579	16.36369090659291
O	22.20857247573789	-4.580543801565371	17.102637824174387
O	19.02454360410837	-5.493287491474982	16.48183219078155
O	20.64019901085999	-6.623679554086011	14.764436755947852
O	21.578906011057228	-7.290808794116526	15.177178578911004
O	19.273645858853456	-0.8018441192997703	15.629342033482862
O	21.259284392123433	0.9340739921517622	17.16208650193665
O	20.66905593573499	-1.9144743758205047	13.57745156305182
O	22.515269836424025	-3.358271897776706	12.972965952785247
O	22.39109636147203	1.8523726936736886	19.82579748361683
O	20.961206586761598	-5.247293278576188	12.696272700222833
O	21.900330483824632	-2.0937660494726735	15.883954984772528
O	19.117675923917684	-3.687632484459348	19.097864687305986
O	22.338701235982203	-0.932549702823608	15.146915641098415
O	23.066099020480056	-2.7273279499018876	15.282842592562467
O	23.63563871874186	-1.928321866235999	17.08334058321322
O	22.51687407670115	-4.546434529164584	14.964946552437613
O	19.0894544558642	-1.8432193915955493	16.249905762025744
O	20.87785800415755	-0.16063617443169997	16.723962115685183
O	20.9208127497477	-2.991178602616754	14.224725757112774
O	20.368748685237733	-3.9766853848574018	18.434229746065736
O	21.75887405705836	-4.223843658546782	16.089165983136997
O	20.009773719178185	-0.5325994405099257	17.81492536802766
O	18.913049736768315	0.25489516648459265	17.461309165522156
O	19.725060709132293	-6.262904144928497	15.64543301981228
O	19.412843970905	-1.684112614671086	17.65959098577622
O	22.02796324007488	-0.6736532674124176	17.238248370299935
O	23.054602545745496	-0.8383597818016885	16.393283202565062
O	18.076239929846395	-2.807774604413167	16.04221355454442
O	21.63911939385642	-6.518176700767606	12.47396289887255
O	19.60142637008724	-5.84783539008459	12.5529540886038
O	21.401313165738205	-0.4634101537487503	19.863973676177974
O	21.34153539366272	2.5497764823811453	21.05272725940027
O	22.163366741934873	-2.4574213281022605	19.30522539789584
O	23.058844209243244	-2.1853008497014117	18.448280034867956
O	21.12975135565444	-1.670267656991752	19.687205316411365
O	21.09632581450514	0.6233768792501277	20.528131658903675
O	23.461234256735775	-1.0314411730105473	18.902274592217754
O	22.665040280603936	-0.21062008997516313	19.582922941161783
O	20.666660734612986	2.7108124970996617	19.61141281824296
O	20.10024609905418	1.454077485847542	20.075981845960257
O	22.333144381492545	-3.2878434919136623	14.256329600343404
