39

O	22.843411250719903	0.9910248342135426	19.546523298302994
O	21.254965688316094	-0.12780929405820585	18.425364938928286
O	23.455141848152845	0.1819385546092076	20.527984838088393
O	22.831004442317106	-3.4335178094763643	18.443652751976046
O	21.55635517194964	-7.1292188503795675	15.734339887576276
O	22.460485829476053	-0.8966516131265573	20.770603276402802
O	22.107337420747072	-1.3874195678765657	15.365783972542658
O	22.04418411868722	0.624318493260902	17.57375559841788
O	23.642297783083286	-2.328637522389476	18.551276573850007
O	23.25025532234627	-1.0933624208987327	18.815492888932123
O	23.26769316995081	0.15434898353377946	18.233923225906086
O	24.732777652774644	-2.3914039040880315	18.004384971633343
O	22.295649151806753	-4.064053694885832	17.29162465678374
O	24.02151557705691	-4.255324257959023	16.385597281430652
O	23.033119048569365	-3.525096003732854	16.147950760842512
O	24.24433477635434	-2.4731154349324305	14.563792016459553
O	21.46212287053031	-2.8407251747687536	16.79014049531179
O	22.465774689165098	-1.9311765821950635	12.849070636037373
O	20.516036037952606	-3.0557893676606396	17.69257083753826
O	21.299702410582356	-0.23733812854662273	20.54553894030151
O	20.68950948652169	-2.919440005595873	19.001708185227102
O	19.683419562983396	-4.073756967867046	17.378109547711155
O	19.479064292317034	-2.581123463202839	19.60243527054685
O	18.494324839071297	-4.095353011004891	18.025679182710075
O	18.530000059938402	-3.5017077838907635	19.250226255745275
O	22.817440813297797	-2.0770662910401185	16.34114736226159
O	20.846420489664844	-1.4234172481735883	14.866782949577262
O	19.65508642235621	-0.9988767029521093	15.410910917995627
O	22.131682834876568	-3.76024185844162	14.057458010677383
O	22.810122796690372	-4.73197896694397	13.503963186287965
O	22.576886392110364	-5.937855428810602	14.042903202547151
O	21.520906758704474	-6.086797994463666	14.885726302999098
O	20.54499588078624	-5.172606593067531	14.706005276727849
O	20.871189768096947	-3.9411730414152744	14.291460586701069
O	18.61284158398145	-2.0491817771747582	15.453260431506324
O	19.32360120526042	-0.24922592639650265	16.567972923789814
O	21.702529613415166	-8.28338850330859	14.898340308167278
O	21.413181652276986	0.6346890494466422	19.479542953118077
O	22.891559785841128	-2.2450088745638275	14.140554892811416
