90

O	-2.7843552527999993	-1.9650745246200003	3.3086588984399996
O	-3.1270416327999997	2.5341658853799998	0.2083318924399996
O	-1.9272103657999995	2.9611208353799996	-0.3548642685600004
O	-1.1198897733999995	2.0739487353799997	-1.1188644715600002
O	-1.7309073217999995	0.9254331540799997	-1.4691091815600004
O	-2.9718476727999996	1.2783317193799997	-1.9026406215600002
O	-3.7466587027999996	1.7315383083799998	-0.8420649575600004
O	-0.7836174307999995	-0.45348444462000026	-1.5651643915600002
O	-1.4980460017999995	-1.3317681646200001	-2.4323747715600006
O	0.5152530372000006	-0.15717532462000017	-2.1288307615600006
O	-1.0912934777199994	-0.6888324746200002	-0.0016307188600003866
O	-2.2143857427999993	-0.4371110046200003	0.7913186344399996
O	-1.9655359647999995	-1.7144839146200002	4.79628666844
O	-1.7424110207999997	-0.3984413946200004	4.56609062844
O	-2.2754502827999996	-0.6548561446200002	2.2635567184399994
O	-0.9678932297999995	-2.02673349462	0.12310886043999962
O	-0.7326342217999995	-1.99277636462	1.5264591484399996
O	-1.9661929287999995	0.08932049137999976	3.3471447584399994
O	-0.5382790807999995	-3.15007259462	2.1117964184399995
O	0.42467936720000043	-1.1471206246200003	1.4347162184399997
O	0.6606496572000005	-1.3040376846200004	2.6666681384399995
O	1.0170370572000005	-2.3863639346200003	3.4548058584399994
O	1.4118931772000005	-1.6149835646200001	4.71027942844
O	2.0970867072000003	-2.69842132462	2.8319812684399994
O	1.6370059872000007	-0.4175964546200003	4.25349923844
O	2.7714577572000003	-0.5969069146200002	3.2818972184399997
O	1.6644062472000005	0.9732400568799997	4.57267533844
O	0.9343505972000004	-0.1889275946200003	0.6663235044399995
O	1.5318424172000005	1.9717851993799997	0.9105947774399996
O	1.2639006272000004	3.31261958538	0.9485677484399996
O	0.4065759572000005	3.7891277353799997	1.8563565784399998
O	-0.45445486279999947	2.93212255538	2.4296354784399994
O	-0.2946364417999995	1.6760702933799996	1.9932295484399998
O	0.6314579572000005	1.0545999665799997	1.3080805684399996
O	-5.0835432028	1.9566474743799998	-0.6141192465600004
O	-3.3846079927999995	2.19943630538	1.5104037684399998
O	2.4793832372000004	0.5922374853799997	5.55313527844
O	2.1833436772000003	1.8470800513799999	3.7653963884399997
O	0.4695795272000005	1.4499757453799997	4.83801051844
O	0.11367851720000055	2.1817557253799995	-1.5760476815600002
O	-7.2175315428	-7.682917324620001	-7.87581706156
O	-4.348583252799999	-5.1985884246200005	-8.001240111560001
O	-0.7420058977999995	-6.12028075462	-8.75505818156
O	1.0881795672000005	-4.32145508462	-6.07923030156
O	4.836617997200001	-4.3233284346200005	-5.76100919156
O	2.7028939672000005	-4.91996389462	-1.1243391115600003
O	1.4480663772000004	-9.71708458462	1.2938222884399997
O	-1.5834276057999994	-10.696477684620001	-0.6267449485600004
O	-4.829404972799999	-9.514755284620001	1.0310939484399997
O	-0.8723614567999995	-6.74409510462	9.929962328439998
O	-1.7281787467999994	-0.36907006462000036	8.63875078844
O	-1.9630708877999994	3.4744192353799996	8.68538262844
O	-1.8994856837999996	4.67178168538	12.183023148439998
O	-5.2797528328	-4.29428598462	11.798133348439999
O	-10.5835902328	-4.93892535462	5.62956449844
O	-8.3894519028	-4.02960095462	2.7395171784399994
O	-9.5149628328	-1.2387216846200002	0.6118027944399996
O	-9.0557381028	-3.5394842846200003	-2.4802365715600003
O	-7.9345574528	-6.99696816462	-3.3503623015600006
O	-4.1900498727999995	-6.90674547462	-3.6874048015600005
O	-1.6521490607999993	-9.354101084620002	-4.98044864156
O	1.5602573072000006	-8.679076964620002	-3.1094697215600005
O	5.1342787672	-9.88835538462	-3.5644065915600005
O	2.6318576272000005	-14.320616684620001	-4.91420831156
O	4.0716557072	-11.890678884620002	-7.49564365156
O	12.6747923972	4.662881135379999	-2.1983233115600007
O	10.2091315972	1.7998164173799998	-2.9649214815600007
O	8.9802496972	1.3078961873799997	-6.52163555156
O	5.2697406572	0.7849562513799997	-5.83894334156
O	2.8961316372000003	-0.2398868646200002	-8.63189455156
O	0.8061072772000004	3.48809266538	-5.42916792156
O	0.9484124072000006	8.93993288538	-6.15675231156
O	4.482807147200001	9.412606065379999	-4.86465263156
O	4.8538905172	10.04163852538	-1.1444721815600003
O	-5.271170612799999	13.353331315379998	3.2399860284399993
O	-4.1110382028	9.976631935379999	1.9523852184399997
O	-5.1960413328	2.5796573653799997	3.6556262584399994
O	-6.128211182799999	-0.24597808462000026	5.58531601844
O	-5.995027752799999	1.3155990163799998	8.958639088439998
O	-6.9633819028	4.77660524538	7.90209116844
O	-5.426273112799999	8.034365335379999	6.64424512844
O	-2.5858827427999995	10.450366915379998	7.15864384844
O	-2.1763544928	14.165158415379999	6.53334750844
O	5.4592731772	8.20311033538	6.01641771844
O	7.9931333872	5.59330842538	7.07330923844
O	9.0283513972	4.84324799538	3.4762519384399995
O	9.7184136972	6.92262746538	0.3978301874399996
O	7.252345657199999	5.64650985538	-2.2481575515600003
O	7.5338212672000004	6.02529686538	-5.9438530615600005
O	4.0572744372	5.70160495538	-7.38674890156
