94

O	-1.3817789542020409	-0.39450761353061237	-2.197583722020408
O	-0.39593267490204087	0.5953589854693876	-1.8980314620204082
O	-1.352355632202041	-3.4218736155306124	-1.8913638220204079
O	-0.8437875182020409	-1.5682596455306124	-1.497114915020408
O	-3.042672535202041	-2.8963309555306123	-0.502299332020408
O	-0.5667536522020409	-2.7626203555306126	1.974132817979592
O	-1.9196967952020407	-2.5258576355306124	-1.336401243020408
O	-1.368922327202041	-0.8967277255306123	-0.335158796020408
O	1.4687858247979593	0.7539704034693876	0.064745609979592
O	-3.565807285202041	-4.184634255530613	-0.726843857020408
O	2.726848104797959	-0.3557014835306124	-1.147134237020408
O	4.19511750479796	1.9276813444693877	-3.0877354320204082
O	-3.964897785202041	-5.206931525530612	0.2597133279795919
O	2.781470524797959	-2.8482034255306123	-2.823130142020408
O	-4.572919835202041	-4.583648985530612	-1.765843615020408
O	-2.475748595202041	-5.113388105530612	-1.3964972590204079
O	-1.7279710652020408	0.3609821466693876	-0.11853495002040804
O	-0.7042742002020408	1.1923997924693877	-0.758113097020408
O	-1.6843426452020407	-1.6605010455306124	0.7471360579795919
O	-0.5754028652020409	-2.7276640755306123	0.5567738279795921
O	0.6247248847979591	-2.231474395530612	-0.12018794702040803
O	0.596415754797959	-0.9286553055306124	0.320142797979592
O	0.23235805779795915	-0.7049943355306123	1.6700283279795918
O	1.591279814797959	-1.0450936155306123	1.8503523679795917
O	2.202500384797959	-2.1349366755306125	1.3101867779795917
O	3.493759014797959	-2.3576997455306126	1.090355277979592
O	4.36478108479796	-1.3176303755306125	1.1930847779795917
O	3.8795574947979587	-0.20273275153061243	1.770662777979592
O	2.527979024797959	-0.0697763675306124	1.8924451079795919
O	1.8606575647979589	-0.3899267665306124	-0.18203258302040803
O	2.620176614797959	0.8718725954693876	-1.9681209420204082
O	3.8328681147979586	0.7154128794693876	-2.712954812020408
O	4.7820207447979595	0.2640968079693876	-1.667541934020408
O	4.25970222479796	1.4052281444693877	-0.837188724320408
O	5.02697777479796	2.605610244469388	-0.902738871920408
O	4.748498584797959	3.1869926644693876	0.2764152179795919
O	3.5950729547979594	2.8889460544693875	0.9248712779795919
O	2.583502514797959	2.6030991544693878	0.06615380997959197
O	2.963826254797959	1.7693504244693876	-0.921748511020408
O	0.4287930167979591	0.051901210469387615	-2.761781722020408
O	1.100755134797959	-1.1216492855306124	-3.209566212020408
O	1.4801695547979592	-2.3972034955306123	-2.920670982020408
O	3.6515743747979594	-2.4098975955306123	-3.728554102020408
O	3.072072844797959	-1.6208189755306124	-4.721506842020408
O	1.934933364797959	-0.8779755555306124	-4.345330662020408
O	-9.775250125202042	3.7667677544693876	-8.374701082020408
O	-8.71736805520204	4.015464144469387	-4.721659482020408
O	-7.556943045202041	7.202170804469388	-3.137177672020408
O	-4.526488185202041	6.122698214469388	-1.357675875020408
O	-2.548634145202041	8.629712434469388	0.7008717279795921
O	0.5495906707979591	5.288273004469387	-2.260732992020408
O	2.576360594797959	6.610372324469388	-7.115928612020408
O	-0.4403281083020409	6.144639994469388	-9.173298502020408
O	-0.673744000202041	2.615678974469388	-10.572202392020408
O	8.693292234797958	-0.4881425935306124	-8.507206862020407
O	6.341970184797959	-4.302611515530613	-3.472383972020408
O	6.134686484797959	-6.724216595530612	-0.751154696020408
O	9.202479724797959	-8.844562395530613	-0.7054334960204081
O	8.016880594797959	-5.700171125530613	-9.514365102020408
O	0.17046464879795908	-6.033583225530613	-11.513129932020409
O	-1.344054881202041	-3.8597664355306125	-8.916849202020408
O	-3.917226925202041	-5.335578515530612	-6.973992852020408
O	-6.255304495202041	-2.2986215055306123	-7.796601432020408
O	-6.22403661520204	0.9579617304693876	-9.422344292020409
O	-4.73565966520204	3.403930674469388	-7.026007012020408
O	-4.410486165202041	7.122244704469388	-7.112610222020408
O	-1.2946898242020408	7.917396214469388	-5.163002012020408
O	0.0790489387979591	11.259666884469388	-4.027979362020408
O	-3.661802855202041	13.467633484469388	-5.156188742020408
O	3.7111552847979588	6.610667504469388	11.415699167979591
O	2.041848184797959	7.188563364469388	8.006086547979592
O	-1.598583605202041	8.101166444469387	7.665648957979592
O	-2.667055635202041	5.710357504469387	4.910155927979592
O	-6.206553635202041	5.820844884469388	3.4440439579795923
O	-4.175704635202041	0.9866238254693876	4.204605717979592
O	-5.589071495202041	-2.0904062655306124	8.759767457979592
O	-2.832100195202041	-0.6222430135306124	10.876157367979593
O	0.5607275327979592	-2.2906978355306125	10.737060967979591
O	-0.5976125152020408	-12.964814715530611	6.529312117979592
O	-0.9157675992020409	-9.547441705530613	4.947034277979592
O	0.2988429547979591	-6.383939885530612	-1.9589470320204079
O	1.777618624797959	-5.897609685530613	-5.1527858720204085
O	4.652763514797959	-8.211272745530612	-4.796696752020408
O	3.035211354797959	-10.511555215530612	-2.377621292020408
O	2.554118564797959	-11.122989215530612	1.3385625879795917
O	4.232127764797959	-11.003361215530612	4.6791091679795915
O	3.703113424797959	-12.736088415530611	7.997344807979593
O	7.26647868479796	-3.746278745530612	7.8077148079795915
O	9.557259464797959	-0.9218476855306124	6.903436227979592
O	6.98088068479796	1.6946846244693876	7.994665687979593
O	4.448561744797959	2.2082907244693875	10.683626667979592
O	1.073538004797959	2.4555480944693877	8.866170697979593
O	-2.073968005202041	3.914675164469388	10.277074567979591
O	-4.9205854552020405	2.4217667744693876	8.314527327979592
