46

O	21.484384403475314	1.4612375523997	23.140758540020883
O	21.29923733507721	1.394094472810645	20.38436148948098
O	23.15486144619294	2.713130760024071	20.31209360601
O	20.215755412938954	0.9193349041761716	21.148034164904747
O	22.340545581155506	2.4316851478354247	22.44631025346176
O	22.118233866850176	0.8419344783052225	18.05970504087868
O	22.30447260333037	2.176359357187714	21.04445996323252
O	20.213905970376064	-0.13808748457644215	18.4927459211027
O	22.737638881390275	-1.5584463902657846	19.330603716725435
O	20.31594860447586	-4.049394995732029	15.935423391424175
O	22.190037852516387	-3.1639829608706718	17.400518895140486
O	23.372204888200994	-1.2711369883794008	16.568604802764128
O	20.96662755634357	-4.993704423864753	15.152724299178853
O	20.59462344402544	-3.9405586803653376	18.616180863283336
O	20.37701991282143	-6.2107910061856355	14.972087542461498
O	19.44026320713475	-6.474907657823217	15.914832684305825
O	18.673774809680417	-5.453799153218782	16.477331961648083
O	18.99453882726446	-4.24439912751129	15.985378366362172
O	20.81965297159235	2.131221867792683	19.264391417424868
O	21.03144422816814	0.8800176576674195	18.534203720622394
O	20.328448845396476	-1.0544173695669476	17.35755360771114
O	19.4563991381099	2.361491477586047	18.754240631062565
O	18.709732817679637	1.2924092812501369	19.395308484873027
O	19.242934922794873	1.8418169502603912	17.314935277769546
O	18.262602014493766	-1.9601403048667025	20.597562698481678
O	17.92141089265777	-3.2730951206998444	20.292654194102823
O	17.49337236502752	-3.6094488944753493	19.036646856313123
O	17.681340824811393	-2.686838631317448	18.066884279988567
O	18.597939350027545	-1.7731873550075286	18.22248392246307
O	18.81431923588638	-1.432368806866087	19.496449486760206
O	18.964199242581465	-1.1780145282052614	16.930452914807805
O	21.240856991936848	-0.5606440046436962	16.51266327103514
O	22.15920847458808	-1.428561065106068	15.940684886123686
O	21.72159593973063	-2.7604689592726723	16.237262214181964
O	21.529386755095196	-3.1698882931625265	18.570550668318752
O	21.746717031042817	-2.355353799138783	19.731529479429227
O	23.512522972248494	-0.8148215255565808	20.09579876962357
O	20.604905864503674	-2.6971413497052152	15.438842636013595
O	24.8460378511287	-0.6630859305519028	19.68609866659444
O	25.673565334615912	-0.21924122775037747	20.736672420963163
O	24.812580102397362	0.5698969474214866	21.518962761369636
O	24.10499050924577	-0.32725397971200354	22.371265484314165
O	23.24670620966531	-1.007644553943583	21.501554045567083
O	21.89111568007736	-1.4614694551173006	21.7828115473051
O	25.373786276806317	-1.7340832070860572	18.860880769187915
O	20.145046216783587	1.6215757341838983	22.415333625632265
