104

O	1.570997617254545	-0.5042742219509087	-2.1221630097418185
O	1.4599778772545453	0.7487550590490913	-1.4687105667418183
O	1.0552323472545453	0.11194779404909133	1.8364326492581815
O	2.4921164272545453	-0.5509696639509086	-2.9792283607418186
O	3.294954237254545	0.4309714000490913	-3.2245466407418184
O	0.13213445425454529	1.1424633130490913	-1.7030663417418184
O	1.981587467254545	-0.8844388999509086	2.084333109258182
O	0.30112029725454514	1.3532134000490914	-3.1283226807418183
O	1.378549797254545	-1.9855885499509087	1.2414756392581816
O	-1.943059652745455	-3.320156379950909	-4.811105040741818
O	0.48956903725454526	-2.634711929950909	2.0129186092581817
O	1.735942747254545	-2.660418899950909	0.17480708925818167
O	1.1348625372545453	2.4514912800490913	-3.3587391207418182
O	-0.6611821084454548	1.6129147500490912	-3.8166179707418184
O	-0.034058543745454806	-3.812653629950909	1.6097023492581817
O	1.3864766172545453	-3.8972745999509084	-0.1289617607418183
O	0.22774279825454524	-4.365513659950908	0.40245878925818146
O	-0.19409103474545475	-0.9663619899509087	0.04190702925818157
O	1.648521757254545	-0.010756593950908666	-0.2754104407418183
O	2.041977227254545	-0.022323727950908645	-5.113744560741818
O	2.899661667254545	-0.14480387595090866	-0.10134456074181841
O	1.809387457254545	-0.8928856799509087	-4.1700630707418185
O	1.2773855872545452	0.9011552320490913	0.6974539092581817
O	-1.0180988727454547	0.5533823810490913	1.0333283692581816
O	1.1195201272545452	-1.9655551599509087	-4.411943460741818
O	-2.067429852745455	-0.8941852899509087	-3.1197054507418183
O	-1.8198820327454546	-3.053912459950909	-3.473183250741818
O	0.023745727254545268	-3.044921689950909	-2.5283665237418185
O	0.28018017725454525	-1.7869202299509088	-5.399748000741818
O	-0.002282280745454779	-0.6223305689509087	-5.876450280741818
O	-0.8115137637454548	-0.3649680729509087	-6.875629290741818
O	-1.1766342637454548	0.9847446070490913	-6.865456180741818
O	-0.09088957974545475	1.8154109300490915	-6.912271590741818
O	-2.6080969627454547	-0.9873836699509088	-1.7726739727418184
O	1.0986591072545453	1.3929535000490914	-6.469823050741818
O	1.1064073572545454	0.11698228304909133	-6.008106170741818
O	-0.1985537187454548	-0.4713025809509087	1.3113006192581815
O	-3.279979392745455	-3.971661749950909	-5.316004760741818
O	-1.3490868267454548	-1.5735875599509086	-0.15214415074181842
O	-0.9612153357454547	-1.9488517499509088	-1.3016395997418184
O	-2.5662851427454547	-2.5909891299509087	-6.049472880741818
O	-1.2188576627454548	-0.7865231899509088	-2.1238089017418185
O	-1.0761124337454548	-4.211223399950908	-5.713640530741818
O	-2.697288362745455	-0.2441714689509087	-4.202052440741818
O	-4.011698512745455	-0.9853338099509087	-3.944196590741818
O	-4.3310041727454545	-1.9905538999509087	-3.0692748407418184
O	-3.663892122745455	-1.911428509950909	-1.7305609980418184
O	-2.3275776627454547	-0.5894328649509086	-0.3681021707418184
O	-1.0971415217454548	-2.700667549950909	-2.3727119087418185
O	1.4358566672545452	11.903110570049092	5.3663443092581815
O	-0.4029925167454548	8.696619090049092	6.175206709258182
O	-4.145560182745455	8.209818360049091	5.648981419258182
O	-4.249974712745455	4.893123350049092	3.875131629258182
O	-7.569885122745454	3.327183010049091	3.156724939258182
O	-3.985004102745455	2.979954890049091	-0.9932832307418183
O	-3.5459325027454547	6.436110670049092	-5.077083220741819
O	-1.874214642745455	9.163789500049091	-3.3602698007418184
O	1.942108547254545	9.182446320049092	-3.5855783207418184
O	4.049282297254545	2.979016000049091	-13.81573404074182
O	2.3135213372545453	1.8604615100490913	-10.56378340074182
O	4.132770247254546	-2.631083809950909	-6.299803570741818
O	5.432252797254546	-5.457942979950908	-4.540049310741819
O	7.2463095872545455	-7.8499653399509075	-6.921265460741818
O	6.549399287254546	-5.644181669950909	-9.88454413074182
O	5.777183027254545	-2.184751239950909	-11.25292488074182
O	7.465777857254546	1.0717134080490913	-10.26585597074182
O	8.096698107254545	4.352163640049092	-12.201896040741818
O	9.885334807254546	6.021761790049092	-4.2661494507418185
O	7.379840927254545	5.524601500049092	-1.6327730732418184
O	8.237766377254546	4.241467710049092	1.8441327092581818
O	6.158846467254546	7.137300260049091	3.2907379192581816
O	3.8646241972545448	9.858923900049092	2.023104699258182
O	0.4467235672545452	8.288020460049092	1.5668454192581815
O	-2.959779232745455	9.751986290049091	1.0208275792581818
O	-4.9396521027454545	7.140266520049091	-0.8171032767418184
O	-8.616919832745454	6.901247480049092	-1.5609134204418185
O	-8.606154662745455	9.329910160049092	-4.486394560741818
O	-8.219267522745454	12.195597170049092	-2.0567676567418185
O	-9.696097422745455	10.55218607004909	1.0557255992581818
O	-13.140876492745454	-1.2774836199509085	1.9987688792581817
O	-10.290847892745454	-9.039489759950909	3.6531152492581818
O	-9.431729642745454	-5.294282689950908	3.1241799192581823
O	-9.643606002745454	-2.888445089950909	6.039669849258182
O	-6.345158162745454	-1.0747484499509086	5.553022569258182
O	-5.4488459527454545	1.8523366400490913	7.813876999258182
O	-1.2608953637454547	-1.4387031499509089	6.927670029258182
O	0.2528350832545453	-5.407738879950909	10.27949425925818
O	-2.3245169327454547	-7.9530398099509085	9.150578459258181
O	-1.1513527887454549	-10.028484029950908	6.235444129258182
O	7.606961117254546	-7.0688697899509085	4.816253069258182
O	6.4241885772545455	-1.6000216299509087	0.2872410892581816
O	6.705885297254546	0.28607525934909134	-3.0048641007418184
O	8.579745977254545	-2.1401469499509087	-5.105228080741818
O	10.157858707254546	-4.111560089950908	-2.5049141377418183
O	9.593648307254545	-6.916660479950909	-0.08229570074181836
O	8.188738407254545	-10.338464929950907	0.2843548992581817
O	8.969080837254545	-13.116869529950907	2.750772909258182
O	0.2004293232545452	-11.639373329950908	-0.7492385887418184
O	-2.4942831527454548	-11.250734829950908	-3.3298019107418186
O	-4.979750932745454	-9.962208229950908	-0.6250682307418183
O	-6.023466122745455	-10.511369429950909	2.896761489258182
O	-5.151609572745454	-7.203573619950908	4.620944419258182
O	-6.542152272745454	-6.2616544699509085	8.006307459258181
O	-4.0531418927454546	-3.845343699950909	9.52136495925818
