38

O	22.56608474604744	-5.44404539463162	17.493918625833206
O	21.519965912405905	-5.321897296290853	16.529344751025757
O	21.792561861394574	-5.2748531618381245	15.144145815335863
O	21.355773939405264	-4.158902380817896	14.360048955675602
O	20.619986336166853	-3.1626981002675243	14.940399837579681
O	19.801930377926233	-3.878515888127591	15.748826809892936
O	20.21399627067709	-4.930368229274239	16.593322366102235
O	20.856151615045828	-1.5045767694142222	15.162248274598257
O	20.09468407596117	-0.5064451312304414	14.437055123358173
O	22.199318989667283	-1.2042711539415982	14.659748303492057
O	20.988205797575155	-0.8243710232849668	16.674795594931815
O	20.103924645979863	0.16258442553046382	16.847449598651128
O	18.826442677841644	-0.23810587144890127	16.37524797486773
O	18.252506051749087	-1.4778872135781032	16.02795495693383
O	18.31598149362695	0.27297300385599854	17.689945084122716
O	22.130821621056448	-0.7206119383016097	17.328559168625993
O	22.7331964636059	-2.0293526305622303	17.689858610263705
O	22.640008129499414	-2.6303713383528544	16.567360122811458
O	21.793907522872747	-2.5527340873103874	18.689160761460094
O	21.773507125965455	-1.5872302057678354	19.741979176387552
O	22.394380916670904	-0.34315688708421654	19.644310336228667
O	23.615737791090133	-0.428218108854576	19.60955561213583
O	21.58854050543169	0.7412865352685925	19.485251088829248
O	22.214148940700905	1.9501465829146005	19.054175691267798
O	21.052858831555383	2.6366694438177953	18.440122633429283
O	20.071057715693765	2.276975455885471	19.317408199268208
O	20.653194638669852	2.557786964457211	20.511870339911848
O	20.317522010007373	1.3287051261233735	21.124692167448906
O	21.31149661275555	0.8505748656223016	21.885657950374153
O	22.547861113645318	1.4479482163082997	21.33084804004249
O	22.130922703091468	2.5925979130376353	20.47881841379921
O	20.568199933493553	-2.340127306972228	17.943972017914014
O	18.44413843176557	-3.001644124613523	18.64988487813993
O	17.233237473459994	-2.533880930981711	19.070361940813246
O	17.311548297819975	-1.7502013355277664	20.209206870503014
O	18.474232784514705	-1.2733097986066655	20.735379565853776
O	19.60025639055837	-1.5776002934413624	20.049552432836084
O	19.550768360204156	-2.3001481277148974	18.9178050113518
