45

O	22.96696072365257	-3.11860400873025	16.330528005376483
O	22.78394024506167	-1.780313769135097	16.273523769349232
O	22.602443448096963	-5.546192752262736	16.155662947106077
O	21.739208414791392	-3.7787639545646625	16.591670211301402
O	20.83108942941191	-5.8092204063943935	14.965278174790628
O	19.853740819048497	-1.3836490745373664	15.064599777256081
O	21.513878659289478	-5.042937884539986	16.010743446603573
O	21.56924842784433	-3.4539105992936627	15.11654914152098
O	20.871721529927182	0.45703816875885117	16.92627717299503
O	21.14318966615785	-7.152794607126947	14.68769148007241
O	22.119362640254426	-0.02766244272287599	18.265755898443086
O	24.032905617620884	0.5904553473715639	19.600669662552733
O	21.85866215254618	-7.737492925957501	13.552769840075715
O	22.180683904083693	-3.023407595720066	20.90665408081051
O	20.24472812756905	-8.30377544214954	15.00172131333848
O	22.182156094079	-7.595318013790213	15.770456126463824
O	21.774963318840946	-2.369693762978092	14.38721434606721
O	22.109173778155856	-1.3393642328685447	15.28787654515303
O	20.243150534962545	-3.6420452479625505	14.746125240672448
O	20.14158702745516	-2.5406146584494946	15.722746384645827
O	20.48095023805851	-2.672748717226919	17.106060846839494
O	20.16821648075348	-1.4044812865669742	17.507621722300847
O	18.922138216116846	-1.1793103534687726	16.92038259731471
O	18.530837751562817	-2.5076768615095233	17.43744612388212
O	18.959172664121862	-3.3171163080496546	18.44153974021004
O	18.904832120347248	-4.650919958471353	18.197797483173957
O	18.436869158586376	-5.171753817866292	17.024834170689665
O	17.628079616240218	-4.396505926748611	16.283855876388206
O	17.759319757061178	-3.089440729466971	16.569921006872338
O	20.83080793852283	-0.3202422150270472	17.844158997768723
O	22.065686330999664	1.205478119285821	18.970697664571148
O	22.800403022636512	0.45844050242313017	19.992510527233108
O	21.950705792689412	0.20801698265699353	21.014435197234594
O	20.809590695942966	-0.1013688240544739	19.996611031384333
O	19.791206569336637	-0.8438011554084563	20.46183199570695
O	18.56400059566328	-0.4946498618732922	20.09318038393814
O	18.50966254229521	0.6406881036031287	19.33517278805921
O	19.592202745829375	1.3629572972947548	18.850432522219155
O	20.735923910329802	1.2333329163849176	19.529385255551126
O	23.272760143595452	-1.680232617925307	17.511825292611526
O	23.07292384224401	-2.5423800817610673	18.685911545985384
O	22.183289248978333	-3.0493563970023905	19.573580683150578
O	23.330409614976894	-2.758138765827339	21.523238640277143
O	24.41978578817122	-2.387176050286191	20.790943933290578
O	24.243171034495173	-2.3539882639728607	19.41143221323869
