49

O	20.43260304518363	2.283609106068018	20.798896505256817
O	21.13222861460066	2.850460208264816	19.555562911210423
O	20.631437772243395	0.5025585815904541	19.582272149952427
O	20.813441253670007	-0.2980487638104563	20.493002322044056
O	19.512131422858495	1.1126671691145926	20.238653711746668
O	21.369855714736122	1.5679260159251904	19.02819063373276
O	21.69864401558354	1.5697483029809454	17.761774565101206
O	20.653908619815912	1.89530696780636	16.783029695345284
O	20.88857175111803	1.0283348643191168	15.58681125991197
O	19.61855423188479	1.1760541987191813	17.56951781499083
O	21.969339495271786	0.2218196880655665	17.51619021114319
O	22.602725805658675	0.11622033759420658	16.528488290687644
O	21.541270053113983	-0.8501640059533	18.04193456094146
O	22.1930567942649	-1.878725234885014	17.326489840480875
O	23.59737453981527	-1.2525419092281824	17.357153790193703
O	23.39245095827366	-1.0228884913041045	18.867809662685158
O	23.93076993420797	-2.030411260815343	19.50608700024276
O	23.754653278279996	0.01439867230878189	19.60945772942519
O	23.862694998988477	-2.149296381556704	20.85125371730603
O	23.62881416281035	0.13002602892093273	20.955601101042813
O	23.646077934508213	-1.0623597040462949	21.626680781099886
O	22.800367402041875	-3.023366030438648	17.708299260664752
O	21.97831557333184	-3.5279122702022305	18.608621907339224
O	24.011790937769437	-3.372315347830098	17.29626060323432
O	23.20834656557333	-0.9686030172537846	22.925302781568156
O	21.09278271262431	-2.5774892502114275	19.193046250134763
O	20.177012110872024	-2.4882876915313457	18.257688943312125
O	18.88586878295609	-1.9294779083606803	18.480491370933823
O	18.788672623634756	-1.9580330172564384	17.021156282808604
O	19.17116867186881	-0.9500357182065786	16.406932267237952
O	19.95123145518584	-1.0243976003091184	15.368324940374794
O	18.74441950128618	-3.005151428970858	16.236334457932752
O	19.3130640894731	-2.927571320196805	15.059206142124182
O	20.302132839251524	-2.1517279017631394	14.802506583044096
O	21.521400116554716	-2.1175858971792456	15.171965277616843
O	22.502038547198406	-2.0840312900023927	14.253882697665006
O	20.081361650829688	-3.7954910937438955	17.675576537785084
O	19.377175728667524	-4.3134314396044235	18.596321034062935
O	20.896683671203192	-4.360418886312711	16.810336843420643
O	20.645108083318235	-5.117887700611394	15.715113189877435
O	21.726886197134302	-5.8993546176904665	16.254844523621454
O	21.448259276832115	-7.055290260289305	16.096821163634175
O	20.66541878438044	-5.368302462314729	14.322107478381303
O	19.437742491461563	-5.705617952500076	13.722081141017245
O	21.432190185001726	-6.554990625071834	13.946940600665648
O	18.51784617877878	-6.0789992668426835	14.840069027260466
O	22.770966688813097	-5.351449316763751	15.512130063091556
O	22.52061224912262	-4.1595652023794045	14.948473426071455
O	22.158256344219257	-3.4777995103174293	13.714815182539052
