97

O	-0.7290781156399999	1.91082746182	-4.578397010791999
O	-0.22964881863999997	0.9994161808199999	0.2984510392080004
O	-0.27894171463999995	2.3044121618199997	0.36496630920800044
O	-0.9848927226399999	-0.02985886418	0.5939193292080005
O	-0.78258448364	-0.94890180818	-0.3656333807919996
O	-1.92527930264	-1.40020546818	-0.4204950207919995
O	-1.6990476826399998	-2.63230828818	-1.1393388137919995
O	-0.5803271436399999	-3.30522306818	-1.4540950757919997
O	-0.42770389474	-4.18462738818	-2.4270391347919995
O	-1.4845684226399998	-4.31511652818	-3.2186580707919994
O	-2.64947186264	-3.7734468481800003	-2.8826088007919997
O	-2.5048153426399997	-2.63052840818	-2.1772010177919996
O	-0.23990260263999996	-0.70735352218	1.6152700892080003
O	-0.40618921094	-0.69425864618	2.8324193192080007
O	1.0937053473600002	-0.89613096818	1.4228994792080005
O	1.7694413873600001	-1.8244237581799998	2.1932873092080003
O	0.6737608673600001	-2.5759941681800003	2.7075322192080002
O	0.30787446936000007	-3.17245307818	3.815082229208
O	-0.03905479963999997	-4.53977085818	3.5417370192080004
O	-1.0046730476399999	-4.59253681818	2.5728520792080007
O	-1.21616202864	-3.47422423818	1.8150503992080003
O	0.04952012036000003	-2.9320989981800003	1.5647194692080002
O	0.9929891673600001	-3.03669018818	0.39457798920800036
O	2.0798025473600004	-2.5487607381800004	0.8884450592080002
O	3.09656240736	-1.82643434818	0.5216049492080002
O	1.12925908736	0.66604398182	0.2066754692080004
O	1.98795970736	1.49583485182	0.7776242692080002
O	0.9858429673600001	1.02715095282	-1.2041872337919997
O	1.3440624573600002	-0.29933593318	-1.1319471287919995
O	2.55197175736	-0.12708092317999997	-1.3911090147919996
O	2.4817035573600004	-1.0191024681799998	-2.5061519177919998
O	2.33559341736	-2.3309076181800004	-2.4145346557919996
O	2.3482804073600003	-3.07026373818	-3.5284007607919996
O	2.9055830573600003	-2.5044218381800003	-4.597015010791999
O	3.41190361736	-1.29736243818	-4.631510020792
O	2.94238851736	-0.5177783681799999	-3.6426272607919996
O	-0.11424141263999998	0.89967195982	-2.0434669837919994
O	-1.22556137364	1.25417899282	-1.7716492587919996
O	-0.15374517963999995	-0.29981850118000003	-2.7152574707919994
O	-0.80388595664	-1.0567891781799998	-3.5979534607919996
O	0.06281501036000003	-0.8251215681799999	-4.639702200792
O	-0.08874188063999994	-1.62004161818	-5.696252880791999
O	0.7806492773600001	-1.3615681581799999	-6.711674560792
O	1.3235667473600001	-0.08441754118	-6.8492871607920005
O	1.0571787373600001	0.9434803838200001	-5.949394260791999
O	0.16171016036000008	0.48091874682	-4.987728900792
O	-0.13594308264	-2.86804003818	-5.258972200792
O	9.74761545736	3.06651991182	7.836615559207999
O	6.01703380736	3.53801132182	7.265766259208
O	4.426075197359999	6.81914470182	6.275341989208
O	2.17176309736	5.8093596218200005	3.6243123892080003
O	-0.12226708363999994	8.15020066182	1.7114488292080003
O	2.2416692673600003	5.010643341820001	-1.6218340750919995
O	6.88685170736	5.87821356182	-4.1997125507919995
O	9.31414452736	5.30318578182	-1.5214376089919996
O	10.52148975736	1.68827494182	-1.4340125957919996
O	7.0894699673599995	-1.53624503818	-10.258155400792
O	2.2221858673600003	-5.31135103818	-7.253531530791999
O	-0.5234660796399999	-7.6810384981799995	-6.304606150791999
O	7.8223166073599995	-6.725504518179999	-9.485421720791999
O	10.96344725736	-6.86667963818	-2.1735885547919995
O	8.71711206736	-4.61184889818	-0.3558396207919996
O	6.92725007736	-5.99191407818	2.5893070492080006
O	8.239951957359999	-3.03561603818	4.687336309208
O	10.11144195736	0.13370741182	4.2737026192080005
O	7.746362277359999	2.7616796518199997	3.065611259208
O	7.860596297359999	6.427824671820001	2.6165855292080002
O	5.48603515736	7.23483100182	-0.18212150079199962
O	4.23299029736	10.62620792182	-1.5088838636919997
O	9.04029464736	12.13600312182	-0.25694818079199955
O	6.00729569736	12.83030372182	1.9712349792080004
O	-11.64961424264	6.2935186318200005	-2.7337511407919997
O	-7.968924292640001	6.73091726182	-1.6672917937919995
O	-7.09832662264	7.87264872182	1.7782865592080004
O	-4.3540125426400005	5.47582948182	2.6410131092080005
O	-2.3578561426399998	5.76338934182	5.842585899208
O	-3.6278549126399997	0.76183459682	4.480882179208001
O	-8.098052342639999	-1.99001722818	6.715793539208001
O	-10.40266857264	-0.6392288691799999	4.112904589208
O	-10.74588754264	-2.5053289481800003	0.8619998292080004
O	-6.52945614264	-13.08205797818	2.0913289392080006
O	-4.82294354264	-9.71721641818	1.9399009792080002
O	1.6464782973600003	-6.763722298179999	-0.44695964079199957
O	4.43789531736	-6.4712761381799995	-2.6946036907919995
O	3.6998105673600006	-9.11724197818	-5.247061470792
O	1.5461319373600002	-11.21998687818	-3.1075936007919998
O	-2.03228178264	-11.62714067818	-1.9747909037919995
O	-5.60595663264	-11.41288137818	-3.1343462107919997
O	-8.77238449264	-13.05888117818	-1.8893577007919995
O	-8.94621908264	-4.269059288179999	-6.143568610792
O	-8.41362445264	-1.59683818818	-8.726544160791999
O	-8.89994156264	1.14070891682	-6.132378670791999
O	-11.21668494264	1.81115895182	-3.2868608407919995
O	-9.03914923264	2.21388114182	-0.20829707079199955
O	-9.80852014264	3.87134799182	2.9939931492080007
O	-7.43092114264	2.38350710182	5.536430029208001
O	-6.6566955426400005	3.49822170182	9.037117289208
