37

O	21.186264077752096	-2.371010496920445	21.956654149561565
O	22.396123031800396	-2.657144727736117	21.320684260596686
O	22.327724518098986	-3.345835541787264	20.165699276401952
O	21.148079133852363	-3.363324913850109	19.472098709604484
O	19.962058260666097	-3.0560588136118714	20.05866915778231
O	20.096758427390526	-2.2326523328821493	21.148848690874562
O	18.737049909278184	-3.2323475538431197	19.212668596441688
O	21.169880408932848	-3.7738481908354577	18.106951427402176
O	20.182644177599194	-3.195790867383622	17.30134550617846
O	20.448222046968013	-2.623852169803218	16.098262358401797
O	20.175934614263497	-3.324433447394627	14.842842022845854
O	21.97450947406427	-2.78349827843427	16.058088006257154
O	22.049349539151436	-1.675686456058282	17.05394628601968
O	21.74748177113082	-0.4361813599624498	16.4015584535636
O	21.539167875689902	0.6638343395818918	17.21939237757125
O	20.077790771890005	0.6429514023194043	17.41770860250484
O	19.364766911788227	-0.1781388115945457	16.109162586959947
O	20.8472504918275	-0.6243296945463512	15.317546980885538
O	20.716886257448458	-4.616709017365582	15.376834739029547
O	19.74007223281803	-5.138501835188714	16.132911260944883
O	19.82815015817332	-6.496393754064745	16.22836049338963
O	20.529945277999815	-7.305787180623154	15.342751474648702
O	21.460349544498847	-6.666555897608887	14.616494338744213
O	21.59124844209507	-5.307737087110747	14.694037516019439
O	22.06286606100605	-2.4614700631677864	14.774223948416322
O	23.294138139613523	-1.5579299711898669	17.35201367845274
O	19.662758392995034	-0.2976598130297372	18.416131484400132
O	19.93119496186364	1.9339864325983165	18.026051268239453
O	21.85165648092331	0.48986634057493483	18.62102270297622
O	21.27893721905357	1.2828724962496227	19.71510141343706
O	21.680109186615574	1.3909510030788252	21.044331235353617
O	21.77006236971562	-0.6290362308032045	19.036926218191816
O	19.135166689375243	-1.3091372349819026	21.346313026956572
O	22.202206005836434	-4.219046483089448	17.614642204410075
O	22.85661439713996	0.44080571368162924	21.28212021635293
O	20.869227900511376	1.0187876251618053	22.2525865322239
O	22.165719748835876	2.6856055403062484	21.71301363126921
