102

O	1.549511984	-0.7057228615849049	-3.3624434773037737
O	2.252143214	-0.814922598584905	-2.257624565303774
O	1.1876606239999998	1.105255931415095	0.7094746126962261
O	1.2447160139999998	0.501791217415095	-3.987614467303774
O	1.600853894	-0.044409225584904954	-5.099001577303774
O	2.837241744	-1.8882298585849049	-1.5615693493037737
O	1.197084754	0.29542281991509506	1.9353659226962263
O	2.426013304	-3.1191143985849052	-2.1169539033037736
O	2.113261494	-0.7899997985849049	1.4504070826962263
O	-1.2977091920000001	-3.520270238584905	-5.088427307303774
O	3.3776490939999997	-0.20300679258490495	1.4831702526962263
O	2.001609724	-2.107680458584905	1.5244440026962265
O	2.144701094	-3.202151148584905	-3.4738498073037736
O	1.978296394	-4.002169758584905	-1.3645695993037736
O	4.394139054	-1.0309141885849051	1.2100323126962265
O	3.021729774	-2.989334098584905	1.4941689926962265
O	4.229022294	-2.380392848584905	1.3179986526962264
O	0.2677231339999999	-0.6907240355849049	-0.004018437303773714
O	1.872634434	0.08463297341509504	-1.2258509403037738
O	-0.06629333999999998	1.828639311415095	-5.560589137303774
O	1.5087978839999998	1.143654329415095	-1.9237307153037737
O	0.1795957239999999	1.4295758314150953	-4.2774096873037735
O	2.196543744	0.7659116634150951	-0.12391912730377364
O	-0.35952434600000005	1.675022431415095	-0.6523465173037737
O	-0.9452285888	1.8311138914150948	-3.636688587303774
O	-2.415405576	-1.293954978584905	-1.7434935424037736
O	-0.792079293	-3.607745408584905	-3.701395367303774
O	-0.9734367401	-1.475598428584905	-3.824150437303774
O	-2.145373236	1.4038631114150952	-4.1068989273037735
O	-2.1882693360000003	0.9706010844150951	-5.398519287303774
O	-2.869870026	-0.059355638584904946	-5.925662187303773
O	-2.856422846	-0.476581814584905	-7.206989347303773
O	-1.7036229299999999	-0.20755115358490495	-7.897254307303774
O	-1.8259359270000002	-2.4466248685849052	-0.8991278393037737
O	-1.079001447	0.958428632415095	-7.462130447303774
O	-1.229714959	1.4926750114150948	-6.193422247303774
O	-0.11296609099999999	0.5893036054150951	0.0335443226962262
O	-0.578040842	-2.2581739185849052	-5.616892287303774
O	-0.014076103000000062	-1.860397178584905	-0.5203635773037738
O	-0.471798733	-1.9517188085849049	-1.7289524931037736
O	-2.657759806	-3.401753218584905	-5.705331447303774
O	-1.19852551	-0.566086510584905	-1.6407954493037737
O	-0.67910213	-4.177214688584905	-6.330893677303774
O	-3.078780156	-1.5197365885849048	-3.0701489973037734
O	-3.516844406	-2.938488958584905	-2.6775931013037737
O	-3.089370856	-4.081797738584905	-2.1639321223037737
O	-2.217683276	-3.711603798584905	-0.9686186523037738
O	-1.1840632819999999	-2.043441758584905	0.36386467269622647
O	-0.753457473	-2.356595358584905	-2.9892603873037737
O	-3.145908876	10.622335251415095	6.7139681826962265
O	-2.758611126	6.936680101415095	7.400933692696227
O	-5.677238996	4.529076181415095	7.858099792696227
O	-4.653172956000001	1.6833795514150949	5.6334832726962265
O	-6.766543306	-1.430576308584905	5.556143332696227
O	-5.217327376	0.15697220441509505	0.6327830926962263
O	-7.840792446	3.366901291415095	-2.7972001773037736
O	-7.349471926	6.608514601415095	-1.1391158813037738
O	-4.348487286	8.612462421415096	-2.3833644573037738
O	-2.868065846	4.749485091415095	-13.801664957303775
O	-2.677742046	2.8665142914150947	-10.566955087303775
O	2.5828844539999998	-0.053583730584904954	-7.816408367303773
O	5.712951364	-1.8374562985849052	-7.040335497303773
O	7.4095563339999995	-2.904887648584905	-10.139986227303774
O	2.091945484	1.3694107714150952	-12.898526957303774
O	2.038239014	4.942114221415095	-11.718367797303774
O	0.1538278740000001	8.051844981415096	-12.977153557303774
O	3.4040749339999996	10.292580051415095	-5.7290523473037736
O	2.422070314	8.379227551415095	-2.7135994313037735
O	4.883183394	7.701800411415095	0.09561852269622628
O	2.311747044	9.105179001415095	2.5674620926962266
O	-1.307120668	10.271895651415095	2.516238682696226
O	-3.426427546	7.137045871415095	2.7569465526962267
O	-7.052627996	6.511833581415095	3.4352347526962266
O	-7.912465636	3.241826181415095	1.7422286326962262
O	-10.985985086	1.053393695415095	2.0115972526962267
O	-13.169603886	3.1247444614150948	-0.32540129730377365
O	-13.451907386	5.731959791415095	2.368392372696227
O	-12.775176386	3.532257801415095	5.419525892696226
O	-2.554431866	-13.409745848584905	4.529005192696227
O	-3.930274996	-9.793624048584904	4.473391422696227
O	-4.402465596	-7.840857418584905	7.662013662696226
O	-2.8250084060000002	-4.545224468584905	6.703640322696226
O	-2.849564006	-1.599276648584905	9.098513142696225
O	1.829327154	-2.1781608285849052	6.5597996926962265
O	6.164753914	-4.716326848584905	8.475652742696226
O	5.039937154	-8.217478958584906	7.6964028526962265
O	6.088197434	-9.322640668584905	4.277725422696227
O	11.210146314	-2.1496474885849053	1.1098571426962265
O	5.955906664	1.9480821814150953	-1.8574304402037738
O	4.229415304	3.783927971415095	-4.766473257303773
O	6.245082824	2.679867191415095	-7.740973727303773
O	9.351997714	1.8203983414150953	-5.962282607303774
O	11.174081114	-0.8739602385849049	-4.033555587303773
O	11.823531814	-4.552291338584905	-3.916265857303774
O	14.580300414	-6.553108678584905	-2.3188604813037736
O	5.673260324	-10.047150348584905	-3.002183307303774
O	2.445308714	-11.122132448584905	-4.620152947303774
O	0.6805502640000001	-11.427655048584905	-1.1626990353037736
O	1.3439978039999998	-12.385253448584905	2.3899721326962267
O	0.951420994	-9.111276658584906	4.371370782696227
O	0.445560924	-9.039036808584905	8.091843212696226
O	1.703164594	-5.700358468584905	9.280165442696225
