55

O	20.43789887065542	-0.7641621240942044	20.670359578786545
O	20.261147314106946	0.19264035589621809	19.724323338167974
O	18.91484427878322	0.26230205893491	21.926213629209432
O	21.864046393360134	-1.1033891183481628	20.616361959565978
O	20.407455357352728	-4.205371028058546	21.055934247461884
O	20.405257032733992	-6.095039571718341	15.18659403714124
O	21.263734102159138	-2.132561907251748	19.922902207628038
O	22.325767906339543	-3.5053345775385947	22.12648916320703
O	22.312861846901985	0.8672734120649107	20.232026532856302
O	20.428829967507834	-3.068179752570095	20.350712995880016
O	20.131816566556317	-3.1344823817138043	23.023638674922893
O	19.699635118706205	2.979867029515333	21.541837815076946
O	20.969494487757007	-4.013468624738919	22.23111531103971
O	21.081007787135952	0.531605618280191	22.53271751048082
O	18.44531148833022	-2.158757175780971	18.083483351080233
O	20.056201655827913	-0.1505564108576104	21.87656284703343
O	21.256775646035187	1.0924132605846482	17.436663354819068
O	20.564388798960294	-0.7742096397447944	17.11326120841956
O	21.384453507389605	-5.639312127781231	15.776085438775102
O	21.28372280176245	3.4716154471865215	20.12532197890397
O	23.11250045960314	0.21582089020362283	18.134903407491414
O	21.646277060543806	-6.8809255903949404	16.443806826189125
O	20.67598573464297	-3.796716147875424	16.580586582312925
O	19.402355915928954	-3.9838411632160478	14.925414608509893
O	21.018250246141747	1.8805296263815356	18.51042194326546
O	19.280533816715128	-1.6326617110849768	16.13590750717097
O	20.504801554947658	-2.1346450466559936	13.313613826204904
O	21.254779382310844	1.0389581972883941	19.597932286660594
O	22.061194732562228	-4.483269089929944	15.32779218681791
O	19.66000263316537	2.3318894571989044	18.330446865582417
O	19.108137473602596	2.1681608398348415	19.59922992320824
O	20.114596056867295	2.805164778597813	20.451401936068827
O	19.88128825960937	-3.457203745140824	17.52379579417838
O	19.484210420877567	-2.1930081586270496	17.506626160121208
O	18.68805508042925	-4.150575744285307	16.770425885007285
O	19.098754262513417	-4.921799253736763	17.85526705503043
O	17.6515797505105	-3.210877832307994	16.59785827426032
O	18.00666822641347	-4.4773639613478355	18.660056518450656
O	19.268803921659433	-0.28526378071371516	16.629846877849094
O	18.417283467437528	-0.2032075088408145	17.678384366484593
O	18.28692086706964	-0.8845467385892133	18.946369401946264
O	17.67067171866994	-1.7180754696786034	19.90334089971399
O	17.649355067447054	-2.4617644075318283	21.050717135564184
O	20.471411528033464	-0.06402879336464773	15.992620347253075
O	21.689416904380636	-0.9360532304088357	15.762301611358158
O	22.080249264202894	-1.3048260960852303	17.072043484878307
O	23.12548651008462	-2.121121214107483	17.259727697842784
O	22.953321566609706	-2.904612839955606	18.477554875897795
O	23.060184205268435	-4.27648728413279	18.295651767530796
O	22.26120183049069	-5.166698878362553	18.951860912237425
O	22.12618989360444	0.06940764551850342	17.518171000120983
O	21.564815900986325	-3.414628286881581	14.679439999429835
O	20.286425505172325	-3.3121473534816346	15.314298508831666
O	21.250085787719208	-3.271094125732764	13.333928048764363
O	20.57332907432285	-4.592378972401285	13.169796389931781
