41

O	19.726726733713	-1.3705701591135824	17.432766359866932
O	19.666641964820442	-2.170932135921202	16.069454740385115
O	20.94715114260813	-3.0104219499381406	16.46000937508402
O	21.976073586233127	-2.5190732373405744	15.741667680506104
O	21.707788382318483	-1.1300936636513905	15.473009698768802
O	20.66694380519793	-0.2060466954934519	15.764274632967778
O	20.004758980797156	-0.08185585635354742	17.038597152088393
O	19.217405286933012	-1.0715081636551778	18.65300696096004
O	19.87767579613911	-0.629545474104233	19.81917993824581
O	20.250543005309538	-1.311659853593582	20.89777150517979
O	20.089112754719004	-0.8506233799659224	22.17571319400976
O	20.674926672946587	0.41508859419834354	22.303546025392272
O	20.225567492610516	1.2705707964292459	21.34781454427803
O	20.031931270122048	0.6901769259210815	20.125679110055092
O	18.41955527430488	-2.514491742453047	15.587488608439008
O	20.580116287133823	-3.646228779060297	14.291115418319869
O	20.55056445239601	-4.773389678163083	15.063970019650103
O	19.34312980184659	-5.342495632091641	15.275534821114132
O	19.25346745204324	-6.503994454073457	15.95662272960612
O	19.99308312756965	-7.489384081166179	15.303578831877726
O	21.169255925588992	-7.063942020850741	14.796171125141626
O	21.470739206368144	-5.73312448123383	14.848500612755045
O	20.96351562269844	-3.819069670217751	17.569226853846814
O	19.677337329105377	-3.7623113143010958	18.255735028395765
O	19.856117384366808	-4.009645104766115	19.581647522709062
O	18.783161312260404	-3.9756121436672793	20.43097391019701
O	17.56838959194124	-3.648146140872004	19.90706773807287
O	17.395168727722194	-4.3742599361045915	18.716850202904283
O	18.410268282201503	-4.010555789597972	17.84578118308601
O	21.98447443821193	-0.8017958177433917	14.176489956442673
O	21.07121893268776	1.0275350672837078	15.564996553833005
O	21.106004131459972	0.2781461343654803	17.887153447763872
O	22.02542718161164	-0.7152143930150571	17.561892182324605
O	22.71318086851815	-1.1950628213755186	18.5778420340385
O	23.33081491173953	-2.367774915081196	18.82802178527468
O	23.17165948907541	-2.7894547701386907	20.149627456096695
O	23.5089172544864	-1.87663012241318	21.108086855479733
O	23.515962607098388	-0.5598134358168698	20.77810584961278
O	23.11357610080362	-0.23428822807811978	19.516115602740058
O	19.63841815456794	-1.398783816575985	14.709552028743927
O	21.804892902704356	-3.1287332169934277	14.43680307310423
