104

O	-3.888940528462964	-1.4894181976481484	-1.8243786199092589
O	-3.8875411984629635	-1.2616460376481484	-0.6403692081092589
O	-4.480481128462964	-2.8710669376481484	-0.7549532025092589
O	-5.504087538462963	-2.5765867676481484	-2.1987460599092588
O	-4.944970548462964	-1.4603031476481483	-2.796562559909259
O	-3.1774277684629637	-0.14909238064814828	-0.13504278790925894
O	-2.4265530864629636	0.4252764681518517	-0.984704919909259
O	-1.3580114014629636	0.9985711053518518	-0.536135696909259
O	-0.9455407274629637	1.1136955283518517	0.7388631700907411
O	0.2767753115370364	0.8479039423518517	1.183184190090741
O	1.1436043615370362	0.6388598043518516	0.1177229530907411
O	0.35730005153703637	-0.39414082664814826	-0.5505649959092589
O	-0.07774404846296368	-1.0873780676481484	0.559503440090741
O	-1.1175538594629637	-2.1449919176481482	-1.2594793569092588
O	-1.5725758274629638	-3.3359522776481483	-1.899054609909259
O	-1.3963476194629636	-2.790178777648148	-3.160760879909259
O	-2.3652494374629636	-2.6660049276481486	-4.101944119909259
O	-1.4739094394629637	2.0892277523518517	-0.953271871909259
O	1.1049429715370365	1.4977126323518517	2.140031050090741
O	-0.016374418462963725	2.2170714723518516	2.682268690090741
O	-0.7694097684629637	1.5913129023518517	3.522744690090741
O	-1.9300383184629637	2.202495082351852	3.883095750090741
O	-2.671898488462964	2.448802502351852	2.767585220090741
O	-1.9776594304629638	3.239925472351852	1.9362200100907412
O	-0.6521569184629636	3.0088129923518516	1.849324730090741
O	0.7870653515370365	1.5125056923518516	-0.932079865909259
O	0.16357260153703623	-1.1906878376481485	1.937774180090741
O	-1.2639764264629636	-1.3569330976481484	2.203510860090741
O	-1.9169287164629636	-0.7107995876481483	3.072550470090741
O	-3.2492591984629637	-0.5784333476481485	2.996496940090741
O	-3.9202492584629636	-1.6286112276481481	2.507312200090741
O	-3.1612646684629637	-2.6931740176481482	2.194572220090741
O	-1.9348744084629637	-2.391400607648148	1.778469650090741
O	-0.9616975734629637	-1.9877029076481483	0.051566843090741
O	0.05654148153703642	-1.9633139376481483	-1.740310099909259
O	-0.7699563104629636	-4.254199247648148	-1.1020061149092588
O	-1.2425447094629636	-4.1924038876481475	0.2615281200907411
O	0.4005367815370362	-3.693686707648148	-0.23389159390925895
O	-1.9976750934629637	-2.236347447648148	-5.3651731799092595
O	-0.9598457064629636	-1.2779922676481483	-5.325075739909259
O	-3.157325738462964	-3.5196964776481483	-4.016750529909259
O	-1.2553400044629637	-0.5613777976481484	-3.971415689909259
O	-0.6525870084629637	0.5523033987518517	-3.6263288099092588
O	-1.8998241494629637	1.7455111623518516	-3.900012259909259
O	-3.1439801884629635	0.7192967493518516	-3.8099590999092587
O	-2.4677152554629638	-0.40027345664814834	-3.683144119909259
O	-4.328127598462964	0.7185639533518517	-4.63043002990926
O	-4.491352578462964	2.062377052351852	-5.08912787990926
O	-4.618379408462964	-0.28135645064814835	-5.653381799909258
O	-2.631148594462964	-2.8163302576481484	-6.43618786990926
O	9.220887281537035	8.949294822351852	-2.477657149909259
O	8.688318881537036	6.073293862351852	-0.06680902190925897
O	10.330749181537037	2.652927992351852	-0.4106050879092589
O	7.467490681537035	0.3601631672518517	0.08922390009074099
O	7.882083481537037	-3.4144417476481483	0.10712545109074101
O	3.5777272015370363	-1.9032269176481482	-2.728198539909259
O	3.4657509815370364	-1.0887779176481485	-8.05059398990926
O	5.027174151537037	2.170862482351852	-8.17648391990926
O	2.568551061537036	5.063662022351852	-8.054237099909258
O	-7.519402458462964	0.3732748517518517	-12.585726419909259
O	-5.674272178462964	-0.46780194464814834	-9.391244459909258
O	-7.521753148462964	0.18625480335185168	-3.283783719909259
O	-9.226507128462963	0.4306479913518517	-0.09517793290925891
O	-12.892253918462963	-0.17014439964814826	-0.641991992809259
O	-10.645960818462964	0.1650000723518517	-7.54484107990926
O	-9.136535968462963	3.4818538123518517	-8.573133539909259
O	-8.151702448462963	4.877474432351852	-12.00613111990926
O	-4.364885078462963	9.613508192351851	-6.416608019909258
O	-1.8928004464629637	8.178149052351852	-4.095150299909259
O	-1.4737488394629636	9.394875602351853	-0.554600357909259
O	2.3222535615370363	9.712371712351851	-1.174340351909259
O	4.786116821537036	8.811398042351852	-3.875427789909259
O	5.631779101537036	5.157731562351852	-3.526748159909259
O	8.297015681537037	2.9957125923518517	-5.029897049909259
O	6.893485171537036	-0.5075043086481483	-5.085072839909259
O	8.460042381537036	-3.8441109876481483	-5.812343639909258
O	8.586222481537035	-3.4972216476481486	-9.602195179909259
O	11.373122881537036	-0.9844332076481483	-9.249820649909259
O	12.717269281537035	-2.1065123676481483	-5.856645179909259
O	7.414294011537037	-10.557653087648148	1.1502464300907411
O	1.8068826115370364	-11.911422887648149	7.084749550090741
O	3.4073972115370363	-9.321049437648147	4.67497273009074
O	6.516935241537037	-7.465675647648148	5.716823540090742
O	5.507413921537037	-3.956453477648148	4.623917970090741
O	8.095878241537037	-1.1230189576481484	4.934624410090741
O	3.123296901537036	0.3750624850518517	6.502075710090741
O	1.3049829515370361	0.3153916293518517	11.621485180090742
O	0.5951618415370361	-3.418605387648148	11.83694808009074
O	-2.8708830984629636	-4.391249617648148	10.646785180090742
O	-6.873365438462963	3.9708349923518518	8.61778433009074
O	-4.9946669984629635	4.385174352351852	1.3791481000907408
O	-5.4617285984629635	4.691662102351852	-2.1815677199092587
O	-9.188542138462964	4.369464322351852	-2.405255039909259
O	-10.049125488462963	5.402724272351852	1.004331120090741
O	-10.311268028462965	4.2168682123518515	4.583061430090741
O	-11.429448788462963	1.4051300123518518	6.75618938009074
O	-12.493896118462963	1.2151317213518518	10.392517280090741
O	-8.099496028462964	-6.203759707648148	5.715051400090742
O	-7.398348718462963	-8.652360317648148	2.921866050090741
O	-3.8784348284629635	-9.199853177648148	4.321066260090742
O	-2.013844802462964	-9.489956337648147	7.600244210090741
O	0.48384823153703627	-6.564552247648148	7.454635400090741
O	3.573198551537036	-6.216513147648148	9.542675380090742
O	4.437541521537036	-2.5396022876481483	9.674738880090741
