40

O	24.12274395242708	-3.1440892793872766	19.410528443860944
O	20.478491245415622	-5.627992409427693	16.166723083768805
O	19.477405150342143	-4.804898762188637	15.65739117578472
O	19.797521468848206	-3.604915983915033	14.964495759009273
O	21.093721768489072	-3.49141966883183	14.615088816465091
O	21.451501244955345	-4.701340188121533	14.1046908885495
O	21.48316239666148	-5.662051373659425	15.107975829653839
O	21.75911288583668	-1.9534877934860013	14.610765309361435
O	22.879001312827686	-2.0388970319707824	13.731902696588005
O	20.81617580543353	-0.9773576856661209	14.110142658140953
O	22.12848643696009	-2.1850922791350125	16.161446879735472
O	22.514640094744223	-3.3171196213792475	16.884543042242065
O	23.482028546295762	-2.6758449923436722	20.932542937317947
O	22.24729157820336	-3.170510555670227	20.67666509146287
O	22.73780891254486	-3.34386837326794	18.35699235649804
O	23.197367953305214	-1.3792826640788338	16.3315347730332
O	23.049643238890237	-1.2845860946325738	17.744015529305226
O	21.947552667345665	-3.543358047722408	19.433700744926455
O	23.929747467322976	-0.5428071154945195	18.37243314336463
O	21.718273179343985	-0.7483556842001508	17.690762824629562
O	21.731210435824398	-0.5413532669712116	18.937756449845647
O	22.462628890942714	0.28526174673386806	19.77521559430244
O	21.60460831440201	0.13318174758512047	21.027343894351205
O	22.151174819383815	1.4024056094227064	19.221335207943213
O	20.46841802345933	-0.2829827952288064	20.548868705371937
O	20.014112579972554	0.8312561605216238	19.645972444278726
O	19.27650508283854	-1.0166005759303856	20.82850928289952
O	20.63243764985773	-0.7779186766872579	16.92368183754991
O	18.485144054324845	-1.4328224411587394	17.137167157419377
O	17.491186242292713	-2.372436906042491	17.12154264729942
O	17.546252196877745	-3.405891417496044	17.967170035740537
O	18.732008824647355	-3.715128376671019	18.51747392587995
O	19.70982324517382	-2.8874004774076516	18.127083311114482
O	19.742048736292865	-1.7326387580198626	17.511622331924244
O	22.00296321576437	-6.926053469340116	15.256297644285228
O	20.904386815830748	-5.748467874817887	17.462050886736293
O	19.170954287684385	-0.1856696175989443	21.862465239308012
O	18.257074989159943	-0.9912272786632763	20.025570819974682
O	19.507809446252992	-2.296122024652133	21.014556908489304
O	19.049449773748947	-2.5906523924600227	14.572083134068796
