38

O	22.53922347961553	-5.471869053520468	17.4603014056121
O	21.496994379525955	-5.360381741760194	16.476340623055247
O	21.778495870722562	-5.287655724055987	15.101674662671313
O	21.350231472814535	-4.160051066016456	14.332411794314325
O	20.62692093143166	-3.167734961887972	14.929520064762476
O	19.794822698490908	-3.8753909507203224	15.730245958768606
O	20.201792981725173	-4.935712008490367	16.566807276602972
O	20.883004860618005	-1.5145739292653941	15.160889418455405
O	20.120412655048106	-0.5363211338489273	14.406155732341354
O	22.226936969882008	-1.219151811219628	14.662548063827426
O	20.995385668593073	-0.8299108698454063	16.670363698242898
O	20.139246124875264	0.19056197661553043	16.78921574015496
O	18.839818937433122	-0.20803121489983112	16.376335668326956
O	18.382757139654053	0.29375942225589724	17.7089471087294
O	18.256973564521726	-1.4367515366933934	16.016217033821594
O	22.145299484292348	-0.7288850635729591	17.31930519846801
O	22.734872812288376	-2.0398093899369636	17.6882575446086
O	22.631691684253543	-2.659303224819066	16.57472956138321
O	21.785678406073586	-2.5584572430647983	18.684652839779943
O	21.766188157832158	-1.5768767538612196	19.72124946652257
O	22.388270915748535	-0.33246220603726406	19.633542520095574
O	23.610867148450264	-0.4267139036109586	19.590768927947597
O	21.567776195108124	0.7439221256764403	19.452614909203774
O	22.208918990965216	1.9496421767994934	19.043410155043073
O	21.071988265148573	2.6769179405101573	18.442809876567615
O	20.081994743513583	2.3304060680976963	19.317599867603676
O	20.665184343280032	2.5596845994456423	20.517608627040534
O	20.304649806752273	1.318934870976982	21.097973000626713
O	21.28208630754164	0.8355202069070871	21.882243825880877
O	22.53122213538337	1.403001784120718	21.324115961424013
O	22.144315885488112	2.565360437190214	20.48286515335715
O	20.562272215717442	-2.337878160107709	17.928580817397922
O	18.43731701200961	-2.9989009105691395	18.63363838349787
O	17.229351705840127	-2.5157044128469632	19.049881152592594
O	17.312296683428468	-1.737887319594832	20.19483446914156
O	18.48189663320299	-1.3080245963190427	20.746449959878717
O	19.60441503092988	-1.6054815731181877	20.05166558191918
O	19.54437091592416	-2.292822970549781	18.897824087650573
