84

O	-0.026599925363636756	-4.111234674318182	3.952859343181819
O	-1.447855957363637	-3.7913463943181815	4.094105203181819
O	0.2783680836363631	-4.466723794318182	5.1509824131818185
O	0.9103268236363633	-3.4442929243181815	3.092085333181818
O	1.6256262736363631	-3.7939058843181814	1.9599655831818186
O	2.0689654836363633	-2.8940256143181817	0.9565738631818186
O	1.712023783636363	-1.7137037743181815	0.9068576431818185
O	1.352078893636363	-1.2200270573181817	2.062192153181819
O	1.1531725136363633	-2.073577694318182	3.2154187831818186
O	1.8241717436363631	-0.6819372433181816	-0.3909944308181815
O	2.185343393636363	-0.5251731383181817	-1.7508535868181816
O	3.2168915736363637	-1.0400181103181816	-0.6174868210981815
O	0.2502496536363632	-0.39809728501818165	-0.4947680858181815
O	-0.25849773536363685	0.015469625681818366	-1.6775369768181816
O	-1.6808977093636368	-0.21004534531818167	-1.7553242968181815
O	-2.3344636663636367	0.8161546556818184	-0.9723042148181815
O	-2.321829726363637	-1.0972495133181817	-2.6380837368181815
O	-0.5779377313636368	-1.4203744743181816	-0.31236374281818147
O	-1.8816871263636368	-1.5372140443181816	0.1252420281818185
O	-3.0196947963636367	-2.0672794943181816	0.11826712318181853
O	-1.6043691023636368	-1.9460922543181816	1.5015882431818184
O	-1.1598790523636369	-3.1528218543181814	1.0601571131818186
O	-0.8947454601636368	-3.746278624318182	-0.18162292181818152
O	-1.5053226563636368	-3.345555744318182	-1.1815965578181815
O	0.27835962363636324	-4.291632574318182	-0.6468245028181815
O	0.9958624836363632	-3.5206424343181815	-1.5046200488181816
O	0.07528153863636322	-2.9762799643181816	-2.4875936468181816
O	1.1106384536363632	-2.552119924318182	-3.0256243568181818
O	2.250475563636363	-3.3026164743181816	-3.1637881868181816
O	2.946057263636363	-3.0905266543181815	-2.0304210968181815
O	3.5489190536363635	-4.183486304318182	-1.7304015368181815
O	2.4091850836363635	-5.039210414318181	-1.4360887998181815
O	1.5361606236363634	-4.5408337243181816	-2.5156650168181818
O	-0.9297106982636368	-0.5469408113181816	1.4460367131818186
O	-3.012365706363637	0.2591885276818184	2.0961307931818185
O	-3.5888761663636366	1.1340489556818183	3.0227676931818186
O	-3.4582927963636365	0.7871812556818183	4.330516823181819
O	-2.319894816363637	0.11832004668181834	4.668376243181819
O	-1.6121147643636369	-0.5347378093181816	3.692646623181819
O	-1.7570026933636367	-0.03898278531818167	2.439704493181819
O	12.100569243636363	0.4855342996818183	1.5450007131818186
O	9.369092243636363	1.8364612256818185	-0.6980625048181814
O	8.356138323636362	5.456948325681818	-0.9422720048181815
O	4.688961953636364	5.3108430456818185	-0.7732645778181815
O	2.1904776336363634	8.071033375681818	-0.9172032628181814
O	0.9577667836363633	4.417566155681818	2.650410633181819
O	2.140025153636363	4.967429275681819	8.105947023181818
O	5.587742453636364	3.620437965681818	7.900552063181819
O	5.605164573636364	-0.17197287631818167	8.344539483181817
O	-3.6766350863636372	-1.6380433243181816	11.601181563181818
O	-5.477792536363636	-4.632754334318181	5.966692753181818
O	-7.223403756363637	-6.526849314318182	3.2573214431818185
O	3.726858013636363	-8.583671564318182	8.621785533181818
O	4.129824633636363	-6.266203984318182	5.837917033181819
O	4.6858852336363634	-7.524884564318182	2.3816697731818186
O	7.588028513636364	-4.900235574318182	2.251233943181819
O	9.174362343636362	-2.0977226543181815	3.9647626131818186
O	7.280639993636364	1.0506838956818183	3.3193925231818184
O	7.857717473636364	4.664311645681819	4.062407063181818
O	4.435869763636363	6.1684364256818185	4.394459503181818
O	3.252381883636364	9.733545035681818	4.625750473181819
O	7.715013763636363	10.236299635681817	7.42006453318182
O	-5.698840706363637	8.585058825681818	-4.261498476818182
O	-2.4128740963636366	9.108271425681817	-6.117883906818181
O	-0.4408467403636368	6.039302935681818	-4.854810356818181
O	3.2862679136363635	5.771041615681819	-5.722963476818181
O	0.6619688336363632	1.0214867956818183	-6.132764216818181
O	-1.779953895363637	-1.0422764963181816	-10.608086716818182
O	-4.8523021763636365	1.1743906656818184	-10.569922996818182
O	-6.836864346363637	-11.581298364318183	-7.310456626818182
O	-4.944018126363637	-8.735799524318182	-5.807338886818181
O	-1.3240959463636368	-7.230716674318182	0.7997241031818185
O	-1.0269806833636368	-6.902546264318182	4.436683323181819
O	-3.919963726363637	-8.919406684318183	5.374564103181819
O	-4.388595966363637	-10.963377364318182	2.2823061131818188
O	-6.150431776363637	-10.751765764318183	-1.0986306128181815
O	-9.384572446363638	-9.675523934318182	-2.7716053068181816
O	-11.994855756363638	-1.5340424243181816	-2.4853354268181818
O	-12.822222456363637	1.2663475556818184	-0.10921993781818151
O	-10.795792196363637	3.7866099456818185	-2.1504954168181816
O	-6.372006976363637	4.161831395681818	-6.299148076818181
O	-4.242458956363637	5.557076105681818	-9.079951026818183
O	-1.1270095263636368	3.3403364256818184	-9.297950256818183
O	2.101761153636363	3.8478076856818184	-11.135502236818182
