51

O	19.474198457958007	-5.180297244849919	13.34721154350164
O	21.419240824884064	-8.568106112296666	16.112725442661745
O	21.73768566747729	-7.301197857980066	16.49102384830786
O	20.916896142220175	-6.602470316847775	17.371210192151196
O	19.604689546287908	-6.849903809445557	17.175697034304182
O	19.293606887283985	-7.910555916960973	16.39128859793469
O	20.198520071916807	-8.537871585163392	15.552795635997963
O	20.187445852894108	-1.312619348951558	16.449070078956954
O	21.124549003043658	-1.0417445975141297	15.362102887407943
O	22.284406747282194	-0.7087066928598863	16.03317339342252
O	19.534089232767613	-0.8176510279928398	15.338991741336654
O	19.323115200335693	-2.0244761239113656	17.04325642772195
O	18.729576586633716	-2.779793142473325	17.93695512403928
O	18.265554762056645	-4.021304131583665	17.778803612743765
O	17.835813812316818	-4.722180060617731	18.83983545986381
O	18.19234259953504	-4.3140163465099395	20.075261132908928
O	18.602998349265466	-3.044629743537492	20.28232372118443
O	18.539045044242165	-2.2889084878964825	19.162305962448833
O	20.43173170783087	-0.45041720891146464	17.566343758035234
O	21.65218439750751	-0.05853494778909729	17.867958802862233
O	22.035866779118884	0.8030337138438033	18.849317997089408
O	22.61042937073814	-0.2222320410584142	19.859779006243173
O	23.759868242711946	-0.19587751192871128	19.20542299589426
O	21.498950533242866	-1.148837932188923	19.885616527517243
O	20.389263045870393	-0.1281310822570969	19.869759605502743
O	19.571307023324763	-0.08126520327543263	21.00940389637898
O	19.789857139968355	0.6663185805394658	22.11960064488091
O	20.483993098115818	1.820575446496027	21.913679004742058
O	20.83679192196044	2.031020198954845	20.559281894153887
O	20.81394088965721	1.1213058809457812	19.541023490103395
O	19.907351381904636	0.6909755006257505	17.29640466973846
O	22.95867958915109	-1.7666085147047244	16.46341583302426
O	23.713164560594088	-2.0533711695250245	17.535485326477033
O	23.087784256086707	-3.1519296895349456	18.453418949285687
O	23.355071896756055	-4.057039108426772	17.496826858499553
O	22.755973431545847	-5.213808348348392	17.409505226146052
O	21.452749443681768	-5.387015916893164	17.886187851313178
O	21.120559321505848	-4.357622287479826	18.634307959720573
O	21.78991695004196	-3.2319630559619292	18.76306861216528
O	21.90599952783502	-2.7322710956053147	16.56167464950744
O	21.562331772032433	-3.2794027374212913	15.363478296727278
O	20.510413388893934	-4.215056106849052	15.301249117887211
O	21.763139378853758	-5.4556996284116135	13.767226225446452
O	21.559227462512403	-6.761007665382339	13.060848832354905
O	21.90798171322224	-6.399159840854875	11.6963704950114
O	22.851057910176657	-5.753178929147747	14.268632009588714
O	19.840261873702328	-3.775239469590197	14.024757755317475
O	20.866706504182158	-3.40544287162436	13.139170425959612
O	18.61062110482084	-3.653719607758042	14.679662847461529
O	22.497912173727144	-3.5173109921134524	14.662474435371099
O	20.91822920228268	-5.471327403758492	14.884209522246767
