86

O	4.556212116681818	-1.0580771801590907	-2.1123101923181817
O	4.1193837566818186	-2.0664158301590905	-1.3380227473181818
O	2.8544808366818186	-2.4314127101590906	-1.1456107183181818
O	1.9971961466818182	-2.067091250159091	-2.0377220723181817
O	2.267750786681818	-1.1564525301590907	-2.9006588523181818
O	3.5705339366818185	-0.7923978701590908	-3.0220563123181816
O	0.34202932768181826	-1.9003107901590908	-1.6148316783181818
O	0.13335827368181824	-3.305329290159091	-1.3029321273181818
O	-0.37848323641818177	-1.6562946401590906	-2.817309362318182
O	0.7236659966818182	-1.0566612601590908	-0.28799658931818184
O	0.23533300568181825	-1.8077608501590907	0.7361115476818182
O	-1.1467311433181817	-1.5147705201590904	0.6626802976818181
O	-1.6345528133181817	-0.4415446901590907	1.4774038476818183
O	-1.6888559233181817	-1.4008731801590906	-0.6135852853181818
O	2.1422932566818185	-1.0171816001590908	0.2302036876818182
O	2.9462662566818185	0.17115219984090935	-0.031075179318181823
O	3.9702537366818182	0.7584622658409094	0.3889626276818182
O	2.1992317766818186	0.8890445258409094	-0.8210786503181817
O	2.3972049766818184	1.7855190218409094	-1.6701792113181817
O	1.4789092866818183	2.0542485848409093	-2.687919702318182
O	1.8795457766818184	1.5106389688409094	-3.691424932318182
O	0.3817724346818182	1.4306101218409093	-3.2770547823181815
O	-0.8126737333181817	1.1377223798409095	-2.9071504423181818
O	-1.8587094833181816	2.0322613218409096	-3.1272939623181815
O	-1.1198821833181818	3.2244666998409093	-2.8204060323181817
O	-0.25375285671818176	2.9039894698409094	-1.7616839823181818
O	-0.3936530519181818	3.4218397298409093	-0.5859401843181817
O	-1.5725721033181816	2.708465409840909	-0.38558929531818176
O	-1.7734614833181817	1.2357417814409093	-0.8046104373181818
O	-0.7876683973181817	1.4713664708409093	-1.5933996603181817
O	0.9359096566818181	0.5168036298409094	-0.32098049531818185
O	-0.09722264031818176	1.4225026948409094	1.6340960476818185
O	-0.10948843531818175	2.5154325598409093	2.3955578376818183
O	1.1630645166818183	2.9900437598409093	2.5676035376818183
O	2.023757196681818	1.8925189168409093	2.8206232776818183
O	1.9655982666818181	0.9764946258409094	1.8445569276818183
O	0.9880437666818183	1.0842337548409093	0.9451065776818183
O	5.494564946681819	-0.1204754801590906	-1.8630152843181818
O	6.398536706681819	-0.2624010401590906	-0.8578204193181818
O	-2.2897009233181818	3.6459158798409095	-1.096665743318182
O	-3.463564003318182	3.0515386998409095	-1.211632501318182
O	-3.1658328033181817	1.5975348478409095	-1.2292750093181817
O	1.6014438666818183	-8.54164082015909	-9.566220852318182
O	0.7390802266818182	-8.341254680159091	-5.915314772318181
O	-2.608837353318182	-9.407498930159091	-4.468620092318182
O	-3.4993275433181816	-6.598669690159091	-2.2640292723181816
O	-6.565385973318182	-6.30655786015909	-0.10274891331818181
O	-4.682116883318182	-1.7214603701590905	-2.6456357223181817
O	-7.668990503318182	-0.1012508201590907	-7.118937992318181
O	-5.6439267633181815	-2.1277375101590907	-9.528307002318181
O	-2.5647825633181816	-0.1401286701590907	-10.615959262318182
O	-4.995974263318182	8.791450319840909	-7.059613022318182
O	-0.5325038013181818	8.419267439840908	-2.299378892318182
O	1.9415346066818182	9.37227956984091	0.28652879768181816
O	4.032230556681818	5.38993796984091	-11.143582202318182
O	3.185833326681818	2.618730959840909	-8.859583632318182
O	5.961153946681819	1.0733339968409095	-7.022952292318181
O	4.6651004466818184	-2.3881726301590906	-8.259996402318182
O	1.9101314166818184	-3.9647783101590903	-10.044531932318181
O	-1.0088737803181818	-4.45391524015909	-7.802635412318182
O	-4.287753863318182	-6.187432860159091	-8.014411612318183
O	-6.677350283318182	-4.302553610159091	-5.782060052318181
O	-7.886131433318181	-1.2432892001590905	11.270237397681818
O	-7.5445865233181815	-2.5203399301590905	7.670521287681819
O	-6.389718763318181	-6.044126320159091	6.947005887681819
O	-3.8559831533181814	-5.4952836901590905	4.258355927681818
O	-2.152668023318182	-8.38303680015909	2.3828103776818184
O	1.2173974866818182	-4.153130840159091	3.443467567681818
O	4.481396856681818	-4.174064050159091	7.966266877681818
O	1.8058248966818182	-3.0548347001590903	10.509904297681818
O	11.176530526681818	5.856983719840909	6.737505657681818
O	8.680807706681817	3.9187300898409094	4.812424147681818
O	4.918655726681818	4.14609391984091	-1.6954087693181816
O	3.207155886681818	5.826490009840909	-4.637136472318182
O	3.8099565366818187	9.31443070984091	-3.8100353623181817
O	6.7457076666818185	8.92943201984091	-1.5994607923181818
O	7.866510566681819	8.46088790984091	2.007484067681818
O	6.953777986681819	9.32898538984091	5.586298257681818
O	8.766385466681818	9.17564033984091	8.900046447681818
O	-1.0769673923181817	7.6332389498409094	8.556450337681818
O	-4.737960533318182	8.05783105984091	7.638744077681819
O	-5.572650283318182	4.434416279840909	8.442080657681819
O	-3.0255965533181817	-1.1010219401590904	8.928153197681818
O	-2.5052508633181816	-4.68832589015909	9.754366197681819
O	0.26824473668181825	-5.92365636015909	7.432969427681819
O	1.5484766566818182	-9.383998930159091	6.724939837681818
