40

O	21.339849905779616	-6.120274123285992	14.306380117550411
O	20.57176487301859	-5.080953581076436	13.988261694309735
O	21.042920574886967	-3.864269995462602	13.675803211183341
O	22.305418574643515	-3.791026654452481	13.372037331854365
O	23.07860893321937	-4.7864328869536985	13.435823665970776
O	22.540021006869953	-5.975015612126712	13.729749412295362
O	23.126404991689803	-2.304791051055536	13.90797559573727
O	24.364903773779123	-2.4053215387608633	14.55386927390932
O	22.837646251720926	-1.7939337275395935	12.648818321790312
O	22.07412689629411	-1.6011675793617404	14.989745128102195
O	20.8279380608587	-1.5815121409307262	14.29191399226471
O	19.994845808462088	-0.8274673008555931	15.16173489767969
O	18.957766742535664	-1.1162166620572473	16.037229146465183
O	20.555684555953825	0.4282763318893823	15.51937724049116
O	22.062657516348366	-2.890701917332212	15.541258109306034
O	23.154987817085882	-3.7497576828999835	15.890023782123361
O	23.496868853598762	-4.957001962253888	16.217899716584274
O	22.14509290211084	-4.440740636613428	16.752712683615407
O	22.453694575375057	-4.022707530385125	18.044228092059488
O	23.487627997087106	-3.1825468140201396	18.383103941818682
O	24.366032702146214	-3.0139386500420517	17.477177586045002
O	23.05537754877281	-1.9897735458922674	18.964408260802713
O	23.995480818366055	-1.0187255121955474	18.71450326111453
O	23.2886084332043	-0.19688537391710237	17.705541795506598
O	22.55749922636541	0.6022077107532893	18.73836200993125
O	22.432226548961815	-0.11471236581634336	19.850239011196294
O	21.31189093838298	-0.8322166275115486	19.888088791149602
O	20.53037880136609	-0.4438174490460203	18.756648683124855
O	21.343050202407962	-1.10632146367641	17.99355357719185
O	22.211176454847372	-0.28077300084087997	17.64372012178947
O	21.526404690018317	-3.1819822583004447	16.21369964481821
O	19.505462932776503	-4.289332482784379	16.443690379738438
O	18.274994379272975	-4.153428442773752	16.962680670257885
O	18.169257992938487	-3.5370330472934155	18.16781097917702
O	19.237365413402735	-3.2685126911702795	18.906121572184556
O	20.379498543242136	-3.4380945470966697	18.22868954984181
O	20.39946059665722	-3.4533628129762635	16.90475824956624
O	21.0799672945814	-6.919407102996298	15.383692889576853
O	21.568213015183197	-8.177033867161564	15.041596825938717
O	23.56160436156957	-0.8964380499966131	17.218037570172328
