51

O	20.799820242472602	-3.864795270994758	15.005236037234418
O	20.81894587318368	-2.687887993235597	15.17928546487299
O	21.062330081861543	-1.3138060966937628	14.994788474074578
O	21.144687829194005	-1.0004518920616448	16.425468816455737
O	22.237910565207283	-2.4817444621199902	15.239449836040139
O	20.38349304470037	-0.8634131253048738	18.12245686828154
O	20.062784405822402	-1.3023322300011644	17.015358391586677
O	19.114773630355796	-1.651594999091054	16.02925149974419
O	18.919414781807493	-2.5627813823272896	17.155863934356436
O	18.21949358565541	-3.5650437603916805	16.70447048976549
O	18.02152739744061	-4.641575700561756	17.47333397576489
O	18.370204302725398	-4.5253585122760045	18.77331602655439
O	18.317605098309087	-3.3020513804287748	19.317254021356536
O	18.70204533247731	-2.3836471429629222	18.427227055919467
O	22.198394637727993	-2.808422086423088	16.606497357850188
O	21.531835119636142	-3.706619660746654	17.22016044878811
O	21.519532534789352	-3.742726734764574	18.537347044491863
O	22.156876963084507	-2.728762882075351	19.117668477058476
O	23.23097292795719	-2.435310779675919	18.443403457900775
O	23.240152983513088	-2.337910572543925	17.108458720350374
O	20.13139876791063	-0.37196084458098455	19.226447653657768
O	20.392479807839912	1.0327857381772532	19.46327961869497
O	21.70700595276783	0.7612146833127871	19.768444947206227
O	22.351057101314062	0.5728497931308496	18.430126374060926
O	23.715035934984435	0.1910688722702809	18.648716761433437
O	24.15786992803677	0.25979749996022816	17.241739647382218
O	19.50717475066431	-0.6331554024824915	20.152936539512016
O	20.00557836723744	1.5137297047881817	18.099886516688514
O	20.50480363188866	1.3433239398186614	16.900460417411647
O	18.680374607694343	0.8074967327222153	18.043696061011183
O	22.484967698861954	1.8603683979282364	18.490247477011977
O	20.28454200025969	-5.064302564141923	15.268438305952177
O	20.34744168791144	-5.939395202359001	14.082716261097822
O	21.706840091193875	-6.151672414735839	13.963657250683305
O	22.384814244080868	-4.930344343032115	14.393797824699323
O	23.513056920260702	-4.52129058020967	13.852821188901085
O	20.50939157481865	-5.701655082608008	16.22861687501197
O	20.041188610830933	-4.9903974432309575	12.921164362963697
O	20.146479330912666	-6.181934706807732	12.090979012574273
O	21.08350845535811	-4.09360593771354	12.724387262136274
O	22.8158787443365	-5.471906706161764	15.464331599113251
O	23.881886298828753	-3.2030063598183087	13.95864659447892
O	18.99443954858463	-4.329739301420082	13.659504587549161
O	22.00195329530253	-2.3384373716872586	20.436227849364812
O	21.023452698913292	-2.9295540589764366	21.150636596100863
O	20.67623798133539	-2.2878087081226632	22.31295930120784
O	21.34887481908258	-1.1780427796775839	22.721271839737568
O	22.644074699878505	-0.9937726633798163	22.247784891766656
O	22.951632888901546	-1.699354426265886	21.08636791932684
O	20.00378246456612	2.5903246502325494	19.074581461744856
O	22.313971428208802	-0.7419664874699236	15.124126004276276
