40

O	20.432421512242424	1.8215720201237497	18.976056863255657
O	21.9383464769843	1.7799289822064244	19.319668857445784
O	22.491994771682485	2.300445220456698	20.52451681934513
O	21.634380639652925	3.457298926178791	20.7729532960845
O	20.38243248543196	3.779874658243032	20.250817351725367
O	20.266732781318694	3.2140789518513273	18.879387313528397
O	19.98951709721529	-0.06584624587022314	18.120594915309567
O	20.794301752751334	-0.20161886698385945	19.207912509304112
O	22.056776173669974	0.528853003240721	18.75712924772767
O	20.223586021534853	1.2242971140701424	17.574971963697667
O	20.511792236532468	0.38552039985778075	20.487892834466084
O	19.718191909321888	1.0586378888242634	21.483889686867535
O	20.175124975813876	1.4551618922567224	22.79484769671206
O	20.373555250363005	2.7968022265105654	23.431505362879555
O	21.582664484450127	0.8804814076148861	23.097805703907454
O	19.606190197287432	0.7354195092479798	24.035172963214603
O	21.385909416455846	-0.08280533627112763	21.216051337461217
O	20.100837570913207	-0.8979101973603798	16.99380011361217
O	21.543352675033073	-0.816006793145315	16.878021040574577
O	21.485050042085074	-1.9628394440103007	17.811260104272392
O	21.95501582144542	-1.4742871344752317	15.76851622293138
O	22.852538978607456	-1.8725974120934712	18.14728273135306
O	21.21301410137374	-3.2031171162454397	17.073996922880827
O	23.027234513431715	-2.2580188936257803	19.460245611154892
O	22.306640361123716	-3.2147839997019325	19.636836771738324
O	23.64022403494682	-1.667248043189195	20.585709470314512
O	23.510808328564586	-2.2571776118915214	21.852365860784317
O	23.785323252871482	-1.525775858976288	22.955827379231348
O	24.704324255815433	-0.5166942867649704	22.90825784768901
O	24.894894035751694	0.0002716766873185339	21.629478395438483
O	24.371124127756076	-0.5453551546145445	20.49359702696286
O	25.200198101316605	1.3210359809030996	21.541722911557198
O	25.167021406703768	-0.5141397828279164	19.281707953377797
O	19.411265197669103	-3.2472759569265053	17.056406247871188
O	18.92311936350642	-2.743486084853361	18.65317600540628
O	19.628677287910023	-3.2006346499083023	19.713361548521327
O	19.60674482883924	-2.7560150366654814	21.01009866637458
O	18.535009769167523	-2.0001515049688985	21.377143019349695
O	17.936576295195717	-1.341205475903448	20.355605309470114
O	17.972575847141314	-1.9152924572017171	19.128484710135925
