38

O	21.551369856897928	-8.925974764681477	14.545770192241921
O	21.58978317845601	-7.997600695250329	13.502218300267279
O	20.54188518072818	-7.266573186625509	12.91875617950166
O	20.79003896679604	-5.914338740474223	12.47476254270891
O	22.014856124592203	-5.384438215912109	12.726988647849625
O	22.914941293763892	-6.320896622630496	12.408849881876284
O	22.679652326595345	-7.707225417849248	12.675415094758165
O	22.56990162925482	-3.81480425518742	12.934941977765458
O	23.997188646846485	-3.7342606126050724	12.808028487921252
O	21.855334900754002	-3.0485528681674365	12.015513738243666
O	22.31837581520282	-2.9604170323173777	14.392103201315242
O	21.606604903313748	-1.8387233720306082	14.41127816227626
O	20.67741560431532	-1.425201736465055	15.409297197779756
O	19.2517090116604	-1.5625399771290207	15.384181971336345
O	20.785108591931213	-0.04744354925233063	15.799212033562062
O	23.032597218751633	-3.7469488285255244	15.204651901744075
O	22.78260575158762	-5.192455016439547	14.948441378512321
O	23.272826716505538	-6.268653620050792	15.507059182708085
O	21.484283233096154	-5.362758753214212	15.507365054607694
O	21.49882697320188	-4.748837642027253	16.750724741296814
O	22.493544004005845	-4.09427624086399	17.464465004859708
O	23.627959274154108	-4.541384090010379	17.38274359636461
O	22.575547016465812	-2.728521876473523	17.417548548656278
O	22.909332895330635	-1.8695336265638804	18.241090070496423
O	22.67408452110486	-0.4616357841786851	17.95029770226963
O	21.701360908388924	-0.13885830005700495	18.941073719166912
O	20.95462382151261	-1.1431050553018132	18.679285299117872
O	19.789602100152393	-1.5914244320690445	18.467780600354505
O	19.708750201673965	-2.6202141863442465	19.372009355017358
O	20.96396280714715	-3.2990766477476394	18.973702869743448
O	21.892258660378012	-2.1603687687457853	19.3840439382106
O	20.66407800675958	-4.364793796572318	14.682889807937343
O	19.005830523648967	-5.984964150645036	15.36266946565681
O	17.72128918543733	-6.006183914349001	15.906264804957669
O	17.361988086503	-5.117028638945785	16.88229587493395
O	18.152339288591566	-4.092384279251613	17.181690062471404
O	19.37555913299981	-4.150944870810482	16.60966894669648
O	19.54409731553117	-4.750410615163568	15.423998545748374
