97

O	-0.38019409758823586	-4.404307876060784	-0.048394627176470695
O	0.25121265241176416	-5.207135266060785	0.9744886668235293
O	1.7243656124117643	-0.9209518860607842	4.52394148682353
O	1.0530053624117641	-2.0783021460607842	4.74733985682353
O	-1.3258299795882358	-4.968079956060784	-0.5465682841764707
O	0.1986743224117642	-2.073344266060784	5.625516476823529
O	0.14457903241176417	-1.877076956060784	2.6762648268235294
O	1.0157818324117642	-0.9033885060607842	1.8396759468235295
O	2.100583952411764	-0.32798413106078417	2.0622769068235294
O	-0.07137309358823585	-1.298913376060784	1.1086448368235293
O	-1.0596962065882358	-0.3704099280607842	0.7795324368235292
O	-2.227973277588236	-0.49552676606078416	1.5275964768235293
O	-2.3628345075882358	-1.9927558860607841	1.5408737868235294
O	-3.101626047588236	-2.590087406060784	0.6422021828235294
O	-3.673630447588236	-3.804408176060784	0.8737721168235293
O	-3.0976469275882357	-4.542273516060785	1.8686336768235292
O	-2.2381086875882357	-3.9757654260607844	2.747700476823529
O	-2.4016687475882357	-2.577948136060784	2.7754924768235294
O	-1.6676917505882358	-0.5259401450607841	-0.5541964371764707
O	-2.673399967588236	-0.18882987606078416	-1.1035100531764708
O	-0.1901680235882358	-0.4440620550607841	-2.3764191431764705
O	0.9182080024117643	-1.4960524860607842	-2.118983033176471
O	0.17927713241176413	-2.4741600560607844	-1.4265834231764707
O	-1.1777304475882358	-2.377469296060784	-1.8451353331764706
O	-2.191689707588236	-3.210165036060784	-2.047002833176471
O	-3.0143815375882355	-3.091421096060784	-3.1117993931764705
O	-2.3273829275882356	-2.714388506060784	-4.279929203176471
O	-1.2949049145882359	-1.8502761860607841	-4.121281183176471
O	-1.1777360065882359	-1.3922117960607843	-2.818711413176471
O	-0.0909750875882358	0.5737656899392158	0.6347014078235294
O	0.7152251724117642	0.14383715466921584	-0.2569708309764707
O	-0.3261428895882358	-0.39893105206078416	-1.0055858441764707
O	0.4245742424117642	-2.3505280260607844	1.4514710668235293
O	1.8622071824117643	-2.4593001260607843	1.4383140868235293
O	2.7261652624117643	-2.028106676060784	0.5315588338235293
O	4.038838322411764	-2.221392976060784	0.7399722768235293
O	4.497410542411764	-2.4375097160607844	1.9887858168235293
O	3.6675254324117637	-2.944910086060784	2.9223630268235294
O	2.3756083624117643	-3.062696336060784	2.4949595768235295
O	1.2219798324117643	0.26014057993921585	5.0141967168235295
O	-0.2997992455882358	0.15266697043921584	5.411559266823529
O	-0.7613547015882358	-0.20610313806078417	4.197054266823529
O	-0.5383497285882358	1.0548190209392159	3.6903263268235293
O	0.8190076524117642	1.2735014039392158	4.04891423682353
O	0.44443164241176425	-3.7214079860607843	-0.9975730481764706
O	0.6467598424117642	-2.780020746060784	3.5906014968235294
O	6.549061322411764	7.863320283939215	-7.937236763176471
O	3.101987672411764	7.6016697239392155	-6.36461893317647
O	1.8945092824117642	9.734702783939216	-3.4486152431764707
O	0.41391064241176423	7.2295956239392165	-1.1966286041764707
O	-1.281015990588236	8.187530593939215	2.084588486823529
O	1.9040602724117643	4.002626443939215	2.8153455168235295
O	6.925952202411764	3.8895981239392157	4.1895306268235295
O	8.653657172411764	5.162952093939216	1.1575684068235292
O	9.790923362411764	2.307770203939216	-1.0984149491764708
O	8.470119272411765	-5.0886732160607835	5.835924666823529
O	3.169896122411764	-7.5963256760607845	2.8120384268235292
O	0.3261621224117641	-9.630592976060784	1.4542460168235294
O	0.49457059241176426	-12.955015616060784	2.8076847168235295
O	9.312996262411763	-9.098042866060785	2.440694786823529
O	13.063500962411764	-8.239028406060784	2.5360793268235295
O	10.352047262411764	-5.463790036060784	-4.80191012317647
O	7.630377932411763	-2.918244436060784	-4.74812869317647
O	5.091999882411764	-2.9107534060607843	-7.443236183176471
O	5.750736482411764	0.8404132249392159	-8.00646248317647
O	7.756856872411763	3.612615243939216	-6.514167333176471
O	5.831657242411764	4.983621283939216	-3.5965643731764705
O	6.190932382411764	8.004236763939216	-1.4208620331764708
O	4.734988802411764	7.111300923939217	1.9371931868235293
O	3.865542842411764	9.158488393939216	5.01372039682353
O	7.406131382411765	9.367478523939216	6.352482816823529
O	8.232201572411764	11.761460783939215	3.5478038068235294
O	4.713932472411764	13.059634083939216	2.8205394568235294
O	-11.349086137588236	2.9327024939392157	7.619450586823529
O	-8.024571997588236	4.261155103939215	6.15245314682353
O	-8.100189297588235	7.019282133939216	3.5671077268235294
O	-5.634693317588236	5.654937973939216	1.0280120468235294
O	-4.575069927588236	7.708158713939216	-2.0111937131764708
O	-5.353604697588236	2.601362443939216	-2.9468565731764707
O	-9.984734247588236	0.49776456793921586	-5.15686325317647
O	-11.790438537588235	0.22069094403921585	-1.8545359531764707
O	-11.287343237588235	-2.993311086060784	0.05862969982352928
O	-5.930226707588236	-8.164416926060785	-5.96297346317647
O	1.1284189624117642	-5.982288626060784	-3.9076424831764704
O	4.3571785724117635	-6.256919006060784	-2.0848670131764706
O	4.194358132411764	-9.829224906060785	-1.0570556271764706
O	1.6162800624117641	-11.055990716060785	-3.4126308931764706
O	-2.1642022675882355	-11.378649516060785	-3.926500163176471
O	-5.391416477588236	-12.079463216060784	-2.098822503176471
O	-8.776720497588236	-13.250858116060785	-3.275213473176471
O	-7.926558787588236	-7.737458066060784	4.76502051682353
O	-6.701836737588236	-6.503046756060785	8.152526466823529
O	-7.963120637588236	-2.958411766060784	7.441997316823529
O	-10.875011597588236	-1.2163301660607841	5.812739256823529
O	-9.416148967588237	0.8412329079392158	2.9126849468235294
O	-10.987224337588236	3.7051665239392158	1.1815007768235293
O	-9.411733717588236	3.985366593939216	-2.2255623031764706
