95

O	1.4609112550290908	-2.0724928806727267	2.8699260443818173
O	0.29014467802909094	-2.298707620672727	3.5182746843818173
O	-0.783417149970909	-2.7404799406727265	2.9061928043818175
O	-2.2128236649709088	-2.6906716006727267	2.6493397143818176
O	-0.2871217149709091	-3.6202981706727266	2.0072625443818173
O	0.721037672029091	-3.199585410672727	1.2360617943818177
O	1.378153255029091	-2.1481423906727266	1.5772578943818176
O	1.4704184750290907	-1.9687022106727268	0.21642243938181766
O	0.4165074090290909	-1.4973223706727266	-0.6006462306181823
O	1.395484985029091	-0.3882005396727267	-1.3145279856181822
O	2.818514575029091	-0.11020522067272673	-0.43216788061818234
O	3.269001985029091	0.9090122953272732	0.09769361538181767
O	3.5940138150290912	1.1856295393272733	1.4959337343818178
O	3.409025095029091	0.29188151832727327	2.6026926043818177
O	3.364991125029091	0.4612256133272733	4.018046794381817
O	2.908378695029091	-0.24827127667272672	4.888327974381817
O	3.912138575029091	1.5049638793272733	4.7739652443818175
O	3.836005355029091	-0.7333894496727268	1.7087431743818178
O	3.410581855029091	-1.0268030006727267	0.32264454638181767
O	1.8172647050290909	-1.3419420506727266	-2.3400896756181826
O	0.622124746029091	0.5108853943272733	-2.102459995618182
O	-0.6530843759709091	-1.4270320206727267	0.15608913138181768
O	-0.43509318997090907	-0.6324511256727268	1.3125606743818177
O	0.6904865400290909	-0.001656264672726726	0.8566603833818176
O	0.13453262512909092	1.1171673053272733	0.6501516343818177
O	0.3820372910290909	0.8870305753272733	2.1134240943818177
O	-0.44073599597090907	0.47851598132727324	3.0352567543818174
O	0.026220079029090917	0.4625430173272733	4.290767174381817
O	0.5802104770290909	1.6132219993272734	4.6256623343818175
O	0.9857633840290909	1.7608837393272734	5.969106414381818
O	2.126572465029091	2.3375801393272733	6.502584214381818
O	0.011398575029090918	1.9742570093272733	6.696116114381818
O	1.216640545029091	2.3485121293272733	3.7040166143818176
O	1.0792153630290908	1.8390713393272733	2.4513912443818175
O	-1.6546431449709091	0.3186290463272733	1.4093629143818178
O	-1.739801964970909	0.44096067832727326	-0.12487734268818233
O	-1.8007867549709091	-0.8800161006727268	-0.47249846861818234
O	-2.634020534970909	-3.894883370672727	2.3627038443818176
O	-2.393799794970909	-1.6815229806727265	3.4138080343818173
O	-3.0028769449709087	-2.3360190506727267	1.6799593243818176
O	-10.27738310497091	7.753809579327273	-2.5950861156181824
O	-8.28355140497091	5.033644539327273	-4.345741935618182
O	-5.640056314970909	5.744443159327273	-6.994122225618183
O	-2.790609884970909	3.6046730693272733	-5.795144095618182
O	0.4131721000290909	3.3673173893272734	-7.8277641556181825
O	1.6475100750290907	3.9205727893272733	-2.5264402456181827
O	2.357709555029091	8.420535949327274	0.10344668438181767
O	-1.0831999749709091	9.557988539327274	0.31411440238181765
O	-2.762226894970909	8.453854379327273	3.4736143143818174
O	5.909801685029091	6.7570485793272725	11.145215954381818
O	4.992904325029091	4.794710919327273	7.976452804381818
O	2.812207555029091	-0.9778714006727268	7.364384964381817
O	2.258848175029091	-4.508431550672727	7.846043274381818
O	4.085964695029091	-5.948820120672727	10.746567854381817
O	5.3869394850290915	0.9860123663272733	11.502262554381817
O	2.3186772550290913	3.071172189327273	12.200058754381818
O	2.012761375029091	6.660419879327273	13.574780154381818
O	-5.235474234970909	4.546309849327273	10.274664854381818
O	-5.655878174970909	3.5409151193272734	6.742785784381818
O	-8.13069887497091	0.9105885453272733	5.487340474381818
O	-9.27170906497091	3.2851919593272734	2.7326297943818174
O	-8.351943364970909	6.7616371693272725	1.5207936343818178
O	-5.454680324970909	6.407072209327273	-0.8619764946181823
O	-3.8830522449709086	8.781822279327274	-3.3156142056181825
O	-0.2745203029709091	7.733140079327273	-3.6294216256181824
O	2.497482905029091	8.708120799327274	-6.023802375618183
O	3.292198545029091	12.060731169327275	-4.424309845618183
O	0.022522075029090927	13.451345769327274	-5.735578895618183
O	-0.425822755970909	11.052754869327273	-8.685281925618183
O	8.05783424502909	3.0289001893272736	-7.328663065618183
O	6.840942475029091	1.3761474993272733	-10.576429345618182
O	7.931072345029091	-6.570225630672727	-8.957536335618183
O	5.7903242150290914	-3.4368245006727265	-8.299362825618182
O	2.835502035029091	-2.666389820672727	-10.603256845618182
O	0.18118425742909092	-1.7919827106727266	-8.046460255618182
O	-3.271007474970909	-0.4536260486727267	-8.964866475618182
O	-3.2968428949709088	-3.9669531206727267	-4.654505735618183
O	-4.403610134970909	-9.241194600672726	-5.413878535618182
O	-0.8709511149709092	-10.257173430672726	-6.488645965618183
O	1.4561300550290908	-11.048398430672727	-3.6147549756181827
O	-4.383369614970909	-10.360861930672726	3.8263296343818176
O	-3.705283364970909	-3.2620627906727266	5.672034404381818
O	-2.111064074970909	-0.3609994686727267	7.589851794381818
O	-0.437827973970909	-2.0421061506727267	10.369204654381818
O	-2.338952464970909	-5.299417740672727	10.356088854381818
O	-2.384748584970909	-8.678019420672726	8.530712994381817
O	-0.09960632697090907	-11.368291030672726	7.260228434381817
O	-0.631502428970909	-15.027325330672726	6.4806184243818175
O	6.064132155029091	-9.500107170672726	1.9114601543818177
O	9.00181819502909	-7.171919090672727	1.4624729643818177
O	8.04258795502909	-6.591117580672727	-2.1697661956181826
O	6.701242405029091	-8.607159710672725	-5.104889205618183
O	3.327938845029091	-6.960645370672727	-5.943454175618182
O	1.4290161750290908	-7.228428370672727	-9.182774305618182
O	-2.212851784970909	-6.444528310672727	-8.354630185618182
