39

O	21.841721639376008	-7.301299460710556	15.804199543321754
O	21.264382685374606	-6.0018228901063475	15.735595537526184
O	21.017674772727585	-5.538329333704078	14.48684211729075
O	21.158918562809085	-4.173049198443461	14.12861714802719
O	20.936595083739636	-3.306768330021061	15.155695650135172
O	21.509414752966535	-3.8332145489022027	16.20471802241999
O	21.309661057211926	-5.044784976738469	16.69690211047655
O	21.075332159834314	-1.6558683618882473	14.96505411557278
O	20.428426994812437	-1.249287484212625	13.805365368152794
O	22.49724953467263	-1.3939324378739646	14.97800544373862
O	20.357871952969198	-0.6048622960915833	16.15347668893416
O	19.15493409824836	-1.2513966344165741	16.152636869791397
O	19.009304910116416	-2.7178831176709792	16.35313200168409
O	17.605804492392128	-2.5798419041245193	16.969060557164262
O	18.265423374043884	-3.5304106392015964	15.264746044157356
O	21.485529985044764	-0.5490807456171503	16.95831542141768
O	22.17767063782305	-1.8287837373140015	17.18694921535849
O	18.115275440445192	-4.844690335965913	16.023222589850327
O	23.467918826844887	-1.754989730978242	17.342765613688442
O	21.78892352567001	-2.2375610510943122	18.569670762666966
O	22.20477562097515	-1.4659506593740315	19.66791633657744
O	22.574143741630877	-0.15241310467650893	19.402360177036435
O	23.763024714968807	-0.05438106313174762	19.203468472534702
O	21.867627800013704	0.9769127957225126	19.390867335083477
O	21.939841418053206	2.1374459279695683	18.670897984030553
O	20.74750834314623	2.209723028210443	17.766996343043424
O	19.812574744979543	1.660722778924219	18.57434697650634
O	20.04369465243916	2.305144650262739	19.749423644037414
O	20.1782293730626	1.2590797391246042	20.6395019611005
O	21.252545386152292	1.3046581797478713	21.446558020435802
O	21.905982856677557	2.570434074438224	21.030792907921303
O	21.320316277783935	3.0454752619647047	19.779510496788074
O	20.533548894943937	-1.3642980094899952	18.260827061867886
O	19.659682297855017	-3.0550743082020873	19.527292567974534
O	18.50164834423299	-3.7091426555634337	19.833413633997083
O	17.49230686756088	-2.9159975259194546	20.273768251960753
O	17.588353372095753	-1.5663912893659928	20.187903565047293
O	18.585322783950428	-1.0128722622025113	19.477560563346866
O	19.742748037086383	-1.6619653145481155	19.399663142501367
