43

O	24.01469294786483	-1.7157868330034682	18.455781378849142
O	23.6175517745905	-0.5516291546229206	17.933258238369554
O	22.952629164141346	-0.5394855913965879	16.737007173687722
O	23.093963557353696	-1.522217011209727	15.888080918676906
O	24.064414966677298	-2.3161564901979865	16.154585320780196
O	24.479505760536675	-2.4834734002118104	17.4435454541082
O	22.39781517368848	-1.8022585039650334	14.333504031661297
O	22.21620945589425	-0.5007710968430195	13.7970119120952
O	23.16539586455095	-2.5684359084199553	13.381509435341513
O	21.07304561866466	-2.046248102054498	15.180403376508998
O	20.033959933052508	-1.192610047109888	15.025301113488808
O	19.725603047314856	-2.4716280282085124	14.383333383506892
O	20.582224584085576	-2.9378527830065915	13.257926272844138
O	18.756534577750315	-3.4071469154222096	14.745298134744472
O	21.189643917898238	-2.118887389687065	16.529661516738205
O	19.872990748440856	-2.447574341230249	16.953819336756887
O	19.300426220852067	-3.467037475536081	17.541971235635167
O	20.11435844116663	-1.5681302045921175	18.10580780090615
O	20.996658196410966	-2.212734074422435	18.87657944778805
O	21.184582176943913	-3.608387601621699	18.49963109922912
O	22.151653602505004	-3.7027643904643037	19.115582512427686
O	21.74829581407697	-4.089313248032807	17.265241746575857
O	21.36448398396111	-5.466728174952845	17.0896512236922
O	23.534230952211107	-5.578605475471125	16.406916090256214
O	23.11413155798062	-4.556214254734121	15.690848903497104
O	22.105211853656265	-4.799994119074723	14.91548691896639
O	22.59076183807964	-5.935731799387729	14.429374852469687
O	22.074408076699996	-6.996782902335197	15.202017694015817
O	20.691403831865728	-6.4590683715934425	15.026717663539047
O	20.974140700503764	-5.2176373780409575	15.71909615246672
O	20.35931110562091	-0.18444906814169215	17.631877989195992
O	21.140271188640792	-0.3192756700145929	20.021379809257553
O	21.258348027736716	0.3905486390418087	21.182507240266183
O	22.085473610313638	1.4759983629957194	21.135095300522064
O	21.934591974414047	2.196230240061861	20.012084393399057
O	21.437548657028103	1.5755533922607272	18.904178082531825
O	20.964949901755666	0.32362425924854765	18.8689194828074
O	24.302151319793502	-2.0321841046039513	19.731701716126608
O	23.85228373934629	-1.6343954765094573	20.92803586405948
O	22.770087166317076	-5.196624356146688	17.5408111597103
O	20.624636264500364	-6.035847447535325	13.605802971787345
O	21.30412890513221	-7.092003606259169	12.91257261333401
O	21.0338956821317	-8.376199671023919	13.631212400786074
