99

O	-1.0041169723899999	1.7606456118979996	0.7050575472800005
O	0.17496926120000023	2.464178311898	0.8295126302800004
O	-3.1344569187999998	-0.17284010610200018	1.7601192012800004
O	-0.9447417446999998	0.8944495508979998	1.9746046612800003
O	-3.0617989688	1.7592117318979996	2.4176253412800004
O	0.9751279912000002	-1.9998591481020003	3.7092147912800004
O	-2.3182536988	0.6956721603979998	2.0869736612800005
O	0.2854949712000001	0.5693318588979999	2.1443675912800004
O	-1.5572989287999999	-2.286388738102	0.5095712342800004
O	-3.7563414288	1.4735059298979998	3.6734443612800005
O	-0.11118576179999984	-0.6345183381020002	-0.4866710227199995
O	-2.4673103987999996	-0.39233371810200024	-0.8413436287199995
O	-4.7826949688	0.42463646489799983	3.2259855912800006
O	-2.0706758387999997	3.353575851898	7.1454936812800005
O	-3.2310912788	0.3763982698979998	4.577884951280001
O	-2.7300298788	4.7689368218979995	5.627376341280001
O	-4.5473877088	2.3590028118979998	4.49639217128
O	1.3869231212	1.4898215098979999	2.2588465512800004
O	1.4342395812000002	1.976858141898	0.8697271922800004
O	1.0505356312	-0.08832156310200023	3.1397752312800007
O	0.07883796120000008	-0.9099045281020003	3.8029428612800005
O	-1.0239422330999999	-1.243904808102	2.8670200812800006
O	-0.2630873157999999	-1.581068228102	1.7357245612800003
O	0.9940359812000001	-1.7914281381020003	1.4668799612800003
O	1.7729575412	-1.081183388102	0.5538948992800005
O	2.3249127612000002	-0.3043033481020002	-0.3692788057199996
O	3.4251555711999995	-0.7842745781020003	-0.9862486287199995
O	3.9473709312	-1.975239268102	-0.46862348171999957
O	4.1480449512	-1.628456118102	0.8827763082800004
O	2.9322957612	-1.1873986781020003	1.3668434712800004
O	-0.6649871997999999	-1.502963398102	0.35844035428000043
O	-0.46513246779999984	-0.7627850881020003	-1.7737341187199998
O	-1.8259595107999997	-1.300883688102	-1.5414462287199997
O	-1.6650681757999999	-2.721920788102	-1.4007917887199997
O	-0.5801385267999999	-2.916117028102	-2.3361538887199993
O	-0.2580558407999999	-3.919315788102	-3.2523589687199994
O	1.0097736312	-4.378619458102	-3.1277594687199994
O	1.9044486212	-3.5746710981020002	-2.4889116287199995
O	1.4702971412000003	-2.2537416581020002	-2.7202944687199992
O	0.2694984012000001	-1.9102884581019999	-2.2641393487199997
O	0.06931760120000008	3.090827381898	2.1089757212800007
O	-0.6229316727999998	2.6967369318979997	3.2795636912800004
O	-0.2900615837999999	2.0299032018979997	4.39353804128
O	-1.6530381377999999	2.888769401898	5.93419992128
O	-1.8914737268	3.873730391898	5.019974211280001
O	-1.5243936917999998	3.6302981518979998	3.6878961312800005
O	-0.9420936103999998	1.7902728418979996	5.54295338128
O	-3.1005968587999995	4.263261011898	6.86589413128
O	0.9568935512000001	-3.089101018102	0.5925801542800004
O	-8.735542708799999	0.4689489448979998	-10.25480339872
O	-5.0636024888	1.1761887248979999	-9.594434208720001
O	-3.4137830188000002	4.612557021898	-9.502922958720001
O	-1.4261769677999998	4.428641551898	-6.29963904872
O	0.7205217612000001	7.432022871897999	-5.233573678719999
O	-1.8523014397999997	5.016714951898	-1.4070055187199997
O	-6.7186261888	7.128919731898	0.4825619382800004
O	-8.9911209188	5.724315841897999	-2.1184880787199996
O	-10.4693868488	2.2819782218979996	-1.3194889187199996
O	-7.7757366788	2.639138291898	8.88637393128
O	-2.6140327088	-1.6727769581020002	7.833836711280001
O	0.01072614120000015	-4.347641748102	8.042517031280001
O	0.2898369312000002	-5.490809048102	11.49238630128
O	-8.6921456888	-2.587558198102	9.80182696128
O	-12.4591252788	-1.7135981281020003	9.72162910128
O	-11.0762538788	-5.391829808102001	2.6037308212800006
O	-8.6178279788	-4.000156498102	0.2731789992800004
O	-6.6314442288	-6.294131688102	-1.7104178887199997
O	-7.6941966788	-4.239207728102	-4.879611808719999
O	-9.4847059188	-1.1482099081020003	-5.967706208719999
O	-7.0916287088	1.7672433518979997	-5.440404988719999
O	-7.1427038288	5.402472961898	-6.203097458719999
O	-5.0420816888	7.148211661897999	-3.5982045587199996
O	-3.8296656488	10.739301511897999	-3.2956977887199996
O	-5.2415180688000005	11.727941441898	-7.47097900872
O	11.8328649212	7.356740521898	0.6672175652800004
O	8.2943368812	7.436555601897999	-0.8487463187199996
O	7.769628711199999	7.234343231897999	-4.584036728719999
O	4.9612785012	4.691200571897999	-4.765854858719999
O	3.3127598912	3.793528021898	-8.12448224872
O	4.1633884012	-0.32985753810200025	-4.85847026872
O	8.5290088312	-3.8418002981020005	-5.35779272872
O	10.8901151212	-1.6062726281019999	-3.3794489387199995
O	10.9585974212	-2.165112448102	0.36654512728000044
O	6.4621884411999995	-12.642563958102	2.5983845612800005
O	4.8138230012	-9.553086458102001	1.3620995512800003
O	-1.6785521927999998	-5.7345377181020005	2.0748727112800003
O	-4.6910579187999994	-4.579564158102	3.8735728912800007
O	-4.2036745788	-6.061988408102001	7.27730003128
O	-1.9427353147999997	-8.793507138102001	6.293131161280001
O	1.7057999112	-9.714868058102	5.57506578128
O	5.2372924112	-9.306192158102	6.891503821280001
O	8.4495845412	-11.236304058102	6.489719351280001
O	8.5701208512	-1.3898215481020002	7.411904561280001
O	7.7584130112	2.0089877518979997	8.67347242128
O	8.5943034712	3.755709631898	5.43194144128
O	11.2073257212	3.381839001898	2.7560967412800004
O	9.2959592212	2.671358321898	-0.45999179771999954
O	10.4231229212	3.042420781898	-3.9987612387199993
O	8.3286305512	0.7741157609979998	-6.20680886872
