46

O	21.230169394483035	1.8054381013945953	21.625471153554688
O	21.187766766978182	2.605859565709382	20.52781924763532
O	20.37294186968711	2.3199130448268397	19.49865238599919
O	19.63090574405941	1.2076695529126795	19.48367300980646
O	19.15276680510782	1.202021770270621	20.74475348217467
O	19.95636500808526	1.2755596323243397	21.816626592199565
O	19.028624258025925	0.681455423761627	17.979451969225128
O	19.38256231614573	1.4688136545591155	16.94763640137983
O	17.69849809568969	0.4836694782866593	18.39855058798129
O	18.964312283567907	-0.803686098911373	17.070998035934913
O	18.2171985257446	-1.0279554640000799	16.0721876615073
O	17.63885202532324	-2.233466951159556	15.768797708436473
O	17.71278240734933	-3.5508772398229835	15.224340183810092
O	17.108785384717997	-2.7963961061538267	17.03474723913917
O	18.38449301724963	-1.644543317132088	17.96784358094473
O	19.20156422407037	-1.1165826947405522	19.03987283973992
O	21.45844450903114	2.2018794500451406	23.93875769965071
O	18.60757797513849	-1.2128970711293907	20.09699770666076
O	20.38822080991749	-0.6318485923773165	18.452370935742618
O	22.07620335305254	2.0563538834814388	22.6846246749356
O	21.41233422493945	-0.7265356044179037	19.37225447886299
O	21.174169051768263	-1.7234206706876554	20.04068821855629
O	20.854454391153414	-1.3333433591500423	21.15224645384868
O	20.2136552474458	-4.047574689542841	18.422862338763537
O	21.150575185679028	-3.053093372478271	18.465225229953507
O	19.416918156068824	-4.0141022086786915	19.448255409433514
O	18.199267710626952	-4.120775676494393	19.51047212380755
O	20.22482757099194	-3.461093269646775	20.388496912605383
O	21.540792599274596	-3.1317778761485147	19.873156792424027
O	20.99363352526398	-0.6259437498802151	17.225178750891573
O	22.59384778368277	0.7432162845389463	18.372528023822746
O	23.57006163572987	0.8304274861068885	19.36808480513213
O	24.390463945626312	-0.23494807896373415	19.48167133139131
O	24.11702974332248	-1.292782076619211	18.688109811126246
O	23.155241714779894	-1.2420076725580287	17.710967073560177
O	22.30650217835888	-0.2549679823004072	17.529800975919887
O	20.760621927508165	-4.2256514221147095	14.525789751725323
O	20.53837131085609	-3.0570150874881064	15.115134948764194
O	20.702479570896294	-3.123120136783746	16.384425321336234
O	20.225767492611983	-4.131054556070412	17.130811815507325
O	20.662174648432003	-5.268173625722063	16.57018440131036
O	20.549303037213466	-5.416044917117617	15.221110907828248
O	20.893369956288375	-1.8116121504518696	14.493619100224176
O	20.718059046569895	-0.5177737565307979	14.779368935450515
O	19.939233786925108	-2.033945763364793	13.663395591387372
O	22.160801385037782	-1.8635895652475014	14.791054397543334
