101

O	-0.9125693376000006	2.0624282856	-2.9476693805400016
O	-0.9876557156000006	0.7625311405999999	-2.4184944805400015
O	2.496831714399999	2.5698477555999997	-3.6596878805400017
O	-0.6164200926000006	3.3215337656	2.0266750794599986
O	-1.4321724756000005	-1.3410297144	-2.5344928005400016
O	-5.3260875356	1.7552985286	-1.6517723185400015
O	-4.5300419156	-0.3330255844000001	-0.7164676795400015
O	-5.2443592656	1.5891671716	0.5298113994599984
O	5.4496574544	-0.6166401544	-3.4252427405400017
O	7.2449260743999995	2.1862269685999998	-3.1628083805400014
O	4.3085797044	-0.06870483440000008	-3.9053121605400016
O	5.4439206244	-1.1825611944	-2.1940117865400017
O	6.069509034399999	2.8365276055999997	-3.5516984705400017
O	7.4136765443999995	1.9501870436	-1.8005483295400015
O	3.1612610943999995	-0.4770299244	-3.3060253505400015
O	4.2737807843999995	-1.1169471644000002	-1.5051632135400015
O	5.310161764399999	3.1982834056	-2.4265061705400015
O	1.9685418243999993	2.8958998056	-0.01128816054000148
O	2.960075924399999	1.5928065416	1.1858082094599984
O	3.0912404743999993	2.9307044256	-0.7186871275400015
O	4.0779409944	1.38089038654	0.4356525794599986
O	0.3968878083999994	0.18905208559999997	-2.7045627605400018
O	0.7425020143999994	0.6822886735999999	-3.8554093905400015
O	0.23967658539999936	2.9813879556	-1.6204321715400014
O	-3.1349861856000008	3.2295179556	1.1594883994599985
O	-2.797738055600001	1.0409120185999998	1.1520451094599986
O	1.8065898043999995	-0.5371434844	0.6337370694599984
O	-1.8754652956000006	-0.1580758444000001	-3.0749214305400017
O	1.9317666543999994	-1.5399076444000002	-1.4921416485400014
O	0.6460971843999994	1.1552511256	1.3061239594599985
O	-0.1462298896000006	-0.6480435244	-0.07929658054000144
O	0.44607562539999934	2.4114520256	-2.561824240540002
O	-2.0826584656000007	2.9694910655999998	0.4512333694599986
O	-2.432326475600001	0.5760154115999999	0.05839071945999841
O	3.1591045043999992	-1.2095215244000002	-2.2243175795400014
O	1.7255088643999994	1.9208089066	0.7283469394599984
O	4.0510698044	2.0489110106	-0.7129232705400015
O	5.1450742444	2.1270821456	-1.5880121545400014
O	1.0705617743999993	0.19755775559999988	-0.22302779054000155
O	1.8490586743999995	-0.14538784440000008	-1.1991103553400015
O	-3.2618948656000004	1.5094216476	-0.8071037395400015
O	-4.5729100356000005	1.0662944126	-0.6345216665400015
O	6.2740140144	1.5568303985999998	-1.1695273148400016
O	-2.7857739756000006	2.7958627356	-0.8096961125400015
O	1.5678689643999995	0.6385413926	-2.1233127395400015
O	-1.0885512326000006	1.0884578646	0.06619173945999846
O	-0.3681653889000006	0.32264009559999995	0.9432874194599985
O	1.3987720843999993	3.2015299556	-3.2127294105400015
O	-0.9830648986000006	3.6830457055999997	0.7444685194599985
O	-3.0505274356000003	0.5156988976	-3.5022354105400013
O	-1.2072205206000006	0.06147858559999997	-4.428784310540001
O	-3.2425304556000007	-0.15881564439999996	12.742570739459998
O	-3.8521467956000004	-2.1244402544000005	9.533650439459999
O	-2.3760465356000005	-5.505583774400001	8.743250329459999
O	-1.1801878816000007	-5.0204762044	5.249251419459998
O	0.5539283713999994	-7.8801032944	3.3815884794599986
O	3.1537724243999996	-3.3641013744000006	2.7752010894599985
O	7.323198424399999	-1.5927980244000002	5.692484219459999
O	5.5723304244	-0.5524113544	8.787382339459999
O	4.638211944399999	3.1662692656	8.702731139459999
O	10.2340238344	5.5799339655999995	0.4360557394599984
O	4.7043018344	6.3127383656	-3.3553811305400014
O	2.1607812743999997	7.0591143756	-5.998092660540001
O	3.7132559443999993	9.281891485600001	-8.500940650540002
O	8.1456354044	10.5204414756	-0.09266627054000143
O	10.2520958344	11.495966725599999	2.9450058594599984
O	2.4719520243999993	11.0548143456	5.803758149459998
O	0.7778215043999994	7.7986618456	5.613180609459999
O	-2.8632356956000002	7.657742875599999	5.024167369459999
O	-3.0858962456000008	5.2265920656	8.10654667946
O	-1.0286792976000005	3.2734750455999997	10.483547139459999
O	0.10102169539999939	0.15093177559999993	8.736429819459998
O	1.8381585043999993	-2.9476987744	9.845429339459999
O	3.7362948343999998	-4.1835497844	6.840722529459999
O	5.6781269744	-7.4483984543999995	6.317493399459998
O	6.7585108844	-6.9176172344	11.370125639459998
O	4.037735104399999	-9.2730749744	10.094621939459998
O	0.020850366399999376	-10.8865109744	-8.823642320540001
O	0.4812117433999994	-9.8001321744	-5.140875910540002
O	-1.9402661056000006	-10.9360858744	-2.4581170205400014
O	-2.5403747056000006	-7.633060024400001	-0.6453261685400015
O	-4.6127270856	-7.6255180944	2.5822357494599983
O	-5.314019285600001	-3.7040094844	-0.7790690555400015
O	-9.7842422456	-3.3551478244000004	-4.373467640540001
O	-7.989566825600001	-5.3359206144	-7.066072270540001
O	-5.948952725600001	-3.3711935344000006	-9.567776780540001
O	-7.3957477756	5.851972165599999	-6.600417700540001
O	-2.0060892156000003	6.5210043156	-1.2752418305400015
O	1.2102616243999993	7.7477828756	0.22019204945999848
O	2.3075265043999993	10.0704988056	-2.4893160005400015
O	-0.9924379986000006	10.6492390456	-4.057990930540002
O	-3.4224066856000004	9.3279744956	-6.680106210540002
O	-3.6622135356000003	7.8319353256	-10.158734810540002
O	-6.4005423256	7.5801104456	-12.768010260540002
O	0.23994100439999944	0.33679899559999993	-11.848504160540001
O	3.5796721943999996	-1.3275072944	-11.604449960540002
O	2.148795904399999	-4.495606164400001	-9.97053312054
O	-0.9430797736000006	-6.6680598244	-10.325013550540001
O	-2.7404569256	-6.5358084644000005	-6.948440630540001
O	-5.257542125600001	-8.8676572744	-5.544275730540002
O	-7.2600283356	-6.984603314400001	-2.9551594305400015
