90

O	-2.6133095576	-0.08565945212499959	0.2263038975833329
O	-3.7028710276	-0.4548907641249996	0.6685220065833329
O	-2.3046631976	-0.8150252391249996	-0.987579170416667
O	-1.0579052135999998	-0.6139338591249995	-1.5414172634166672
O	-0.17493693759999984	-0.4408778221249996	-0.5288557297166671
O	0.8440547124000002	0.25024879487500035	-1.102506254416667
O	-0.17965467759999987	0.3337841688750004	0.7171208465833329
O	1.0819748824	0.19003513387500037	1.213822136583333
O	-0.8058866685999999	1.5946654408750005	0.5159561265833329
O	-2.2124403276	1.1891467218750003	0.733397186583333
O	-2.3266641975999995	-2.2615746091249997	-0.40621390841666705
O	-1.3575192375999998	-2.1428147091249996	0.6644712265833329
O	-0.1942912875999998	-2.790442179125	0.6096086165833329
O	0.6186629724000001	-2.8090499691249997	1.6930215465833331
O	0.1650108024000001	-2.269861019125	2.841842686583333
O	-1.1631316741	-2.361178339125	3.013050996583333
O	-1.9041718295999999	-2.0932282491249996	1.897080586583333
O	1.2003745624	-1.9335897591249998	3.793778936583333
O	0.5898997524	-2.410223479125	4.916465486583333
O	-0.6904648385999999	-0.4000773301249997	-2.899845903416667
O	-1.9120973385999998	-0.8246003091249997	-3.580918593416667
O	-2.9862727476	-1.4562018091249995	-3.0033273434166667
O	-3.8548981876	-1.9977117291249997	-3.888179123416667
O	-4.0418097476	-1.3253268191249998	-5.054594953416667
O	-3.4798049376	-0.04479938812499962	-5.061639523416667
O	-2.1278572866	-0.26566629812499964	-4.773772433416667
O	-0.8320458005999999	1.7511773508750004	-1.0349425754166672
O	-2.2339824276	2.012225340875	-1.339575909416667
O	-2.8057911676	2.919905050875	-0.44258073171666706
O	-4.162141397599999	2.951045730875	-0.3149572714166671
O	-4.8509161276	2.0324051808750005	-1.0361255574166672
O	-4.3011649676	1.5358630208750004	-2.187196113416667
O	-3.0277019475999998	1.9234906408750003	-2.417922283416667
O	-2.8387488976	1.0273616448750005	2.124475446583333
O	-1.5825719156	0.9114955258750004	2.790861766583333
O	-1.8113245035999999	0.39730746487500035	3.9908461065833327
O	-0.8753377475999999	0.41291811487500035	4.942422536583333
O	0.2927169624000001	0.9091708018750004	4.538779006583333
O	0.3146361024000002	1.8874977208750003	3.601569656583333
O	-0.7657310825999999	1.9915238708750005	2.785928936583333
O	1.4659239324	0.9722895318750004	5.367880136583333
O	1.2166432824000002	0.07904067387500036	6.341385266583333
O	7.2628739224	-7.340653619125	-6.991076043416667
O	6.0106649924	-3.7902025791249994	-7.030029433416667
O	8.1976299024	-0.7657881091249997	-6.267772553416667
O	6.0437945924	1.1197796328750003	-3.9005389934166668
O	6.9861761824	4.505165890875	-2.4735940034166672
O	4.9934922724	1.5766514008750003	1.4689656065833328
O	7.6803310823999995	-1.8523589891249999	4.592840646583333
O	8.526518192400001	-4.633795239125	2.273337626583333
O	5.9691497324	-7.466500239125	2.328538266583333
O	0.8418477624	-4.127753659125	10.610858586583333
O	-4.2893234976	-2.247458149125	7.041957356583333
O	-7.6311784576	-1.1551333691249996	5.555583936583333
O	-10.161769317600001	-1.3206230491249995	8.314036926583332
O	-3.1641087776	-7.5979828691249995	10.142153386583333
O	-0.7349548265999999	-10.272053399125	11.352825286583332
O	-1.4681519146	-11.609811299124999	3.299329966583333
O	-0.5045983195999999	-8.907144349125	0.9621454765833329
O	-2.3473066776	-8.391513979125	-2.2052149434166672
O	0.9504713224000003	-8.275808469125	-4.1165467234166675
O	4.5937964124	-8.462872509124999	-3.412428613416667
O	5.8517037224	-5.045115969125	-2.546876843416667
O	9.192782532399999	-3.4443987191249996	-2.095206743416667
O	8.6721892724	-0.6002132191249997	0.35961401558333295
O	10.8783700324	2.288559750875	1.457182946583333
O	14.610607732400002	-1.4026674191249997	0.9355699665833329
O	13.932864332400001	1.2589902838750002	-1.733575013416667
O	-0.21193824859999988	14.323501800875	0.13608894558333295
O	1.9447698324	11.187385900875	-0.38168073141666703
O	3.5235930723999997	10.525720500875	-3.779123173416667
O	2.7149603224	6.815212350875	-4.131453093416667
O	4.0614180924	4.7056657008750005	-7.021559673416667
O	-1.0562959736	3.5197748108750004	-5.7732848534166665
O	-5.3989966176	5.690752320875	-8.313126133416667
O	-5.4221022576	8.994865270875	-6.406189503416667
O	-14.8435717676	0.007003644875000381	-3.616574753416667
O	-11.0746023176	-0.006339617124999641	-3.345224813416667
O	-5.7536638276	-3.8983916191249994	0.09800347058333292
O	-4.191607127599999	-5.686137899125	3.061036166583333
O	-6.9847611276	-5.728224189125	5.493440036583333
O	-9.7465019676	-5.215404469125	3.081376116583333
O	-11.743260467599999	-2.548196299125	1.2284664065833328
O	-13.3894322676	0.8282382178750003	1.684942126583333
O	-8.5879028276	7.5359508408750004	4.086961006583333
O	-6.0423274676	8.610129440875001	6.636985436583333
O	-3.6883494675999997	10.069812920875	4.057397746583333
O	-2.5011292876	9.771293810875001	-1.9117514334166672
O	-1.2221298839999999	10.792331100875	-5.302953543416667
O	-1.2800406214	7.665757700875	-7.503855843416667
