38

O	21.946698872500708	-8.342298702605433	15.42398367459122
O	21.70310140009456	-7.048854589951108	14.93452526172661
O	20.53706386577943	-6.258992774956384	14.869564382239089
O	20.644737094151907	-4.966737290788566	14.249554499879888
O	21.767809197140203	-4.435159282286458	13.794730961668892
O	22.421392631573724	-5.452226997011741	13.20885035306001
O	22.244769019389366	-6.800017847327619	13.647808834102843
O	22.470753083330116	-2.955825401638358	13.551243935370408
O	23.981296568161635	-3.155329019815462	13.440993402059098
O	22.17175122113705	-2.763427078453705	12.199699845246311
O	22.504508851815928	-1.9607990760764038	14.81961589082394
O	21.903858775737145	-0.7935394505630078	14.725783183768295
O	20.481855179827594	-0.8201818506888126	14.597747099096479
O	19.482806013384177	-0.522015795822955	15.578066658251938
O	20.228791371203098	-2.028891946827388	13.845836345108754
O	23.32227782479484	-2.5751559562533606	15.742745640627795
O	22.945871711281633	-4.061764714893379	15.648833162057478
O	23.625663975326752	-5.04931182688217	16.103697669976484
O	22.144642594841187	-4.12329000235675	16.789075886391952
O	22.77646066124256	-3.715476594780001	17.957900844211743
O	23.46601247695848	-2.5378602404536292	18.085816068378286
O	24.615533713323106	-2.465037935244525	17.78691815624774
O	22.78117477558887	-1.3865145407107535	18.19015541414932
O	22.890399560164656	-0.11587924076940626	17.776333791792943
O	21.62258875282165	0.46590430111069137	17.457689104553484
O	20.840588629163793	-0.2641019203901287	18.322721264365917
O	21.397400382194583	0.08287278294012057	19.406227600314644
O	21.436546638873565	-0.8935820779519839	20.32740596430869
O	22.619682434451107	-1.5215918086350555	20.39299892563534
O	23.673961635044982	-0.6443946250183077	19.792916754649127
O	22.829540569353235	0.45442602934274157	19.300222553219363
O	21.577159058759463	-2.737913554782099	16.34822891680333
O	20.590068891036697	-3.1582797909897753	18.41771755055968
O	19.461891104142342	-2.930727010326671	19.138913103557243
O	18.404942846048264	-3.4853745608683777	18.53188227781293
O	18.357159649136346	-3.680050173552761	17.192582522983255
O	19.54747087243442	-3.65770070600674	16.59280306192172
O	20.514375123966097	-2.8725550391317016	17.107175028856172
