90

O	2.741436690873333	1.569642905931111	-1.842354752615555
O	-1.9649562421266666	2.243021835931111	-1.1405938726155551
O	0.5003690208733333	2.215934553931111	-1.567275433615555
O	-1.7197352961266668	-0.32760979306888904	0.4742933253844448
O	2.1567895508733335	3.531607616931111	-2.7720189746155555
O	-3.2843075691266668	-0.713595573068889	0.03609058538444487
O	-1.1281387743266666	2.8463691869311107	-2.9499440246155553
O	-0.8063663821266667	2.435984793931111	-1.8746962636155553
O	-0.8572671691266667	5.0676905969311115	2.925653835384445
O	-5.122649089126667	0.839586604931111	-0.7362910306155552
O	1.5703738208733335	2.210206176931111	-2.4244070046155555
O	3.126991280873334	5.263947066931111	1.2997564553844447
O	-0.8922166831266666	-1.184341373068889	-0.34336529261555515
O	-2.9089408391266667	1.361185179931111	-0.9654532381155552
O	-2.1655381591266667	-1.324841353068889	1.543359315384445
O	-3.9971064091266664	1.327092615931111	0.020108965384444843
O	3.757930790873334	2.510202884931111	-1.6067853996155552
O	-3.0302674791266666	0.19401645693111114	-1.8171766036155552
O	3.7551855408733337	4.880226176931111	-2.042672354615555
O	-2.0311817361266664	0.41762140693111105	-2.8347582346155553
O	0.9576313908733336	6.657762466931111	2.5612836053844448
O	-0.7903879631266666	-0.19588700306888907	-2.9916528446155555
O	-2.8198491591266666	0.07738688693111095	-3.935928874615555
O	-0.17833411812666655	0.03571606693111096	-4.182706484615555
O	-2.2755999691266666	-0.323083103068889	-5.158108964615556
O	-0.9743885981266666	0.15972848693111108	-5.2872781646155556
O	-4.190089239126666	0.038705126931110945	0.7474539253844448
O	-3.753647059126666	-1.9024355230688892	-0.4288507706155552
O	-5.115594909126667	-2.127915233068889	-0.8316449886155551
O	-6.285359099126667	-2.027919043068889	0.048084915384444926
O	-5.570624159126666	-1.911848763068889	-2.230262174615555
O	3.5733110408733335	3.577009646931111	-2.2696713646155553
O	1.4672553008733333	4.433513156931111	-1.8623482406155552
O	2.556341600873333	5.518813966931111	-1.7914352946155552
O	-1.0292002211266666	1.0838457019311112	1.1196577853844447
O	-1.9631377891266666	1.467901518931111	1.9727240953844447
O	-1.9457544031266667	2.745003276931111	2.417312715384445
O	-1.1337156061266667	3.889805506931111	2.244732525384445
O	-0.17390461212666664	3.435541646931111	1.342523205384445
O	-0.059820619126666585	2.0220166799311112	1.1715733853844448
O	0.3297561908733333	5.607047666931111	2.332351595384445
O	0.8258900408733334	4.537726126931111	1.4910343353844446
O	2.1402285208733334	4.281659806931112	1.400790375384445
O	2.451178450873333	2.985771226931111	0.8831876453844449
O	4.463401730873334	4.790329276931111	0.9247047353844449
O	-2.1700815491266665	-6.402787933068889	10.071579455384445
O	-1.3536677411266667	-7.043035953068888	6.455182495384445
O	2.049600750873333	-8.230981743068888	5.2601951253844454
O	2.7649737708733335	-6.113376983068889	2.445165635384445
O	5.724072670873333	-6.232472733068889	0.16303254538444478
O	5.1835916808733336	-1.1848297530688892	1.3522414953844448
O	6.8992418408733345	1.591251551031111	5.560391255384445
O	4.841884370873333	0.1559008569311111	8.303596795384445
O	1.6969751208733335	2.154896503931111	9.055464355384444
O	3.5834628208733337	10.18716260693111	3.907866265384445
O	-0.49348223912666656	8.808769566931112	-1.0089147059155552
O	-2.9968358391266667	8.764190506931111	-3.882290774615555
O	-3.3866885391266663	12.24112946693111	-5.233626754615555
O	-0.8992406161266666	12.59419166693111	4.032454515384444
O	-5.273746879126667	7.299263806931111	8.369298405384445
O	-4.504282979126667	4.052025976931111	6.740897435384445
O	-7.215176259126666	1.835577779931111	5.171987835384444
O	-5.754947399126666	-1.1227021230688892	7.251724325384444
O	-2.7536504691266668	-1.897846683068889	9.378582555384444
O	0.24880853087333343	-2.721945913068889	7.229166795384444
O	3.6114815908733338	-4.2007681130688885	7.876189095384444
O	6.070863810873334	-2.928319943068889	5.336952315384444
O	9.539491380873333	-3.8254709730688887	4.181712405384445
O	10.007618580873332	-4.596216063068889	9.416559155384444
O	9.483215380873332	-7.471172293068888	6.924947875384445
O	6.470658630873333	-4.612295793068889	-8.327631364615556
O	5.402088310873333	-7.837150213068889	-6.671070144615555
O	2.904720670873334	-6.484611913068888	-4.135054164615555
O	1.2632216308733335	-8.803100433068888	-1.5810074216155552
O	-2.3121349191266667	-5.484405313068889	-3.608118324615555
O	-5.502981159126667	-6.475023483068889	-7.9515265646155555
O	-2.8722119191266664	-5.843480493068889	-10.663852714615556
O	-9.613497839126667	2.169249274931111	-6.844129024615555
O	-6.069766499126667	4.220058256931111	-0.5329424246155552
O	-4.200357129126667	6.531444546931111	1.882392045384445
O	-4.853440119126667	9.74049300693111	0.19521297538444493
O	-7.901948859126667	8.792282546931112	-1.7930433686155551
O	-8.907487629126667	7.240239186931111	-5.157002464615555
O	-8.138332369126667	7.222844246931111	-8.858137434615555
O	-0.3705053321266666	4.9416690669311105	-11.694684844615555
O	3.347320740873333	5.702791466931111	-11.210663944615556
O	4.311268050873333	1.980346932931111	-11.018295784615555
O	1.9332132208733335	-3.481489263068889	-9.682451844615555
O	1.4554186308733332	-7.165173733068889	-9.604183824615555
O	-1.2487279064266665	-8.06712098306889	-7.104165264615554
