48

O	18.809514111199412	-3.5586068463311222	17.926070501372973
O	17.47711048821199	-3.5837950918794337	18.030699880991325
O	16.905978766024692	-4.012404728675569	19.16083601928746
O	17.69952342620544	-4.196326258141997	20.235068929901708
O	19.02604419172731	-4.3254157955642745	20.03029218784203
O	19.37645373972594	-4.434419817094096	18.72583239743768
O	22.154830712346193	-2.361664202071129	19.232203004153824
O	23.491696073933067	-2.242531003892303	19.640174620864133
O	23.802058110895484	-1.470710475046239	20.70344465740265
O	22.849567524420323	-1.3780500446443211	21.63603409661536
O	21.703686699618554	-2.0724393260191243	21.45646082464966
O	21.336466555347528	-2.4213181779666364	20.226432487371092
O	22.121984961848895	-3.3031752213775234	18.195367710125144
O	23.15182079965527	-2.8492953476699263	17.30179736724774
O	22.426008392360707	-1.8391918534365095	16.847288527477136
O	22.144101431945185	-1.1971296369865114	15.624948093476576
O	20.748933828903876	-0.6829452126150133	15.777243895132898
O	20.334201514311097	-1.8526061449697486	16.528448620678464
O	20.591325305041202	-2.855437726262573	15.387188173112417
O	19.698309364165567	-3.2491651149321976	14.661994780174124
O	20.760814496361593	-3.822079389602189	16.334685058614262
O	19.213858913614466	-1.8037504404738751	17.146596774557185
O	18.72797648514974	-2.987695029762321	16.627902977559245
O	19.937967165486622	-0.7000303198430426	14.737171324155346
O	22.13308045919174	-1.6807832920721069	14.39731890388319
O	21.820253329320987	-0.8766472555262173	17.77730873531975
O	22.85655999009447	-0.19152885646205342	18.10833606377669
O	21.01857915546147	0.215163023568806	17.5846372071014
O	20.554811474286648	0.9930114992854389	18.559049313620093
O	19.811260707054224	0.03398271290989041	19.261062738241204
O	19.976339684914862	0.5483369187978371	20.448102445445645
O	18.692913316681196	-0.640693503811001	19.10333162211681
O	18.018601595969244	-1.1590100989015952	20.14139048672522
O	18.620322902929377	-1.2179444167568447	21.33941892318873
O	21.727601022786672	0.8196024727135116	19.577149988972014
O	22.255369604470204	1.9781870410119504	19.16150361659056
O	19.31505650006367	-0.019955381350659662	21.494091031121343
O	21.239222360115523	1.0921094710318258	20.909980814034462
O	21.115390364981867	-4.967515865959667	15.988191898328381
O	20.00464357988481	-5.323300265070632	15.028842303248924
O	20.70027287732156	-6.140604177606585	14.264502988337359
O	18.87961989875384	-5.826076499856622	15.680174517378063
O	18.720884117651817	-7.204837580626355	15.876874635685553
O	19.264991427341176	-7.838969951420157	14.745814091973767
O	19.955382496340512	-7.138946400661185	13.73123743471956
O	22.215421947353892	-4.912874208802627	15.112712107038407
O	21.8423329782098	-4.382595398356516	13.896396943474892
O	22.062886107680033	-6.400389978909406	14.976240034499428
