118

O	0.8219734526440677	-1.7587463324677965	-0.5836848551677971
O	1.164667122644068	-0.8939126124677965	-1.3147282271677971
O	3.929515892644068	0.6341926675322036	0.03012843783220287
O	1.5886677726440679	-0.25028377246779643	2.179784440832203
O	-0.5851967724559323	1.9141474685322035	0.6668047708322028
O	-1.8556798173559321	-1.0452907624677963	0.06605403783220287
O	-1.0075416293559323	0.9522334605322036	-2.6065322791677974
O	-3.837634567355932	1.7725443495322035	-0.6283042681677972
O	2.3091110226440676	-0.18958262246779634	-1.019133216167797
O	2.6904455626440678	0.16542864753220354	-2.1795486591677973
O	0.6901734726440677	-0.03118879246779649	-2.068425899167797
O	4.571677472644067	-0.5318867024677965	0.4283534768322028
O	2.627409252644068	0.5745888365322036	2.9603918908322027
O	-0.9768260603559322	2.4750174975322037	1.915672890832203
O	-3.030752117355932	-0.7798564524677964	0.8934902708322029
O	-1.1954311023559323	-0.13982767246779648	-3.5253840291677974
O	-3.104363807355932	2.7738884275322038	-0.18388083116779713
O	0.7977377726440676	1.2039418059322036	-1.5056733991677973
O	5.9084482326440675	-0.08298921246779645	0.8233244308322029
O	4.140859292644067	-1.4839853524677966	1.3761523208322028
O	3.8718232926440677	1.2444987975322035	2.7695690508322026
O	0.35310453064406766	2.5966783075322035	1.5063572708322028
O	-4.235636887355932	-1.2392106824677966	0.19017183683220285
O	-1.9123642273559325	2.9042860975322036	-0.8792097351677972
O	1.1340501726440677	2.2851228175322036	-2.2204376391677974
O	5.2845614026440675	0.9074181545322035	3.1533100508322027
O	0.5721441626440676	3.399958597532204	0.4400309158322029
O	4.624598732644067	2.440217597532204	2.4854030408322028
O	1.2098386226440678	2.9495023075322035	2.3125130308322026
O	-5.376886927355932	-0.6505214424677965	0.8688669408322028
O	-1.5297010543559324	4.049483657532203	-1.584623849167797
O	-2.5417698773559323	4.720943487532203	-2.343986579167797
O	1.641223622644068	4.046312987532204	-0.06312289316779712
O	2.1425538626440677	3.8803337875322033	2.076774680832203
O	1.1838552026440676	2.4826103175322034	-3.542783109167797
O	-5.148643217355932	0.23065230853220353	1.7200121008322027
O	-6.467593137355933	-0.3878685324677964	0.0744772468322028
O	0.4628472426440676	2.7247971275322036	-4.543332659167797
O	2.6225194426440677	3.996089867532204	0.8259984508322028
O	-0.7552127383559323	3.4371566675322036	-4.706751959167797
O	0.45017770264406776	1.6799372485322035	-5.491220799167797
O	2.797272472644068	0.7253060285322035	0.9102187808322028
O	2.7979029026440676	1.0409144369322036	-0.7558818041677972
O	3.0361736026440678	1.5393097635322035	0.17639441483220286
O	0.41818022264406773	0.3142029745322036	1.5971166308322027
O	2.199420662644068	-0.5411222124677963	1.065897850832203
O	-1.9847612773559322	0.6484059725322036	1.7474618208322026
O	-1.2577621753559323	0.7706637065322035	0.7092731708322028
O	0.6777790626440677	1.3427709185322037	0.856066020832203
O	-2.5420593573559325	-0.5878705624677965	-2.246261549167797
O	-2.0738426373559324	-0.4419618124677964	-1.121836844167797
O	-0.8087802313559322	-0.4852773624677964	0.7736151908322028
O	-2.9740377473559323	1.7180919005322037	-3.155638989167797
O	-2.2093782873559324	1.5181611255322036	-2.265740759167797
O	-0.8912381763559323	0.13595863053220358	-1.4501848231677972
O	-5.159139427355933	0.7176994835322036	-2.149293469167797
O	-4.637869187355933	1.7504020785322036	-1.7978065891677972
O	-2.8564886173559323	1.1742096094322036	-1.1602064881677971
O	-4.831491537355933	2.9673042475322036	-2.243235299167797
O	-10.836935377355932	-4.120958602467796	3.4925489408322026
O	-9.999872417355933	-4.674933592467797	7.096795020832203
O	-11.400891577355933	-1.3565070224677964	8.281491030832203
O	-7.256384687355933	0.17795174253220358	7.737256060832204
O	-5.248847937355933	-2.687457732467797	9.236987350832203
O	-2.3985441673559325	-2.675254202467796	6.740658610832202
O	0.16095768864406768	-5.353330052467797	7.129254340832203
O	1.8172689826440678	-0.5099018624677965	6.302048900832203
O	3.8692483926440677	2.9920508975322035	10.088219490832202
O	0.6035550826440678	4.221033857532204	11.217617990832203
O	9.599898122644067	12.647701547532204	4.985811380832203
O	8.131796582644068	9.234802407532204	4.257974720832203
O	5.316022512644067	6.856803967532203	-1.3220803501677971
O	4.454325772644068	6.236035407532204	-4.805182849167797
O	6.871309932644067	8.352603977532203	-7.123636359167797
O	8.672004452644067	9.863331447532204	-4.272537189167797
O	8.760120632644067	11.035995237532203	-0.7463224741677972
O	6.063592052644068	12.933710147532203	1.0467144808322026
O	-1.7560343573559325	13.069671747532203	3.0353026108322028
O	-2.2881664773559325	9.418443597532203	3.407686130832203
O	-4.804308247355933	7.915820507532203	1.320098870832203
O	-6.579351287355933	6.379830347532203	4.195595600832203
O	-5.985937837355933	6.120579767532203	7.832068440832202
O	-3.769961227355932	3.1626934075322035	8.166272370832203
O	-2.7357401973559323	1.1728823031322035	11.167741290832202
O	0.5818692626440677	-0.1736817524677965	10.170898990832203
O	2.796948812644068	-2.7676196824677968	11.829679890832203
O	-0.3918081693559323	-3.9900641924677966	14.836069290832203
O	6.378425292644067	-11.122660752467796	-2.0522729291677972
O	4.679669532644067	-9.140471652467797	0.7949745908322029
O	1.4727445826440677	-10.239915252467796	2.3201286108322026
O	-0.3660583173559323	-6.972891952467796	2.4125612808322026
O	-3.738062967355932	-6.8290822524677965	4.060702610832203
O	-3.3618228973559323	-4.1959065924677965	-0.5192464051677972
O	-4.826769547355933	-5.683101922467797	-5.235687409167797
O	-1.7658229873559321	-7.6901874524677964	-6.012445419167797
O	0.9461304226440678	-5.748513632467796	-7.640270059167797
O	-4.538820577355932	0.6788820925322036	-15.056123309167797
O	-3.3661702073559323	3.2622939275322036	-12.530144409167796
O	-2.581792057355932	2.426889507532204	-8.879815429167797
O	-0.4413001753559323	5.6041908475322035	-2.6289722891677973
O	0.6470355426440678	8.095668937532205	-0.6747647671677972
O	2.541457792644068	10.042147317532203	-3.239609999167797
O	0.5185570926440678	9.407946697532203	-6.225713849167797
O	-0.010006486355932265	6.725193787532203	-8.754493019167798
O	1.8175390726440677	4.441145777532204	-11.074622909167797
O	0.8064885226440678	2.8811204975322036	-14.347100609167796
O	7.260069442644068	-0.5733991924677964	-11.696069909167797
O	6.806642342644067	-1.5027544124677965	-8.214426049167797
O	9.730064522644067	-2.0161780024677967	-5.944365929167797
O	7.975783462644067	-4.925597352467797	-4.202474779167797
O	5.789866552644067	-7.769733402467796	-5.050625989167798
O	2.582278862644068	-7.178899702467797	-3.100174299167797
O	0.13782213964406775	-9.912882852467797	-2.425539619167797
O	-3.118523787355932	-8.213342922467797	-1.8419103591677972
O	-6.430542107355933	-9.365256252467796	-0.5146734712677972
O	-7.666085377355933	-10.680276752467798	-3.830784899167797
O	-5.274856507355933	-13.602507252467797	-3.506750209167797
O	-4.850075497355933	-13.684153452467797	0.3056786438322029
