37

O	20.337422651622532	-5.739158710757515	15.626509707529447
O	21.175174140540364	-2.251196799530081	15.810001723431778
O	22.869169549432026	-2.9041979511620872	17.365405186187125
O	18.949120851518366	-5.2730149721849555	15.139316727757587
O	21.26929642404003	-0.14144956030865607	18.79146023126428
O	21.08600575584009	-2.914854169289199	20.248951034597233
O	20.1068464906269	-5.504274796565676	17.072375149822673
O	21.171644160947892	-1.1160884441009058	19.70177765607158
O	19.896139128801074	-3.3216566514554136	14.669334655213724
O	20.2972207906658	-7.057051559182499	14.942229430139086
O	21.242138353064266	-4.788540888203391	15.100397985221605
O	20.878792862189762	-2.3223120220126026	17.278543868992728
O	20.11044202596235	-1.0155484911391153	17.097789254542448
O	18.882175188551034	-1.646188421007325	17.57069278375232
O	18.305503398880507	-1.4294588428694015	18.77584517339575
O	17.90253900252985	-2.433449679820253	19.610233650112264
O	17.62195691628722	-3.589493715056673	18.933256924622217
O	18.29374612038678	-2.7129127975494067	16.990839159239233
O	17.341484778785794	-3.538869918223915	17.562965222811933
O	22.119891167399253	-1.9301776693141122	17.72289685187914
O	22.205094012194586	-0.48627359027628414	17.78960061034435
O	20.44212227287604	0.899904529552781	19.137661403970462
O	20.411156084247352	0.8214059895139818	20.654384370838002
O	19.830809786907924	-0.21470230968248671	21.292364366160665
O	19.929134395179627	-0.3643031556436924	22.645326191551725
O	20.619483090868005	0.5956471239250836	23.32336483372648
O	21.338235251866493	1.5175437098213056	21.302221190849536
O	21.268032060165602	1.6024406694035753	22.665871273172204
O	22.413847788366358	0.6508706397300474	19.484065705321555
O	22.019108379462587	-2.198983801002027	19.886898884275464
O	24.968268180140573	-0.0777396767470786	21.259633756147476
O	23.991739320786017	-0.33494134091409933	22.236102080941766
O	23.0099807324367	-1.1362459869906165	21.686083560573984
O	23.23040444260774	-2.1939081139010352	20.798454365811796
O	24.352290282940576	-1.8134743986033688	20.01724794075568
O	25.41571723406517	-1.341484670806938	20.807433347103782
O	21.098078093277355	-3.3979016953357135	15.080120855786253
