92

O	1.5706603346725487	2.6919587979607846	4.446977771372549
O	3.6367509246725485	0.48508767296078453	2.5199093013725484
O	1.8366579946725488	0.5887930809607845	5.308647091372549
O	4.440981634672548	-0.4971487020392156	3.0018876613725487
O	2.0749820546725486	1.8974963879607845	5.646291091372549
O	0.4355102146725487	3.4586333779607843	1.2214894813725488
O	-2.283214205327451	-3.2328063420392157	3.7176854213725488
O	-0.5676559234274513	2.7565059679607846	0.6534157323725487
O	0.5601893846725488	4.681661947960785	1.7756316213725487
O	0.14932507867254874	5.229521587960784	2.9735429413725485
O	-0.31665502732745127	1.7101705669607845	-0.2308588896274513
O	-0.9294753563274513	-1.8333777720392155	5.070021811372549
O	0.5891360146725486	0.8084123122607845	0.2392810553725487
O	-0.2453780133274513	-1.6960309820392154	3.9151698713725485
O	1.6568555446725488	1.5128512959607845	0.4278460423725487
O	-0.6867795923274513	-1.8597901720392154	2.6783690313725486
O	1.614062444672549	2.7641012279607846	0.9625637113725486
O	-1.8355590853274513	-2.5966682220392157	2.5961991113725484
O	0.6729203146725486	-0.8141817520392154	-0.4238751626274513
O	-2.1875641653274513	-2.3732029920392153	4.828756711372549
O	0.6086077946725488	-0.6438223520392155	-1.8610803686274513
O	1.8321084346725487	-1.6093402420392156	-0.10861071062745131
O	-0.9063419553274512	-1.4580478120392153	-0.3195380486274513
O	-1.6404432253274512	-2.0578981520392157	-1.3137921586274512
O	-3.074298295327451	-1.7186016120392156	-1.1798413886274512
O	-3.5534986253274514	-2.3728013120392157	-0.0026110759274513007
O	-4.018583145327451	-1.4805687820392153	-2.2097185886274513
O	-1.5735013753274514	-0.17498854203921543	-0.5928264166274513
O	-2.382158575327451	0.1063914669607845	0.5881876053725487
O	-3.2469542353274514	0.7666413288607845	-0.1280294859274513
O	-1.7066987953274513	-0.02461082403921544	1.7598987113725488
O	-1.2521470613274512	0.4455208749607845	2.9024791013725486
O	-0.11513581732745126	0.9884963159607845	3.4699590713725486
O	-0.44558155542745126	2.1390457279607844	3.6525661213725487
O	1.2225558146725488	0.8811174065607845	3.2949676113725483
O	2.1576982646725487	1.9700771779607846	3.3965498813725485
O	3.013761034672549	0.17901949196078448	4.635359641372549
O	2.4003668546725487	-0.7745126920392156	3.8309127113725485
O	2.4626336146725487	-0.5109883020392154	2.5430233913725484
O	3.4003853146725485	1.3816088469607846	3.7670983913725484
O	-0.6970843483274513	-1.0915630320392156	1.5178670813725488
O	-1.3731268403274512	6.506369647960784	-11.082622708627452
O	-0.48654912062745126	3.0374379179607844	-9.842942888627451
O	3.062139254672549	1.6357354009607845	-9.853153098627452
O	3.370381674672549	0.15012755096078456	-6.550349228627451
O	6.4614748746725486	-1.7493763320392153	-5.318789048627451
O	4.773026614672548	1.5533865759607846	-1.4367863686274511
O	6.369972184672548	6.632794097960784	-0.6705610376274513
O	4.5722098946725485	8.303953557960785	-3.4797168986274514
O	1.1540667546725487	9.697126067960784	-2.5138870286274515
O	2.3941132746725486	8.580830907960785	7.519220611372549
O	-1.8983009053274513	3.382845087960784	7.799733661372549
O	-4.392823605327451	0.6860896029607846	8.564299131372549
O	-5.352774035327451	0.9527167119607846	12.116786591372549
O	-2.7139256753274514	9.600538437960784	8.749253211372547
O	-1.9005217153274512	13.274652517960785	8.017034701372548
O	-6.279872385327452	10.714429817960784	1.5466046013725487
O	-5.013473565327452	7.884603887960784	-0.47831871962745126
O	-7.349419965327452	5.386853637960784	-2.0616096486274516
O	-5.5969719953274515	6.016513717960784	-5.433395288627451
O	-2.644148545327451	7.890271357960784	-6.856504568627451
O	0.42407781167254877	5.7739636879607845	-6.208293358627451
O	4.006276384672549	5.872407957960784	-7.300639628627451
O	6.145475114672548	4.302745577960785	-4.607053768627451
O	9.715384924672549	3.148376867960785	-4.414312818627451
O	11.184386324672548	6.5959710079607845	-3.8550664886274513
O	10.397730524672548	7.474479927960784	-7.458353768627451
O	10.327075724672548	3.9406596979607844	-8.907035288627451
O	6.986967574672549	-11.754968882039215	2.2187343613725488
O	6.826113994672548	-8.430959332039215	0.2591993113725487
O	6.400986414672548	-8.579478552039214	-3.5002172386274513
O	3.7457185846725487	-5.924358412039216	-3.9607820986274516
O	2.561224414672549	-4.817904402039216	-7.436863038627451
O	-1.3187958003274511	-5.2907584120392155	-3.7766119386274513
O	-4.668856975327452	-9.640218182039215	-3.3478694786274517
O	-2.2337012553274516	-11.644407082039216	-1.2249352786274512
O	-2.5196195153274514	-11.119813482039214	2.4969060613725484
O	-9.876669605327452	-5.130620312039215	3.0421149913725487
O	-6.204584695327451	1.2980726589607845	2.4913972713725485
O	-4.992568695327451	4.664791307960784	3.7831427813725487
O	-6.306050095327452	4.672694417960784	7.266695831372549
O	-9.064845445327451	2.2457613779607843	6.839996691372549
O	-9.948820945327451	-1.4377681820392156	6.813121651372549
O	-9.33527192532745	-4.696984722039216	8.591381581372548
O	-11.205049275327452	-7.961319772039215	8.748295421372548
O	-1.3501770133274513	-7.812596082039216	9.032340821372548
O	2.159527504672549	-6.852702682039216	10.067706291372549
O	3.624873834672549	-8.103779142039215	6.777054551372549
O	3.1252614746725484	-10.989420482039215	4.444852881372549
O	2.107998144672549	-9.359298882039214	1.1037515113725487
O	2.3152340246725487	-11.133975982039216	-2.2105224686274516
O	-0.1847777073274513	-9.446491682039214	-4.502431328627451
