103

O	0.8698557894897958	5.266961939346939	-2.805591513734693
O	-0.20630225251020418	4.494356169346939	-2.522292638734693
O	1.6825411384897957	1.779540911346939	-3.158933233734693
O	0.13337359848979582	-0.433063970653061	-0.935334555734693
O	1.064203217489796	2.386868591346939	-0.23725415373469305
O	2.756530758489796	-0.36311805065306113	1.241122116265307
O	4.190036408489796	0.09020902934693886	-1.955039489734693
O	1.365995278489796	5.423253059346939	-4.144407363734693
O	0.4510617654897958	5.8980332393469395	-4.907771553734693
O	-1.5201243915102043	4.096048989346939	-2.542454034734693
O	1.5928486884897959	1.762835351346939	-4.539724643734694
O	0.7787489074897959	-1.3287318806530612	-1.8433634937346932
O	1.319666923489796	3.7753552893469386	-0.04490472373469312
O	3.826312748489796	-0.8476023006530611	2.0359880662653067
O	4.307641108489796	0.929353120346939	-3.0566339937346934
O	1.5372515484897957	-1.2005546606530613	-3.037597393734693
O	0.14708192048979582	1.708785489346939	-4.885350183734693
O	-1.8893508715102039	4.537917959346939	-3.923506743734693
O	2.0229674184897957	2.692627689346939	-5.477717503734693
O	2.542116118489796	3.979808539346939	-0.7132595567346931
O	2.941426458489796	-2.1250529206530615	1.852189146265307
O	4.525389048489796	2.226767295346939	-2.549588923734693
O	-1.763805361510204	2.828027259346939	-2.160344056734693
O	2.3389737384897957	-1.1751094706530612	-4.169539663734692
O	0.45102002248979584	0.8434979553469389	-5.965725073734694
O	3.796713168489796	4.595656099346939	-0.9228006427346931
O	4.093518798489796	-3.026213560653061	2.0212684862653068
O	4.422042708489795	3.205793059346939	-3.5904892237346933
O	3.415141378489796	-0.8682885606530613	-5.025272793734693
O	4.140906798489795	5.6498356093469395	-1.852473956734693
O	5.098567438489796	3.0924485593469386	-4.794201383734693
O	5.477600868489795	-2.8749893506530606	1.615677636265307
O	4.178082848489796	-3.112959820653061	3.2970552362653067
O	5.390711428489795	1.900476615346939	-5.235708143734693
O	2.647079248489796	5.852017309346939	-4.701914903734693
O	6.553209098489796	1.299172723346939	-4.695613913734693
O	4.942898928489796	1.604742873646939	-6.540463433734693
O	0.05491233148979585	3.285575649346939	-3.3859741237346928
O	1.3670854084897957	3.032202839346939	-3.0883189137346934
O	-0.060945317510204156	3.7197991493469393	-4.5826877337346925
O	0.7710081864897959	0.9037305673469389	-2.688330203734693
O	0.15616751648979582	0.8323377193469389	-1.538392343004693
O	-0.24958987551020417	0.665192953346939	-3.350129283734693
O	0.16052241548979584	0.25448127934693887	0.314381256265307
O	-0.04827029651020415	1.723948915346939	0.19778448626530687
O	3.3445753884897957	2.242865969346939	0.27336870626530696
O	2.267899798489796	1.6677385689469388	0.08671859626530698
O	2.084212228489796	0.779474207346939	1.169270656265307
O	3.413814898489796	-1.8814673506530613	-0.29233187373469316
O	3.129862128489796	-0.7431143806530611	-0.07454210373469317
O	3.236238188489796	0.20165454934693883	-1.042625763734693
O	4.327115728489796	-2.161320250653061	-2.388944557734693
O	4.862715038489796	-1.128352490653061	-1.991415681734693
O	5.851305478489795	-1.5460057106530611	-1.0829681707346932
O	-0.2644546285102042	3.2617505593469387	12.269652236265307
O	-1.694309811510204	1.035400928346939	9.526200936265308
O	-5.246052691510204	1.305204273346939	8.303201526265306
O	-4.726274661510205	1.177843065346939	4.597512376265307
O	-7.727597791510204	1.229565302346939	2.207462126265307
O	-4.250851661510205	4.171286489346939	1.0118602562653067
O	-3.541038711510204	9.781177059346938	1.884504466265307
O	-2.292070771510204	9.56536713934694	5.314190266265307
O	1.5519840384897958	9.510155159346938	5.522480616265307
O	4.665506668489796	11.988311789346938	-3.944779813734693
O	6.656974098489796	5.151896259346939	-5.557094533734693
O	7.909389828489796	1.7193399633469388	-6.758482693734694
O	10.159243148489795	8.055638019346938	3.9976372562653073
O	7.219050938489795	5.858562349346939	4.319553606265307
O	7.668242568489796	2.3726483153469387	5.125750776265306
O	5.275819268489795	2.802018169346939	8.128048156265308
O	2.735164058489796	5.152413039346939	9.281201036265307
O	-0.39405074951020413	4.8345293893469385	7.295702246265307
O	-3.8855465715102038	6.071768379346939	7.727638736265307
O	-5.334933291510205	6.393498299346939	4.3045273162653075
O	-8.979124411510204	7.025575029346939	3.113342756265307
O	-9.016422521510204	10.080344109346939	7.374804096265308
O	-10.548780781510205	6.577571709346939	7.198553326265307
O	-9.310082191510205	-5.450860660653061	-8.333295693734692
O	-8.641965671510205	-3.0571390406530607	-5.337598503734693
O	-9.582353711510205	-4.150739840653061	-1.8652699167346931
O	-6.380191251510205	-3.1329742806530607	-0.02050154373469315
O	-6.132041931510204	-3.5215676006530607	3.7232322762653065
O	-1.7001803215102043	-5.132705210653061	1.587877986265307
O	-0.5709863305102042	-10.366830710653062	0.16429810626530683
O	-2.515410131510204	-10.314428910653062	-3.077097513734693
O	-0.6441865885102042	-9.143301610653062	-6.152885513734693
O	10.725880418489796	-9.265107510653062	-3.874427633734693
O	8.056701518489795	-6.965434840653061	-2.554768993734693
O	7.3686270184897955	0.459383679346939	-0.35448248373469315
O	8.049508848489795	3.802855359346939	-0.5830526477346931
O	10.443419018489795	3.9987314793469393	-3.448897353734693
O	11.680784518489796	0.518114809346939	-3.370081493734693
O	10.971533018489795	-3.016003610653061	-4.639761703734694
O	9.764710698489795	-5.1300605306530604	-7.520411713734694
O	10.348611718489796	-8.756320910653061	-8.441502633734693
O	2.0471816684897957	-4.365912650653061	-11.111056543734692
O	-0.2832791165102042	-1.8504140706530612	-12.675608463734692
O	-3.356257231510204	-2.8900763906530607	-10.511964273734693
O	-4.834273251510204	-6.03547036065306	-9.198021823734694
O	-4.662918931510204	-5.977406020653061	-5.387400033734693
O	-6.646486881510205	-8.040641040653062	-3.0036548537346928
O	-4.563488891510205	-8.012947410653062	0.17211995626530685
O	-5.572721571510204	-9.324606910653062	3.570745936265307
