114

O	-0.9354428926545468	-0.48377439218181806	1.3881682270018187
O	-1.344670677654547	0.18498056481818204	0.4132831670018189
O	-1.4019139106545468	3.7581344978181823	-0.11812223699818114
O	1.2355799423454532	1.9895414108181821	1.3283287470018188
O	2.8057103123454534	1.4878680218181821	-1.506064981998181
O	1.4128050923454532	-1.5268643621818179	0.09726160700181885
O	-0.8349148326545468	-1.417759632181818	-2.8065573729981814
O	2.2663804423454534	-2.288536902181818	-3.4668421029981813
O	-1.393113036654547	1.5692283988181819	0.21586414700181877
O	-2.304576897654547	1.979587290818182	0.9496768370018189
O	-2.2270118376545467	-0.1324234221818179	-0.5572820849981811
O	-1.666186217654547	4.174077067818182	1.274569067001819
O	2.0689411523454533	3.2126977778181818	1.347754537001819
O	2.383215952345453	1.384899928818182	-2.790976862998181
O	2.6590738223454533	-2.205852792181818	-0.2664130959981811
O	-1.4818142876545468	-2.5425628721818176	-2.3968363429981814
O	3.5203196623454533	-2.2013768521818182	-2.826968772998181
O	-1.734609967654547	0.693124359818182	-1.6192702579981813
O	-0.8648267126545468	3.8030368678181823	2.360686437001819
O	-1.293606220654547	5.626310507818181	1.207819387001819
O	1.9027609123454532	4.351182007818182	0.5012382170018188
O	1.0484656223454532	1.878227641818182	-2.447540082998181
O	1.7988053823454533	-3.315223262181818	-0.42841922199818117
O	3.7246237423454533	-1.017156352181818	-3.4192231829981807
O	-2.764159917654547	0.9267531638181821	-2.5260237229981812
O	1.5963568723454533	5.786759727818182	0.7741868370018188
O	0.06526004634545313	1.754330236818182	-3.2120826329981815
O	2.896448442345453	4.515231117818182	-0.5232536789981811
O	1.3084479523454533	3.2316520878181816	-2.512907272998181
O	1.5409565823454532	-4.077685002181818	-1.521338195998181
O	3.1520774423454534	-0.908104572181818	-4.7998353729981815
O	3.4660950623454534	-1.4793867721818181	-6.074698842998181
O	-0.6664190886545469	2.609609807818182	-3.931037202998181
O	0.4549443783454531	4.230563007818182	-2.856150722998181
O	-2.942227787654547	0.629217654818182	-3.853655182998181
O	2.678241802345453	-4.585039842181819	-1.6604739249981812
O	0.6782880523454532	-4.594454742181818	-2.376565112998181
O	-2.8925777176545466	0.059108667818182026	-4.942759232998181
O	-0.8006552716545469	3.7957232678181816	-3.2887764429981807
O	-3.075216097654547	-1.3555022021818182	-5.099426262998182
O	-2.196500497654547	0.679968019818182	-6.029959652998182
O	-0.01522775765454687	3.308488017818182	-0.004940582998181231
O	-1.5150220376545467	2.517651727818182	-0.7934714119981812
O	-0.18977687265454687	4.340989277818182	-0.4320122109981811
O	1.4882151923454532	1.2703120818181821	0.13980980700181878
O	0.05883924834545312	2.405680597818182	1.0548953270018189
O	3.3564508723454534	-0.19463114218181787	-0.4356503819981812
O	2.3974147823454532	0.123619581818182	-1.164701543398181
O	1.5715123123454533	2.016438490818182	-0.8622854299981811
O	-0.1536005556545469	-2.4188058421818184	-0.9046104219981811
O	0.7015633123454531	-1.6343274521818179	-1.221369878998181
O	1.545796652345453	-0.236660722181818	-0.12593050599818112
O	0.1524255863454531	-0.632012822181818	-4.503020482998181
O	0.3653257003454531	-1.219894152181818	-3.4564739929981814
O	-0.2165171236545469	-0.774693502181818	-1.6921742269981812
O	2.8280282823454534	-4.047714972181819	-4.4730427529981815
O	2.096258852345453	-3.0079722221818184	-4.5774443729981815
O	1.5706260523454532	-1.260102852181818	-3.090440082998181
O	0.806971132345453	-3.057035512181818	-5.097898532998181
O	12.802750172345453	-2.809203202181818	4.3192019970018185
O	9.108390382345453	-3.5696797121818182	4.821130867001819
O	7.270824812345452	-2.7615548921818176	8.04149097700182
O	4.186285212345453	-1.091021662181818	6.5357972770018185
O	1.4914925223454532	-0.006212342181817876	8.913729257001819
O	2.735583232345453	3.1392749378181817	5.324280877001819
O	5.978911462345453	7.799455657818182	5.949647367001819
O	9.226278242345453	5.9876823978181815	5.5518155470018185
O	10.388486872345453	5.9155492478181815	1.901476237001819
O	3.8546957423454535	12.414136317818183	-2.285202242998181
O	0.42230653434545307	7.454935857818182	-5.330454342998181
O	-1.695959597654547	5.019925057818182	-7.396281392998182
O	-3.216755207654547	7.298402847818182	-10.07405212299818
O	4.9099591423454525	11.403682017818182	-7.368444132998182
O	10.531470372345453	5.679219057818182	-6.751685772998181
O	9.117147712345453	3.555490797818182	-4.174241802998181
O	8.236901672345454	0.158394726818182	-4.859969252998181
O	10.062477172345453	-1.1569415921818178	-1.9045799259981813
O	11.908601072345453	0.27779053081818206	1.010287997001819
O	9.237762702345453	0.896268712818182	3.5412388770018186
O	9.307176582345452	1.7429324678181821	7.181973687001818
O	6.1339385623454525	3.6133305378181824	7.786049157001818
O	4.453378342345453	4.758646287818182	11.02080095700182
O	7.329733112345453	2.3697159578181823	13.56333755700182
O	-10.893885427654547	-0.2680982821818181	7.1811333170018194
O	-7.094293697654547	0.08070742981818202	7.695867057001818
O	-4.997461627654547	-2.679696312181818	9.139531657001818
O	-2.106019157654547	-2.6515378921818176	6.692027587001818
O	0.8529671523454531	-4.905338162181819	7.377243687001819
O	-0.6338718186545469	-4.587287342181818	2.1676928770018185
O	-3.812658177654547	-8.226607382181818	-0.18584448099818107
O	-7.114598797654547	-6.849293992181818	1.039275947001819
O	-8.694786757654548	-4.2121431421818185	-1.132829410098181
O	-6.423825357654548	-8.172888902181818	-11.548929742998181
O	-4.084545417654547	-5.204866082181818	-11.426036442998182
O	-2.807462967654547	-3.847530202181818	-8.19568981299818
O	2.074997252345453	1.512754099818182	-5.954122472998181
O	4.194594012345453	4.115200297818182	-6.027305592998181
O	2.623645642345453	5.691061277818182	-9.01671227299818
O	1.415711892345453	2.6636644578181823	-10.760726802998182
O	-1.498931877654547	0.312412761818182	-10.758836872998181
O	-5.248528067654547	0.11944641281818202	-10.589122392998181
O	-7.688404797654547	-2.426811282181818	-12.00079714299818
O	-9.678759317654547	-4.4466897121818185	-9.421573802998182
O	-11.370789127654547	2.345297427818182	-6.988798312998181
O	-9.567586897654547	2.5943593278181822	-3.8750022929981816
O	-9.822241397654548	5.4968196778181815	-1.590585009998181
O	-9.566355637654548	3.232772957818182	1.492714207001819
O	-10.665795027654546	-0.14655987218181799	2.6502156670018184
O	-7.423893167654548	-2.069023562181818	3.312389347001819
O	-7.101141627654547	-5.147746492181819	5.384590057001819
O	-3.9260720376545466	-6.764658582181818	4.163436447001819
O	-1.900721177654547	-9.679982682181818	5.440545447001819
O	-4.065432217654547	-12.383262582181818	3.9566520070018187
O	-6.7556911976545475	-11.584693682181816	6.4622499070018184
