81

O	-2.7727126421304344	3.5046184327391314	-0.1521764805217391
O	-0.7058648471304345	3.4185739927391317	3.083721111478261
O	-2.6401190521304345	2.8355979627391315	2.0817954314782607
O	-0.5547603641304345	0.21815352273913158	1.9637535314782608
O	-4.264444832130435	2.0985447817391316	0.5587347734782608
O	-0.10581095913043448	1.3661029854391316	0.8053392864782609
O	-1.2378156111304346	4.5015685727391315	1.2286176414782608
O	-1.7520229911304344	3.8658903127391313	2.202023721478261
O	4.191100527869565	-0.46642752726086845	4.978145421478261
O	0.38290238786956543	1.4789994197391314	3.724930611478261
O	-2.8443945621304345	2.2656455347391313	0.7880337724782609
O	-1.4833580081304345	0.48033541373913147	3.016885901478261
O	0.5166420978695654	3.0516797527391315	2.512336151478261
O	-1.5067480701304345	-0.28980178726086847	1.0346543454782609
O	1.0574141578695655	1.6722420847391315	2.660064981478261
O	-3.4977131721304344	4.285465982739131	0.8256711754782609
O	0.48113412786956555	3.3329392727391314	1.061173167478261
O	1.9831067578695656	3.1517665327391313	1.1698799604782608
O	2.9460825678695657	2.5730763427391317	1.9392446314782608
O	2.3773101378695656	4.202860592739132	0.4991957854782609
O	4.185875577869566	2.3081366557391316	1.364858921478261
O	3.6422670878695653	4.173609952739131	-0.01103527052173911
O	4.554218487869566	3.4211180927391314	0.6681061754782609
O	1.1851765378695656	1.1281411027391315	1.256054061478261
O	-0.20617724013043448	1.1282567127391314	-0.5315238395217392
O	1.0549764678695654	1.0843890067391315	-1.1731452985217392
O	0.8898559878695655	-0.6714462072608685	2.349762031478261
O	0.8606194678695656	-1.0985829372608684	3.627792421478261
O	1.9205002578695654	-1.2197811072608684	4.550649421478261
O	3.1410251378695655	-0.8178507472608687	4.079061101478261
O	3.3436141978695657	-0.6893125772608686	2.730136161478261
O	2.1930012678695654	-0.7589943972608686	1.9423353614782608
O	1.3653368878695655	2.4078811827391315	-1.7086734185217392
O	2.2847447678695656	0.5003153207391315	-0.7119365845217391
O	-4.587936642130435	3.5247393427391316	0.9918297234782609
O	-11.191241702130435	-3.636975167260869	3.477521861478261
O	-9.210895092130434	-2.6983917372608683	0.4049886944782609
O	-7.965339502130434	-5.011649937260868	-2.301793328521739
O	-4.4006993621304344	-4.055633747260869	-2.647999398521739
O	-2.0545076221304344	-5.666941627260869	-5.120909878521739
O	0.3861596978695654	-5.222149617260868	-0.5382696365217392
O	0.45734235786956545	-8.901110437260868	3.5097650114782613
O	-3.0115134821304346	-8.497180617260868	4.864186421478261
O	-3.0968826021304343	-5.860301947260869	7.641558321478261
O	6.677338507869566	-4.792878027260868	8.995634441478261
O	6.624086437869566	1.2050386567391316	6.456143281478261
O	7.499741687869566	4.7587587927391315	5.637878731478261
O	-1.6713340431304347	0.7763544167391315	12.93155197147826
O	-2.620473132130434	0.6727078747391315	9.316283061478261
O	-4.258844462130435	3.6680263427391315	7.679141351478261
O	-7.096200772130435	1.1899322797391314	6.627950581478261
O	-7.800272062130435	-2.4047539772608686	6.3398175214782615
O	-5.9340175621304345	-3.993958517260869	3.4847748214782612
O	-6.159725302130434	-7.341376567260868	1.8134818214782609
O	-2.7780508121304344	-8.14441272726087	0.3927485564782609
O	-1.4008917141304345	-10.709959137260869	-1.9802220485217392
O	-4.9822851621304345	-13.709006837260869	0.5701041194782609
O	-5.613846572130434	-12.192264537260868	-2.8850512185217387
O	7.324515977869565	-0.8157430072608687	-11.59003492852174
O	4.606109187869565	-2.3647399272608687	-9.36834081852174
O	0.9692614378695654	-2.3434317372608686	-10.55013212852174
O	-0.7175845041304345	-1.2220840672608686	-7.298348778521739
O	-4.496522562130434	-1.1491090572608686	-6.867324228521739
O	-2.2553590121304348	3.2262834127391313	-4.717503328521739
O	-1.4022901951304345	8.03263161273913	-7.240718348521739
O	1.7069661778695653	6.948603662739131	-9.14295138852174
O	3.748733597869565	15.01696556273913	1.2342948614782607
O	2.5089280878695654	11.554621262739131	0.8433173654782609
O	1.1399355878695654	5.497398462739132	5.272409671478261
O	1.9633060178695656	2.9170505627391314	7.924574451478261
O	4.946877417869565	4.510370952739132	9.37386091147826
O	4.3812740578695655	8.10245633273913	8.35467552147826
O	5.011060727869565	10.45262182273913	5.3875901314782615
O	7.662957897869566	11.385521862739132	2.817405421478261
O	10.706689497869565	5.477684672739131	-2.735132108521739
O	12.195606497869566	1.9874663637391317	-2.857783228521739
O	9.767875797869566	0.9073897287391315	-5.558734778521739
O	4.475651607869565	2.384459202739132	-8.19522265852174
O	1.7557598878695657	2.5668959027391316	-10.750360528521739
O	-1.4074114761304344	3.7345667227391317	-8.92329311852174
O	-4.989989442130435	3.7602464927391317	-10.08153302852174
