106

O	2.112755473866667	0.5206401048098039	1.1592324979231377
O	3.0953659238666673	0.580830669309804	2.0116735279231377
O	6.677478953866666	-1.114568740690196	3.8601735979231373
O	2.433829613866667	-5.086211500690196	1.1525048179231376
O	-1.4335746561333331	-3.0989058606901962	0.10846894792313755
O	-3.077386276133333	0.9225237183098041	-3.8423125120768624
O	-2.4350579261333327	-0.40261586469019606	-5.507284432076863
O	-0.8172565461333329	1.051911300309804	-4.596043712076863
O	5.652802333866667	-1.857895800690196	3.6073443979231374
O	3.500659383866667	-4.653597560690196	1.7522602379231373
O	4.679369333866667	-2.806072520690196	-0.46726818607686255
O	6.428993073866667	-3.1712823306901963	0.9045901179231375
O	4.667385893866666	-1.5372669506901961	-0.026622426076862493
O	6.840306713866667	-1.8550274006901963	0.7013444179231374
O	1.726956643866667	-2.340732410690196	2.7473190879231373
O	1.7204970238666668	-2.985268630690196	0.6813616679231376
O	0.9567562858666671	-1.2570015706901958	2.5452497779231376
O	1.065119793866667	-1.887805370690196	0.38805903792313745
O	2.337458173866667	-0.31255241669019607	-2.3682469020768626
O	3.095356813866667	1.4298163793098038	-1.2712052000768626
O	2.822799243866667	-1.161589820690196	-1.4882700110768625
O	4.127425583866667	-0.15632549269019602	2.5558481079231377
O	5.173056573866667	0.430642906629804	2.4976603679231375
O	0.386350186466667	-2.632791330690196	-2.2178483720768627
O	0.441327302966667	-0.559702377690196	-3.5846324920768624
O	0.801441284866667	1.814050289309804	2.1728269579231374
O	-1.2195440961333328	1.445978559309804	0.8785976179231374
O	2.822275493866667	1.752678069309804	2.8326310279231373
O	3.8949110938666673	0.596534410309804	-0.6171437030768625
O	4.455749133866667	-1.6211866306901963	4.354934667923137
O	-1.730669036133333	0.035040633309804003	-0.9845306056768626
O	3.4995564738666673	-3.412383020690196	2.3717538179231377
O	-1.1736686561333332	1.4485589793098042	-1.2715274980768625
O	-0.730102286133333	-0.477796722690196	-0.08801867807686248
O	1.0244629048666671	1.773590239309804	-2.2090365620768626
O	-0.528609369133333	-0.511907177690196	1.3248645779231376
O	-0.8120620361333329	-2.5292270206901963	-2.054595772076863
O	-0.45921835613333295	-0.29274529069019606	-2.8061236020768625
O	0.999893902866667	1.1553572273098038	1.0997735179231376
O	2.524364173866667	-2.6554137806901963	1.7351512479231377
O	2.207806523866667	0.9191465443098039	-2.0736660320768623
O	0.883030475866667	-1.022467970690196	1.2429266179231373
O	5.910205403866667	-1.031390060690196	0.16825759792313755
O	3.793401933866667	-0.7118307806901961	-0.7577722290768625
O	-1.6147875761333328	-0.9203225106901961	-3.4773375420768624
O	5.641333353866667	-3.634772090690196	-0.1158361710768625
O	3.762870983866667	-0.504808436690196	3.862092777923137
O	-1.2581894461333332	-2.236673740690196	-3.4190133020768627
O	0.278109004066667	-0.15660292869019599	-1.7366563230768626
O	-0.9376587861333331	-3.481293060690196	-1.1136080450768626
O	3.2007312138666673	2.6614285593098037	1.7323398879231373
O	3.919828753866667	1.7832460693098038	3.7932733679231374
O	-1.9621380361333327	0.173595534309804	-4.262297352076862
O	-0.17288072113333297	0.636203068309804	0.6055314379231376
O	0.20976812386666702	1.201622985309804	-1.2948118080768625
O	-10.969571116133332	-6.768635200690196	1.8357783579231373
O	-9.751297216133333	-3.2181316106901963	1.1865476979231375
O	-9.841488016133333	-0.444588938690196	3.7313372979231376
O	-6.538443596133333	1.061994485309804	3.4066713779231375
O	-5.271054386133334	4.039736209309804	5.501264237923137
O	-1.7237828461333327	0.209701316309804	5.214287937923137
O	-0.8461011761333329	-3.7287137606901966	8.740330327923136
O	-3.5499277461333327	-5.965988980690196	7.861189737923138
O	-2.468716256133333	-8.590527210690196	5.342310997923137
O	7.500486943866667	-7.587753280690196	5.915776607923138
O	7.811092843866667	-4.499451720690196	-0.1738196110768625
O	8.524631573866667	-2.8594401806901963	-3.5521120020768624
O	12.123348683866668	-3.540333420690196	-4.151837652076862
O	8.765637743866668	-10.432000370690195	1.5899658179231375
O	1.5256963338666671	-12.807126770690196	-1.0832514620768625
O	-0.419589848133333	-9.729751970690195	-0.9154470351568625
O	-1.867451796133333	-8.467253040690196	-3.9808664820768627
O	-5.302533376133334	-8.289807270690195	-2.1151461820768622
O	-6.709975906133334	-8.518343720690195	1.2804742179231376
O	-6.055709446133333	-5.2937820206901955	3.0722179779231373
O	-7.313493146133333	-3.9468625306901965	6.318646477923138
O	-4.588165916133334	-1.6058115306901963	7.4657032579231375
O	-4.5978930661333335	0.8373308063098039	10.413162367923139
O	-4.1076270561333335	-1.720681260690196	13.149311967923136
O	-7.625401126133333	-2.819771950690196	12.677849467923139
O	-9.004589686133333	0.408327113309804	11.195252267923138
O	2.4407868538666673	13.396613029309805	2.0231370479231376
O	0.356231582666667	10.363596489309804	3.2024596479231375
O	-3.381340916133333	10.311867739309804	2.7708166679231376
O	-3.834915886133333	6.821263619309804	1.4279299579231375
O	-7.3348046661333335	5.383317039309804	0.8443669879231375
O	-3.9253672461333324	4.3766572693098045	-2.9537133820768626
O	-3.161983106133333	7.006360079309804	-7.830140782076863
O	-0.9563503261333329	9.653062179309805	-6.342223772076863
O	2.747489963866667	8.919508469309804	-6.388008942076863
O	5.1222697038666665	0.634545909309804	-14.021754432076861
O	3.431690833866667	0.492216770509804	-10.602483412076861
O	2.589482623866667	-4.002800890690196	-4.626991582076863
O	3.651328363866667	-6.649487280690196	-2.5368720520768626
O	7.168895553866666	-7.314400360690196	-3.6923297520768625
O	6.707526373866667	-6.093459520690196	-7.121373492076862
O	6.896032853866667	-2.978565590690196	-9.179397872076862
O	8.741050203866667	0.234372197309804	-9.794197852076863
O	9.151883483866667	2.453709059309804	-12.847059132076861
O	9.118915653866667	6.053385059309805	-3.9203627420768625
O	10.189737333866667	6.6867258893098045	-0.44557171707686255
O	6.939007743866667	8.573192629309805	0.3235697679231375
O	4.665504203866667	11.074873429309804	-1.1943970980768626
O	1.291252279866667	9.287920219309804	-1.4819287730768624
O	-1.977006036133333	11.000954829309805	-1.9720076020768624
O	-4.335398826133333	8.592238549309805	-3.5670636620768623
