110

O	2.031426649668627	1.5705797947549018	-3.9824656654117656
O	1.1726713396686275	2.2402544527549018	-3.2379009354117656
O	-0.7902182873313726	1.2663651957549018	-0.7445186724117654
O	-0.6846004463313726	-0.9682479772450981	2.0138850545882345
O	1.2510238196686274	1.943426402754902	0.9602221845882347
O	3.418729699668627	-0.28188129724509803	-0.4580074464117654
O	1.2124745596686275	-3.094526057245098	0.3272080125882346
O	2.932570289668627	-1.7611281472450981	3.1111995845882343
O	0.4699141576686274	2.557925772754902	-2.1051187054117655
O	0.7628659956686273	3.6252525227549017	-1.4805924954117655
O	1.3760750596686273	3.658329922754902	-3.5418644654117655
O	-1.6899954503313726	2.106977832754902	-0.12237509341176539
O	-1.5006504503313727	-1.2913360572450983	3.0178215145882343
O	1.0767268886686274	2.975385282754902	1.6124428445882346
O	2.859181889668627	0.22096641575490183	-1.6151012254117654
O	-0.055519269331372606	-3.408976327245098	0.8708962945882347
O	1.7804918296686274	-1.8776539072450982	3.903036704588234
O	2.503714769668627	3.4106759427549016	-2.5454918754117655
O	-1.9828542203313726	1.7313421587549018	1.2342966145882346
O	-1.3732123803313727	3.4453781327549016	-0.5406847124117654
O	-1.4630148103313727	-2.256318097245098	4.0276606145882345
O	1.0568842116686272	2.118878332754902	2.8553627945882347
O	1.6712808896686273	-0.49688970724509807	-1.6719624354117655
O	1.1494655496686275	-3.0347835772450984	3.6245421945882343
O	3.6285907896686274	2.9621944727549017	-3.3559940854117656
O	-0.9960228003313727	-2.0128023172450984	5.402865454588235
O	0.2188527262686274	1.4794122467549018	3.5361119445882343
O	-1.5973074103313727	-3.671445567245098	3.877927804588235
O	2.2744678096686277	1.412745779754902	2.8946587845882346
O	1.1288243326686274	-1.080792157245098	-2.7842450954117655
O	2.2019671196686277	-4.032916397245097	3.9157192145882345
O	3.5173057996686277	-3.712840637245098	4.319599254588234
O	0.6127303396686274	0.7457107435549019	4.583647784588234
O	2.7396101196686278	1.1613223867549018	4.104863064588234
O	4.899664049668627	2.616490572754902	-2.8696963754117655
O	2.109904279668627	-1.4783613772450983	-3.3372088154117656
O	0.10247062666862738	-0.46728909724509815	-3.3345524554117656
O	5.610260939668628	1.573547880754902	-3.0401902254117656
O	1.8472536596686273	0.7846277575949019	4.994513844588234
O	5.938755019668627	0.9764792667549018	-4.274714985411765
O	6.248952309668627	1.031634737754902	-1.8757109854117653
O	-0.40928555633137265	0.24519376475490184	0.1184000055882346
O	0.3181787856686274	1.6551739307549018	-1.2618690954117655
O	-0.10039629233137262	-0.7023772872450981	-0.44366118751176536
O	0.5372611316686273	-0.31472308724509823	1.7192021045882346
O	-1.3484752103313726	-0.4049859572450981	0.9152549545882346
O	2.8215605596686277	2.1272664427549017	-0.27488409981176537
O	2.5540009696686274	1.4537143837549018	0.6645143345882346
O	0.7960400946686274	0.7653920180549019	1.5205032145882345
O	3.6810731296686274	-2.1276165572450982	-0.8353211654117654
O	2.799630769668627	-1.5461447372450983	-0.1779007124117654
O	2.5173420296686277	0.19295605475490185	0.5049683945882346
O	3.0706950996686277	-3.417467677245098	1.1507409445882346
O	1.9629057996686274	-3.005495307245098	1.5507126845882344
O	1.5919936996686275	-2.0680640072450984	-0.4414886009117654
O	4.492522719668627	-0.5797934172450981	2.2386866445882343
O	4.179886569668628	-1.7172885772450983	2.6122644945882345
O	2.2047534896686276	-1.7226461572450984	1.9280490645882344
O	5.029523439668627	-2.6517365972450984	1.9303046845882346
O	-7.396859210331373	8.748021632754902	1.8664905045882345
O	-9.897294740331374	5.926203552754902	2.4326463845882347
O	-7.530674180331373	2.868586122754902	2.1663890445882346
O	-9.185205810331373	-0.528088967245098	2.4619513445882344
O	-4.713237780331373	0.043639663754901914	5.096800374588234
O	-4.366298650331373	1.1318516947549018	10.507553484588234
O	-4.958873350331372	4.793217492754902	10.265982184588234
O	4.797610479668627	-0.775251237245098	11.704858084588235
O	6.748672149668627	-0.7237015572450981	5.291504044588234
O	8.410932299668627	-1.3585313872450984	1.9222424945882346
O	11.696493759668627	-3.1091089572450983	2.7766405945882346
O	9.207177609668626	2.0573259427549018	10.315358484588234
O	6.384154019668627	9.309368722754902	7.742540804588234
O	3.4549019896686275	8.259086842754902	5.727763724588234
O	3.3013473396686273	9.113868582754902	2.1086457145882345
O	-0.2155220803313726	10.537062752754903	2.8162166945882343
O	-2.8368749403313727	10.704490532754901	5.543920524588234
O	-4.680833150331373	7.384857282754902	5.391245354588235
O	-7.839804730331373	6.169004262754902	7.025866304588234
O	-7.490415840331373	2.4560168627549017	7.424542934588234
O	-9.966653940331373	-0.23746900724509812	8.413162174588235
O	-13.474670540331372	2.650130442754902	8.214552644588235
O	-6.132711710331373	-11.007409337245099	-3.6658732654117654
O	-6.974656950331373	-7.888698247245097	-1.5952757954117653
O	-9.412339560331374	-5.266340157245097	-2.7738314154117654
O	-7.3705088403313725	-2.139539417245098	-1.9769410654117654
O	-9.018788650331373	1.2612508557549018	-2.5307730654117653
O	-3.793891240331373	0.7615351752549019	-4.051908545411766
O	-2.2492550603313726	0.1010465577549019	-9.300342765411765
O	-2.6544188003313725	-3.654765827245098	-9.115002705411765
O	0.38958707666862735	-5.524628227245098	-7.925152635411766
O	8.983910129668628	0.3258264437549019	-12.462378815411766
O	9.534867999668627	1.1801925477549018	-8.825603035411765
O	6.739227899668627	1.151440027754902	-6.378781805411766
O	5.208534279668627	3.454432862754902	0.45180385958823466
O	6.079089619668627	4.036236262754902	3.815463604588235
O	9.492993559668626	2.5647403627549017	3.995470114588234
O	10.527612759668628	3.0670624427549016	0.5111864185882347
O	10.203988059668626	1.2775189307549017	-2.7857314454117654
O	10.381247559668628	-2.0801694472450984	-4.501514895411765
O	11.247327159668627	-2.9920957272450983	-8.123148805411764
O	8.342579769668626	-4.4726807272450975	-10.159694475411765
O	8.197900089668627	-9.304507837245097	-4.505623805411766
O	5.034573569668627	-8.373712117245098	-2.9388463654117656
O	3.647250659668628	-10.323482337245098	-0.11977587741176537
O	0.06074095956862739	-9.707619437245098	-1.2233628864117654
O	-1.8304295103313726	-9.765491137245098	-4.417905215411765
O	-3.4306599403313722	-6.320342147245098	-4.550029875411766
O	-6.345627390331373	-5.300376407245098	-6.7008597454117655
O	-5.967854770331373	-1.529013327245098	-6.974799755411765
O	-8.338359430331373	1.049008119754902	-8.387639835411765
