90

O	2.195806016060001	-0.6915976260460001	-5.474929902912
O	1.8638969860600008	-0.25633427404599995	-4.141264912912
O	1.404721236060001	1.0497490369540001	-4.2198555829119995
O	0.6916509760600009	1.602025303954	-3.132608972912
O	0.664331686060001	0.775890851954	-2.0060955829119997
O	0.17986846406000095	-0.361546251046	-2.529303672912
O	1.078288676060001	-1.022263546046	-3.333266322912
O	0.151156393060001	1.243810273954	-0.45453477521200003
O	-1.1626870829399991	0.7167605899539999	-0.142845502912
O	0.11214016806000099	2.6364175439540003	-0.499851314412
O	1.146075186060001	0.838265773954	0.879437437088
O	2.424980436060001	1.126983018954	0.396779318088
O	2.550046126060001	1.053050799954	-1.047397713912
O	3.3351863660600007	1.9281219239540002	-1.866568872912
O	3.468277446060001	-0.15646356304599998	-1.194878163912
O	0.6797784560600009	-0.45073507604600005	1.085711497088
O	0.17004194206000095	-1.1183803760459998	-0.13574226891199997
O	4.655427606060002	0.343958166954	-0.456630967012
O	-0.971496525939999	-1.7251665960459999	0.03640041108800002
O	0.9462309060600009	-2.403956606046	-0.532653382512
O	4.3123661260600015	1.483748743954	-2.834802982912
O	0.6681634660600009	-3.499830386046	0.254254905088
O	-0.23269412193999903	-3.423604136046	1.306818517088
O	-1.246195315939999	-4.001026926046	0.955850927088
O	-0.15547682893999903	-2.8663452760459998	2.526070347088
O	-1.183967919939999	-2.2157496860459998	3.179082547088
O	-0.644134813939999	-0.900098316046	3.6221638970880004
O	0.6167832760600009	-1.2841824860459998	3.981019007088
O	0.34317411806000103	-2.385252166046	4.7376460970880006
O	1.1890622160600008	-3.274802526046	4.117261797088
O	0.645130586060001	-4.463263766046	3.796416227088
O	-0.773549129939999	-4.334528616046001	4.155637577088
O	-0.9782566569399991	-2.952764896046	4.5464938570880005
O	2.020057896060001	-1.604122656046	-0.04964909891199998
O	2.622777326060001	-3.3943910960459998	1.293024407088
O	3.540386186060001	-3.919878666046	2.176152507088
O	4.629951676060001	-3.119944286046	2.3536945470879997
O	4.496774746060002	-1.752078726046	2.139751487088
O	3.178779236060001	-1.3384827760459999	2.074258817088
O	2.305814236060001	-2.065719976046	1.352317667088
O	-9.81062600394	2.6230101139540003	-7.948168442911999
O	-7.467199213939999	4.354955033954	-5.529279182912
O	-8.43691891394	5.568765713954	-2.070597352912
O	-5.697317373939999	4.287706683953999	0.014845293088000033
O	-5.479028073939999	4.988182233953999	3.7495814870879998
O	-4.366665583939999	-0.119744566046	2.8270315270879998
O	-7.9247610439399985	-4.181254346046001	2.779449437088
O	-9.642718173939999	-3.550116196046	-0.473387794512
O	-7.984631603939999	-5.388418416046	-3.3853863229120003
O	-2.105967823939999	-11.420823496046	1.8271927270879997
O	3.358636226060001	-8.246057626046	0.381201032088
O	6.903697546060001	-7.047344956046	-0.515168051712
O	9.30611063606	-9.764917596045999	0.08489200108800005
O	0.6812571360600008	-13.385237896046	-2.176739922912
O	-2.3496675839399987	-9.321602026046	-8.471743482912
O	-2.4538351439399992	-5.8170762560460005	-7.150955352912
O	-0.710007659939999	-3.206679396046	-9.141594012912
O	-3.988624883939999	-1.126960316046	-9.172785592912
O	-7.445338323939999	-1.3392390660459998	-7.740224112911999
O	-7.338533853939999	-0.129536997046	-4.160973152912
O	-10.01065340394	0.803231634954	-1.699180832912
O	-8.62842542394	0.18882980475400002	1.7485584170879998
O	-9.78913394394	1.096927245954	5.235147607088001
O	-12.34790123394	-1.674047806046	5.516548527088
O	-14.53267463394	0.152979169454	3.034327967088
O	-13.177102033939999	3.685947003954	3.574139377088
O	4.666593986060001	6.859223513953999	10.846843977088
O	1.5853644460600007	5.940522753953999	8.718938757087999
O	-0.285187341939999	8.676304513954001	6.871140377088
O	-0.739307052939999	6.914044203954	3.5338879770880003
O	-2.817109023939999	8.516689483954	0.7041297870879999
O	1.6780616160600008	6.146763473954	-0.952706611912
O	6.445914106060002	8.766232793954	-1.9576541929120002
O	7.587507196060002	8.730873243954	1.6617798770880001
O	9.573534286060001	5.722180713954	2.7793257070879998
O	10.170254766060001	0.709530684954	-5.494003882912
O	4.0911252560600015	-3.541460086046	-4.870153732912
O	1.9636910160600007	-6.521393876046	-4.374012712912
O	4.715929076060001	-9.037852166046	-4.006263762912
O	7.427780746060002	-7.158069626046	-5.685839452912
O	10.17329966606	-4.584986306046001	-5.186112342912
O	12.78446636606	-3.423372756046	-2.717344682912
O	15.88359856606	-1.320673396046	-3.078827822912
O	10.64676656606	-1.1656187160459999	5.221191187088
O	8.80596248606	-2.397684736046	8.312485877088
O	6.852011136060002	0.8691238969539999	8.604814847087999
O	7.545365786060001	4.521807433954	8.259435887088
O	5.216396526060001	5.771538413954	5.504952077088
O	4.2496822760600015	9.348219173954	4.8992415770880005
O	3.216327936060001	9.626579683954	1.2680194970879999
