84

O	-1.4058137047959183	-3.96592378835102	-1.6928859913265306
O	1.8196256002040818	-0.9461095883510205	-2.5861281843265305
O	0.6916005502040818	-3.0328519583510203	-2.4534604443265304
O	0.10314073820408187	0.6148716176489795	1.6440745356734696
O	0.5363393202040818	-4.01911518835102	-0.4994187183265305
O	0.45875740020408173	-0.6226166083510206	0.5498481956734695
O	2.5325545402040817	-2.7507763083510204	-1.3059435473265304
O	1.777694440204082	-2.2639504583510206	-2.1438911243265304
O	2.355564290204082	5.46519303164898	-0.5836559163265305
O	2.525961170204082	1.0721140366489794	0.06905006567346939
O	-0.23774990579591815	-3.1661875983510206	-1.3551941733265305
O	1.2560356302040818	0.3047887646489794	2.4596272356734694
O	1.8759145402040818	0.11833418664897938	-1.6659081433265306
O	-0.9027042047959182	0.2703395936489794	2.6196822956734698
O	2.6235208002040817	-0.21591818935102058	-0.49929667432653047
O	-0.4772183427959181	-4.68938804835102	-2.5487942443265306
O	0.5845535702040818	0.1599447056489794	-0.9914695958265305
O	-0.27629050679591816	0.16313202564897938	-2.0284945443265308
O	-1.001437896795918	1.2766460166489795	-2.19944250432653
O	-0.38505453679591817	-0.6458989383510206	-3.0506785143265303
O	-0.9733611717959181	1.9671433016489792	-3.3500678843265304
O	-0.48445105269591815	-0.21114714035102056	-4.31148183432653
O	-0.4548915647959182	1.1885979376489795	-4.385137264326531
O	1.7480283902040816	-1.0728864683510206	0.3530883456734695
O	-0.5550345535959181	-1.4897589683510204	0.8136598756734694
O	-1.784278419795918	-0.8486517183510206	0.5786308356734695
O	0.18973392820408186	2.2143163516489794	1.2667028956734694
O	0.9579690902040818	3.0973942816489797	1.9113456556734694
O	1.568501450204082	4.239221151648979	1.2994459456734695
O	1.799429000204082	4.214299621648979	-0.08331606332653052
O	0.7374465102040819	3.5715469316489794	-0.7147390303265305
O	-0.07291514479591821	2.7762811016489795	0.0912855056734696
O	-2.390041419795918	-1.3343386783510205	-0.6564649253265304
O	-1.9826253597959183	0.5583095406489794	0.5196416456734696
O	0.4599577902040819	-5.11429079835102	-1.5909454103265306
O	5.180335530204082	0.2397405566489794	12.55528155567347
O	1.9118503702040819	0.8737957956489795	10.76165565567347
O	-1.144031806795918	-1.3757139983510207	10.87823555567347
O	-2.072206989795918	-1.7902947283510207	7.295087955673469
O	-5.190300569795919	-3.8539906083510207	6.331157275673469
O	-0.8821330877959181	-4.6290292883510205	3.0879471456734695
O	2.546521870204082	-8.790712768351021	3.780391085673469
O	4.553716870204082	-7.483930548351021	6.64183989567347
O	7.592028200204083	-5.54303631835102	5.447204845673469
O	7.163531970204082	-8.46521019835102	-4.17782507432653
O	5.170868380204082	-2.7086293983510203	-6.313719794326531
O	4.443103370204081	0.5162752216489794	-8.22536805432653
O	5.5371687302040815	0.2570273176489794	-11.68924694432653
O	11.03651140020408	-5.20848541835102	-5.9600077043265305
O	12.99198640020408	-0.8730610483510205	0.7061221056734694
O	9.66136120020408	-0.06857248735102062	2.165421885673469
O	8.702595870204082	3.4964801316489793	2.7138453756734693
O	7.795514890204083	2.6234078416489797	6.40740818567347
O	7.557461300204081	-0.41808043235102066	8.63584932567347
O	4.233853710204082	-2.1000955383510207	7.957127275673469
O	2.2970658602040817	-4.84525234835102	9.57851405567347
O	0.2165675152040818	-6.53776757835102	6.92155730567347
O	-2.5442277097959183	-9.125943958351021	7.037106195673469
O	-2.765564969795918	-8.85857415835102	11.57508235567347
O	-12.934357299795916	-1.7338445783510203	-3.4017429643265302
O	-10.41625016979592	-2.5477143683510204	-0.6320814583265305
O	-10.848228399795918	-1.0993240083510205	2.864151485673469
O	-7.305978399795918	0.009618842648979387	3.5908669156734696
O	-6.133737369795918	1.4010372946489795	6.970216075673469
O	-4.093929859795918	3.6913547616489795	2.566687085673469
O	-6.036853579795918	8.66356303164898	0.6313426056734694
O	-8.63326306979592	6.99395613164898	-1.5618615683265307
O	-7.5495680297959185	6.0063889416489795	-5.050707504326531
O	1.482383610204082	9.35204485164898	-5.25396996432653
O	5.242689030204082	3.1628642616489797	-2.6106845143265307
O	7.455712310204082	0.3255312616489794	-2.6807870643265304
O	8.589238110204082	0.5741575236489794	-6.278810794326531
O	7.870691460204083	4.182570391648979	-6.8756096743265305
O	5.151205880204082	6.63889335164898	-7.906878184326531
O	2.246389720204082	7.14033915164898	-10.28242169432653
O	0.4706987302040819	10.18837732164898	-11.63293904432653
O	-3.906772629795918	3.6658294316489797	-13.21835494432653
O	-4.410450249795918	1.5695278416489793	-10.24355319432653
O	-5.086975339795918	-2.1726168983510203	-10.20585724432653
O	-7.349739299795918	-1.8874131883510206	-7.171736384326531
O	-10.00247518979592	0.5540511128489793	-5.951914674326531
O	-8.77810050979592	1.7201175416489796	-2.5196684643265304
O	-10.749888699795918	3.2235934316489794	0.27731409567346943
O	-8.26601905979592	5.046750521648979	2.46833360567347
