18

O	19.948055885386957	1.3487599536353598	20.229113082968894
O	19.41204241692222	1.1515742684498846	18.91275343461315
O	19.679477555169896	1.1215378782149168	17.50027809498085
O	19.5899673381571	-0.2367647629578471	17.015200166481637
O	20.462069461438492	-0.8834269155772881	16.1073504274374
O	19.956556539545538	-2.250356901796926	15.84624992653891
O	18.677048862698292	-2.515308134612731	16.550977572706632
O	20.923529108756668	-3.36199275384186	15.691115852197575
O	20.298119048900816	-1.1098250546068094	18.268290393380642
O	21.77511788159225	-0.24902882378386326	18.325329485415466
O	22.86219995283331	-0.8629690107913899	17.82104085788867
O	24.102884694800288	-0.7125401832047591	18.516211494597293
O	24.32581572188401	0.4460930215669898	19.257557940239263
O	23.15597962932222	1.0904795437675896	19.65993497397205
O	22.127952623130092	0.9962209799601713	18.70006730707768
O	25.47091624344445	0.48941834137549556	20.116110990358866
O	20.595234179835412	-2.5464426070710395	18.180420266151586
O	19.4907090753759	-1.034332276288221	19.41954102892794
