81

O	5.047892394139534	-0.8580547022325575	4.423800905445349
O	4.0052435341395345	0.057678851767442446	4.587110305445349
O	3.785937154139535	1.2853070337674424	3.9407719754453487
O	2.432358854139535	1.6861906977674426	3.633580305445349
O	1.4371144041395347	0.8046807517674424	3.911102095445349
O	1.6816007341395347	0.31627893136744245	5.131761765445349
O	3.013731394139535	0.035224018767442467	5.573079655445349
O	-0.0925750168604651	0.5551802987674425	3.268551965445349
O	-0.9099581198604652	-0.24406746223255754	4.1362099754453485
O	-0.5909694738604652	1.8296521277674425	3.0031850354453486
O	-0.3187453112604651	-0.24083864823255757	1.7746435254453488
O	-0.8844639328604651	0.38369095866744246	0.7474593214453489
O	-0.515459498860465	0.29166720152744247	-0.6257858305546511
O	0.3111587711395349	1.1950234417674424	-1.369278664554651
O	-1.616280385860465	0.15791718976744246	-1.5380101945546512
O	0.17059829213953487	-1.4379342322325575	2.115942325445349
O	1.4318653741395349	-1.3256028722325575	2.8996608454453487
O	2.212317564139535	-2.2369029522325574	3.420237855445349
O	2.363783214139535	-0.9487732422325574	1.891410395445349
O	2.150600484139535	-1.7929129222325577	0.8120423924453488
O	1.2804967241395349	-2.8550198422325574	0.6066498404453489
O	1.0589636241395348	-3.5894741722325576	1.5579551254453488
O	0.09619903713953487	-2.6453156722325577	-0.04731788155465118
O	-0.5832405848604651	-3.3356673922325575	-0.8149576195546512
O	-1.7018599558604652	-2.7333670722325576	-1.5277011645546512
O	-1.2374849438604651	-2.8072838922325576	-2.873400164554651
O	-0.09266022386046513	-2.3014654822325573	-2.6122774045546513
O	0.8147576741395348	-1.4751515422325574	-2.9234014045546513
O	1.9280733441395348	-2.2755736922325576	-2.972672384554651
O	1.7605379841395348	-2.8868285322325575	-1.6335083145546512
O	0.44893250813953484	-3.5977904022325573	-1.951302134554651
O	1.7498091341395348	0.35981852166744244	1.3824373854453489
O	4.0938664141395344	0.6341371737674424	0.8657345504453489
O	4.891586684139535	1.0384741857674424	-0.2048478015546512
O	4.573795404139535	0.6792742977674424	-1.486376254554651
O	3.399235524139535	0.12075515676744245	-1.7559192445546512
O	2.691613634139535	-0.2363793062325576	-0.6610993855546511
O	2.814544704139535	0.45019644376744244	0.4821767354453488
O	-6.118456025860465	-1.3328873222325575	10.920363315445348
O	-5.272092375860465	1.2618717937674424	8.295235405445348
O	-7.8566154558604655	2.9944037577674427	6.049662595445349
O	-6.160915785860466	2.5653821377674424	2.6600530554453488
O	-7.842326855860465	4.059369907767442	-0.41982964855465116
O	-5.753339445860465	-0.8808575722325576	-1.125288134554651
O	-8.961092785860465	-5.408842992232558	-0.9002953645546512
O	-8.992331085860465	-5.734071182232558	2.831585085445349
O	-5.967956855860465	-7.755928012232557	3.959960495445349
O	-2.841962515860465	-11.477316202232558	-4.631985684554651
O	2.644001224139535	-7.879095292232558	-4.477635104554651
O	6.0848996641395345	-6.253099302232558	-4.920529004554651
O	1.4674570741395347	-11.850318402232558	5.061184975445349
O	0.5114486771395348	-8.269606942232558	4.941395865445349
O	2.798960004139535	-5.736252342232558	6.406511865445349
O	-0.2353085928604651	-4.393294912232558	8.427719445445348
O	-3.9292521858604648	-4.755489332232558	8.723185005445348
O	-5.513819315860466	-2.7924092322325573	5.895677155445349
O	-9.002774635860465	-1.8379744222325574	5.134566815445349
O	-9.330243045860465	-1.5040088522325574	1.4468987354453489
O	-3.996211635860465	7.115139817767442	-7.633294574554651
O	-4.894473975860465	9.058949767767443	-4.484963434554651
O	-3.579596685860465	6.665435977767442	-1.794256204554651
O	-4.272394895860465	7.350091757767442	1.9141442054453488
O	0.8280760541395349	5.627717957767442	1.0485201814453489
O	5.174177754139534	8.895200987767442	0.12637146929534882
O	4.430284394139535	9.699378967767442	-3.546915104554651
O	14.453799184139534	0.9815030267674425	-0.9995428645546511
O	10.895963184139534	0.8551638507674424	-0.2970540685546512
O	5.369763284139535	-4.245470662232558	1.0621468594453487
O	3.450582244139535	-7.373188062232558	0.6167852664453488
O	5.895369464139534	-9.212089122232557	-1.4679209145546512
O	9.058366954139535	-7.363599622232558	-0.7107281755546512
O	11.061666084139535	-4.309677952232558	-1.8550868745546512
O	12.068448784139534	-2.2744912022325576	-4.904295574554651
O	6.078815444139535	0.9763779587674424	-10.181577784554651
O	3.026417544139535	-0.04349973523255757	-12.193376984554652
O	0.9883797341395348	2.9048881977674426	-10.952172384554652
O	0.7668765541395348	6.930415377767442	-6.459351654554651
O	-0.041282624860465134	10.136760937767441	-4.6505998845546515
O	0.7659320541395349	9.462090897767442	-0.9632274445546511
O	-0.07670235086046512	11.382198697767443	2.1674538154453487
O	2.819463774139535	13.761126897767442	1.880505255445349
