42

O	23.58824234001946	0.7127711882048209	20.635343694771002
O	20.67182621186298	0.3083638219307496	23.54260298585011
O	22.90763200029483	-5.536772623409801	17.403787030165372
O	21.91472136349829	2.1681140870885	21.34023908183038
O	19.65243532938691	0.4598692270231417	22.59151283030625
O	23.273466789851465	2.064141974837886	21.270660079428268
O	21.887280233855364	-5.52405910917074	16.38830318997155
O	20.814245341132672	-0.7331865864652451	21.042532532574388
O	22.26400111288558	-5.254993535652018	15.08450095093673
O	21.714388408690194	-4.191585318332669	14.310083627751085
O	18.71689756859961	-0.37515123364125436	20.467711907755653
O	20.990056301468442	-3.3421766116008733	15.048204442445552
O	18.866842476119842	-0.6632198607137769	19.148516970980058
O	20.14806723263955	-4.2056707089314695	15.624124804052729
O	20.022413141618642	-1.0977317337991555	18.731001712666803
O	20.51919926079677	-5.26854733227894	16.40032486754194
O	20.8295458012329	-1.0079163044851032	19.747467989582958
O	20.966383295307725	-1.7055294334967275	14.782208456392539
O	19.562208363802156	-0.48197360201235095	21.536659926070527
O	20.22945552636879	-1.4527534047193884	13.651820172524024
O	22.2901441998785	-1.1255279026117855	14.73312984237318
O	20.258511031056745	-0.8959323391358436	16.069024136834653
O	18.95871060427728	-0.9300149176869449	15.93949620653456
O	18.257238789026914	-2.1328205450382427	15.78962852263877
O	17.59990545621582	-2.666682932791145	16.951482075803014
O	18.283777057558254	-3.1463443093020986	14.787302120065135
O	21.32043848810008	-1.0160877271251836	16.929393276976956
O	21.743896359240683	-2.418712797250431	16.941988187641662
O	23.008751448416923	-2.5183185873619154	16.75663511284384
O	21.39506139895934	-2.9316841405191063	18.29952738376989
O	22.316644511334225	-2.3752976537610397	19.062404517647064
O	23.337509851156376	-1.3880380095967317	18.802233461794856
O	23.720853812020824	-1.4045294352980546	19.97432921620707
O	23.067108837632805	-0.0492675434795371	18.499110409679
O	23.417650767313923	1.0712119077038882	19.22366019127052
O	21.551961914115623	2.7195088812040353	20.125644806375476
O	20.26467406076367	2.120579273430229	20.0758523179175
O	20.040295576785244	2.0910911451525065	18.84028955988787
O	22.16437588694267	1.7434026508187859	19.217844968695516
O	20.05308902931325	-2.397408661567833	18.067325882463575
O	21.302942180973865	1.8809076049742817	18.117804918287934
O	20.487515680280605	1.6442078017054886	17.12952090911004
