41

O	22.298756577903447	-3.8797368945496684	19.51796636051374
O	22.3842951134615	-4.603340567867616	18.183539656982994
O	23.356287093728625	-4.045684947761752	17.66980925188913
O	21.62005373466614	-5.301526352754744	17.160256768506223
O	21.17246303762561	-4.978411297304068	15.873842787783435
O	20.18588812956303	-5.16876053029327	14.898710698001501
O	18.804016267449647	-5.275386314871546	15.304060083259092
O	20.290636517466076	-6.29952852121859	13.924151919916554
O	21.08666511765971	-3.541303112424611	16.035476742270422
O	22.140212751910468	-3.1075320002917097	15.552255160477904
O	21.210648303450846	-3.0207222709451247	17.324434877542444
O	20.853459046167647	-1.7617739157362347	17.34746987204862
O	19.681495323984027	-1.958441715316308	16.3392789123067
O	18.937573217484726	-2.994110261971411	17.160044173639246
O	19.244557992234625	-3.689723435455485	18.245495240991126
O	18.4451341660231	-4.025274456902092	19.292256166712082
O	17.30169901996598	-3.282000547234234	19.394174905070024
O	16.776314515899248	-2.8936835044903213	18.17683638335596
O	17.643972574164398	-2.6722453279304825	17.152963759445424
O	23.266135346997757	-1.3755631390473257	17.05877778172464
O	21.382842995598605	-0.39930845207631127	16.096755059212647
O	20.778400128084474	0.6421367186953362	16.80732468287559
O	19.58441435972779	0.10536699340474098	17.33574033753534
O	19.78295531500905	-0.2533883709458976	18.74876975362903
O	20.337030362553477	-1.2455408529826415	19.501839783122104
O	19.79222880767453	-1.4322550389237285	20.70489239349137
O	18.944066190752118	-0.4448130652248399	21.255575069834215
O	18.025408880143516	0.0797422667251928	20.272430508187416
O	18.414313760001665	-0.23020677521680777	18.982252654314706
O	21.242330459251892	1.3310125549286889	17.85222508241399
O	21.677391315632054	0.7820657196295582	19.02218309884523
O	22.87615191100185	0.5323617900763431	19.096570140035404
O	21.39216685267558	1.4110730652903547	20.294717310166412
O	21.876790648008246	0.8502484533180332	21.43681901558522
O	20.36020101147309	2.3350190492593343	20.130240957516282
O	19.628148888282805	2.7439602388757525	19.009569369401753
O	19.62012755304666	2.543277519916656	21.28777922400649
O	23.10333709156497	0.1595763767248588	21.542509609270454
O	22.975470886588283	-1.0217856852894671	21.098722169068385
O	24.04330933358487	0.2968557582840132	22.69941628431406
O	22.019499137966708	-1.0267811429629605	17.271664340975452
