94

O	2.625692441201961	1.3766094437254903	-0.4826019416666658
O	0.6442978212019612	0.18143974572549015	-0.8406100216666659
O	1.3291707612019612	0.4283360907254903	1.4228973783333343
O	0.3157878272019611	-1.14809675427451	0.05085787833333422
O	2.820341241201961	-0.03829154427450976	-0.31081657166666576
O	0.31386912620196117	0.7208380117254902	-2.1376975546666657
O	-0.6168898277980389	-1.02742580427451	1.254181018333334
O	3.0630258812019613	-0.6748581742745097	-1.559595331666666
O	2.327359591201961	2.10050933972549	-1.627571285666666
O	0.6978818812019612	3.17643344572549	-2.514779191666666
O	3.9074144512019613	-0.03666113427450979	-2.380002140666666
O	0.7976329012019612	-0.7478310042745098	-6.021694111666666
O	1.8368005512019612	2.39246468572549	-7.741834251666666
O	4.347986911201961	-0.7545684042745098	-3.493409321666666
O	-1.159680077798039	2.5267043157254903	-7.618125421666666
O	3.416512801201961	-1.73860517427451	-3.836841031666666
O	3.199523421201961	-2.6158630642745093	-2.769647714666666
O	3.184990111201961	-2.0344194342745094	-1.537118978666666
O	0.9804660312019611	-2.31641889427451	0.4944150783333341
O	1.4488488012019611	1.3804952857254902	0.45437023833333434
O	0.11758705220196108	1.1480907621254903	-0.05517957166666587
O	1.089848261201961	1.9804194427254902	-2.2862845556666658
O	-0.5638793436980389	-1.5603966842745096	-1.3258635526666658
O	-1.818846848798039	-1.3105986542745096	-3.7460258916666658
O	3.130259321201961	2.93181770572549	-2.492515178666666
O	-0.9760061477980388	1.5078196207254901	-2.278852420666666
O	0.3360854272019611	-1.0274910142745097	-5.023395451666666
O	2.0997493712019613	3.7280717257254903	-4.503787951666666
O	2.064146551201961	3.72493087572549	-5.849378351666665
O	2.322892171201961	2.5440100157254903	-6.471782641666666
O	2.958107321201961	1.5918343597254903	-5.674975431666666
O	2.381068071201961	1.5080088577254902	-4.4379550216666654
O	2.5767710512019613	2.6833363657254905	-3.802054021666666
O	-1.9140864887980389	1.4340575297254903	-4.3561719116666655
O	-1.7281164287980388	1.3140544942254901	-5.690740601666666
O	-1.0342153937980387	2.3819557457254903	-6.268575571666666
O	-0.969469229798039	3.4634017557254904	-5.373893151666666
O	-0.8690672777980388	3.1218332457254903	-4.102843301666666
O	-0.6834862367980389	1.7734509997254904	-3.742645531666666
O	0.10049522220196117	-1.5946259242745098	-2.580924818666666
O	-1.7066706387980388	-0.81434898427451	-1.342276674666666
O	-0.43698527249803887	-1.40698297427451	-3.857774451666666
O	-2.406926428798039	-0.9637740042745098	-2.501448099666666
O	-11.55162706879804	-1.6366224242745095	5.3622496983333345
O	-7.883419258798039	-1.35325358427451	6.322729308333335
O	-6.447011218798039	1.76857460872549	7.978287768333335
O	-3.360748838798039	2.27795190572549	6.085446208333334
O	-0.8447745427980389	5.01288514572549	6.868030598333334
O	-1.5585553387980389	4.87463458572549	1.468138558333334
O	-5.295681668798039	7.461508285725491	-1.265453949666666
O	-8.42211223879804	5.655977395725491	-0.27210805166666585
O	-9.332339608798039	2.77418463572549	-2.619159477666666
O	-2.595646418798039	5.05715359572549	-9.768246621666666
O	1.100505071201961	-0.03371427427450979	-8.389067811666667
O	3.671476091201961	-2.77584238427451	-8.480857901666667
O	5.306869581201961	-2.9685093342745095	-11.756457911666665
O	-3.438487618798039	0.7481661417254902	-12.760560381666666
O	-6.769095678798039	2.2860516557254904	-13.810352381666666
O	-8.673603428798039	-3.6084113942745093	-8.300131791666665
O	-7.323403278798039	-3.3525903642745094	-4.866271021666666
O	-6.261687888798039	-6.39789847427451	-2.793650328666666
O	-8.394565878798039	-5.03210960427451	0.08451954833333408
O	-10.462923978798038	-1.9187623542745096	0.867260078333334
O	-8.110332938798038	0.7294676587254902	2.1756042183333344
O	-8.49398476879804	3.98285908572549	3.9549004183333345
O	-5.520828548798039	6.14649414572549	3.0893448883333345
O	-4.133481508798039	9.40090384572549	4.4345241683333345
O	-6.563495438798039	11.63146334572549	2.5837274583333345
O	-9.33798891879804	10.44094177572549	4.873290758333334
O	-7.1914121487980385	9.38427616572549	7.854616118333334
O	11.633492431201962	4.624437015725491	6.042054618333334
O	7.774097381201962	4.85074241572549	5.911780438333334
O	5.782581101201961	3.7273664357254903	8.950491218333335
O	3.092598031201961	1.6550396767254902	7.261303738333334
O	0.15213896020196116	0.1732343157254903	9.098320818333335
O	1.9996546712019612	-3.38425373427451	5.3636260683333346
O	5.733381721201961	-7.085076404274509	6.414110788333334
O	8.784931901201961	-4.808609304274509	6.303949458333333
O	10.365887731201962	-4.304762244274509	2.915530648333334
O	4.972028841201961	-10.003415254274511	-2.290092155666666
O	-0.30254283579803887	-5.69061283427451	-4.186881351666666
O	-2.330353578798039	-3.500938034274509	-6.806892451666666
O	-0.4694822680980389	-3.972000444274509	-9.894334321666665
O	1.0468070412019612	-7.215385014274509	-9.021683641666666
O	4.031612741201961	-8.78099595427451	-7.334676261666666
O	7.756952561201961	-8.43651207427451	-6.916395861666666
O	10.417963531201961	-10.91837965427451	-5.907373591666666
O	11.210107531201961	-1.2707246242745096	-3.842775731666666
O	11.30877653120196	2.51017173572549	-4.257908401666666
O	10.763210031201961	3.07006430572549	-0.5015553316666659
O	11.91193223120196	1.4869844307254902	2.7724128083333337
O	8.692658671201961	0.2187923157254903	4.496312798333334
O	8.235178891201961	-0.5427637842745097	8.103737218333334
O	5.324743631201961	-2.958183074274509	8.406586318333334
