53

O	20.52053902864223	-0.7040915981277857	16.66280959098968
O	19.3992281869461	-0.5039727372044907	16.170969310017323
O	21.42250583866438	-1.951468179662752	16.720248327191538
O	22.4805850918743	-1.2014323242289586	16.319505854408067
O	22.410057471099545	-0.010897751182447957	17.202014391908747
O	21.15059644464368	-0.2112509909249609	17.77938600301305
O	20.093832935318783	0.5637652275776508	18.339048692859354
O	20.629379459188204	0.4808309823974095	19.6499789912626
O	21.54303661474653	1.448571530309618	19.622167893817906
O	21.835083572693932	1.971183187025688	18.30982532502437
O	20.45826095986031	1.8133182165483273	17.880009299705165
O	20.41239424682175	1.8421502823424938	16.467719176650547
O	21.916229491048522	2.2011301621292807	20.714949369455436
O	21.726507055342875	1.4774950526008321	21.861143353328046
O	20.429848738455863	1.0734695010077384	21.978232188322743
O	19.993424695751358	0.43003048749043127	20.857046843316294
O	22.099567542433952	-1.0664881751808168	15.020838423456606
O	20.640100659199472	-2.62231838659461	16.15590809401312
O	20.178181705530957	-1.8479321408219143	14.81326228572866
O	21.998578814602155	-2.312819632981588	17.968663497331455
O	23.015378704441815	-1.6495771088403424	18.624981250188792
O	23.68094916531725	-2.737038276328838	19.045769149978433
O	24.564380899690594	-2.6419502019515617	20.042789723001402
O	24.57125099285746	-1.613345958128346	20.912657821361407
O	23.95794900647685	-0.48310898910180256	20.51417514600778
O	23.444041786161982	-0.6216785308866435	19.307403699645956
O	20.32642753018795	-2.6785457383509765	20.936371764333487
O	20.104899086769155	-2.6521135713796533	19.48526097925727
O	19.000809239382033	-2.18339862824311	18.998142476977566
O	18.42730971033341	-2.7744764605428314	17.959019491535823
O	19.006303355806228	-3.8141206290887792	17.315318554689348
O	19.77979341977549	-4.462486779446373	18.08068135381469
O	20.529745110253913	-3.8359424464868574	19.001666648484306
O	18.68019183515728	-3.608919374887833	15.895098404073257
O	19.629645507813414	-2.977786660045202	15.23977006884201
O	20.680389595838545	-3.8627123739592184	15.094633162891228
O	20.354394958674185	-5.122362427449304	14.888250653038689
O	21.279271473464085	-5.8442368761135555	14.01632814311012
O	22.442805425262172	-5.845672842600315	14.777015975186357
O	22.669983690461795	-4.616571744979596	15.515820472061653
O	23.68489245575032	-4.1371218484068155	16.254979222341998
O	24.409221384858604	-3.0705148882402113	15.90401560647863
O	22.30273759033408	-5.073141568367842	16.65506831260119
O	21.359898289377046	-4.800491062236918	12.876483843082251
O	22.150591926669524	-3.800175083481764	13.417542288431566
O	19.93616447222821	-4.40831341851932	12.829297202573256
O	21.42713136567379	-5.951210737255474	11.98484790139792
O	20.09947776170632	-5.863876795197453	15.821281948808787
O	21.504221402279153	-2.3888261472793	21.396515607295605
O	21.684477226580746	-1.7910941198084678	22.602159729923972
O	20.576907554720258	-1.7323904424677328	23.392310059868734
O	19.391209764224563	-2.2113481854531623	23.029817511667886
O	19.243072470670512	-2.6025299388843255	21.705193934113055
