92

O	2.5925827466799998	2.97754790046	-0.8632643694279986
O	2.9494691466799994	2.80255596046	0.4374161105720014
O	2.57277527668	1.6845791554599998	1.0912782895720015
O	2.43609495668	0.5733249874599998	0.4033612555720015
O	2.62868055668	0.5636638194599999	-0.8602273444279985
O	2.7714129166799992	1.77547110646	-1.3885040994279985
O	1.3810467166799996	-0.7542597695400002	0.7669445895720015
O	1.1923415566799995	-1.8741223195400003	-0.003451688427998534
O	1.8622276466799994	-0.8729470795400001	2.0744300695720015
O	-0.03781536332000046	0.1072587414599998	0.9756084995720016
O	-0.5949248893200004	-0.5925131895400002	1.9883359695720013
O	-1.5856062853200004	0.3658253524599998	2.0411012195720013
O	-1.3479666073200005	1.5385151544599998	2.7221055295720014
O	-2.7396652633200005	-0.023033329540000258	2.6076790395720013
O	0.4121149266799995	1.3349298134599998	1.5512446595720013
O	-0.02015262332000045	2.47571708046	0.8747597495720014
O	0.11022634667999953	3.72783807046	0.9495796795720015
O	-0.3263894443200004	2.1327511804599997	-0.43241443922799855
O	-1.6100616153200005	2.43478951046	-0.23409123442799853
O	-2.5777832533200007	1.55730128046	-0.5210324803279985
O	-2.72488904332	1.20886374746	-1.6655345804279984
O	-3.1807239033200005	0.6268878594599998	0.22143336257200147
O	-4.735592903320001	-0.9620169595400001	0.5808116095720015
O	-4.346916403320001	0.08411076845999987	-0.23866797542799853
O	-3.4006296033200005	-0.6854841295400003	-1.2073066124279985
O	-2.4736314933200005	-1.3929560295400003	-0.4125832622279985
O	-1.6180309893200004	-2.2615697695400003	-0.2832346044279985
O	-1.9929586363200005	-3.1659751295399996	0.6720292295720016
O	-3.4779857433200005	-2.8029550695400003	0.8588423795720015
O	-3.3510084633200004	-1.4859290195400001	0.7929308695720014
O	-0.15722257332000034	0.7143484614599998	-0.6230351684279986
O	0.1522131866799996	1.5765242114599998	-2.735757390427999
O	-0.038950973320000415	1.4124451994599998	-4.056821290427998
O	-1.2202217106200004	0.6939785234599998	-4.292757960427998
O	-1.2200938422200005	-0.5011374995400002	-3.6354969304279985
O	-0.36995658432000045	-0.6049387695400001	-2.537333430427999
O	-0.30897759132000047	0.5718249434599998	-1.9220803104279984
O	1.8601485366799995	3.93070586046	-1.4819263004279986
O	2.3602050866799997	5.12835813046	-1.0227793284279985
O	-3.5145743633200004	1.0644152568599998	2.9998764495720014
O	-4.7174184533200005	1.1632179814599999	2.755724759572001
O	-2.6495121733200007	2.2316435004599997	2.8546904195720013
O	7.67996620668	3.88983616046	10.020987429572001
O	7.759001506680001	1.6093691634599998	6.984435409572002
O	7.69978274668	-2.2044289195399998	7.141116079572002
O	5.14350326668	-3.10254544954	4.657059939572001
O	4.185891306679999	-6.70479817954	3.7851884595720016
O	0.028109276679999518	-3.5829933795399995	4.121108249572002
O	-2.9221739233200004	-2.99385982954	8.559434309572001
O	-0.8140212263200004	-0.7627046795400001	10.679147929572002
O	-1.6504831383200005	2.94915050046	10.231717829572002
O	-10.35630329332	1.2100130054599998	5.333589949572001
O	-7.97273077332	2.9152103804599996	-0.4011186930279985
O	-7.48010829332	4.07933974046	-3.9659094604279987
O	-10.71279113332	5.01033186046	-5.518235150427999
O	-11.33697759332	6.33050160046	3.9006453495720015
O	-4.66635678332	10.17214032046	6.5084883395720015
O	-1.9981625603200004	7.79152415046	5.504183589572001
O	0.6732726966799996	8.92157393046	3.237843009572001
O	3.31487272668	7.52705755046	5.719280019572001
O	3.5083830566799996	5.58624282046	8.892036519572
O	3.2381824766799996	1.9379995794599998	8.070462309572001
O	3.6342728166799994	-1.25993897954	9.954631329572
O	1.4057801466799995	-3.84155274954	8.320345709572
O	1.0161779466799994	-7.58220572954	8.718158479572
O	2.0000713666799994	-6.38684344954	13.753207829572002
O	4.67107701668	-7.783321389539999	11.417148529572001
O	0.7697082866799996	-11.60853928954	-7.227443640427999
O	1.4920026166799996	-10.05658478954	-3.7854143904279987
O	5.0363616766799995	-9.63068418954	-2.5653064604279985
O	4.90043496668	-6.10283630954	-1.2381408844279986
O	7.90092896668	-4.52560188954	0.5723503395720015
O	5.2591548466799996	-1.2019233095400004	-2.8666990204279985
O	7.14940989668	-0.1404740295400002	-7.978312770427999
O	5.42366710668	-3.1892416495399996	-9.444972300427999
O	1.8812629966799996	-2.79102489954	-10.666431270428
O	-0.05985534332000042	8.56721367046	-11.879865670427998
O	0.48319316667999956	6.55477309046	-8.770872970427998
O	-2.1165997203200004	6.14984977046	-1.7704124804279984
O	-4.534269553320001	6.42817730046	1.0164119095720014
O	-7.56804938332	7.60025073046	-0.9250604324279985
O	-5.81556226332	9.07703291046	-3.869681090427999
O	-4.2504581233200005	8.15258544046	-7.2146614504279984
O	-4.83795296332	6.10403333046	-10.329194560427998
O	-3.615482653320001	6.41365574046	-13.893826270427999
O	-5.53764037332	-2.40034345954	-9.797889660427998
O	-7.37609620332	-5.06398245954	-7.8344247104279985
O	-4.1632167433200005	-6.92745242954	-7.085961270427998
O	-0.9748254953200004	-7.81484059954	-8.949723260427998
O	1.8061359566799997	-6.21563075954	-6.817653560427999
O	5.4264158266799996	-7.059529059539999	-6.8151996204279985
O	7.273096666679999	-4.04398088954	-5.4865678004279985
