95

O	-1.9493002295279998	-1.152553171698	2.0613707119380003
O	-1.3190729335279996	-0.894531777698	0.7484944199380001
O	-0.2311014385279997	-1.333299182798	4.849796391938
O	-0.6401485659279997	-0.996656428698	2.853420701938
O	-1.9594775495279997	-0.0844987846980001	4.915273581938
O	2.023653550472	1.608440305302	3.759858281938
O	-1.1537554725279997	-0.9741254306980001	4.157270801938
O	-0.6737504338279997	0.36173446530200004	2.612450201938
O	2.2624949104720002	-1.568410280698	0.9604899119380002
O	-2.119417929528	-0.784296852698	6.212332781938
O	1.1567430704720003	-0.16021223469799994	-0.3413625850619999
O	1.0819211104720003	-2.984022424698	-0.6841981130619998
O	-0.7338427315279997	-1.096574465698	6.871438101938
O	1.4195572904720002	-3.606119884698	3.6247444819380004
O	-2.9461225795279997	-0.5081257736979999	7.361893381938
O	-2.520108509528	-2.273603613698	6.010245901938
O	-1.6262525395279996	1.068854775302	1.9102038219380002
O	-1.6461743795279997	0.376783775302	0.5882318959380002
O	-0.2282421925279997	1.1115821253020002	3.714933921938
O	1.1180261904720004	0.5898310953020001	4.101562621938
O	1.4823015304720004	-0.410708647698	3.049536741938
O	1.3568890004720002	0.23390643530199995	1.8536363419380002
O	0.9728108204720003	1.6046426053020002	1.791751361938
O	1.3843411604720002	1.863092035302	0.4903363729380001
O	2.715720510472	1.735088005302	0.37018679593800013
O	3.3345211804720005	2.473565415302	-0.5773882260619998
O	2.6169967804720002	3.0329761653019998	-1.5374111080619999
O	1.2903368304720002	2.8538585153020004	-1.4760034780619997
O	0.6045769304720003	2.308567935302	-0.4280013350619999
O	1.9166840604720001	-0.448306101698	0.7247822869380002
O	0.5505035604720003	-0.866757020698	-1.3519755680619998
O	1.4942153404720002	-1.9878166176979999	-1.3652686080619998
O	2.768299910472	-1.316516442998	-1.4421173180619997
O	2.2937442804720005	-0.17427160469799996	-2.309943488062
O	3.1144785404720006	0.3921167353020001	-3.235239228062
O	2.6446216404720007	0.703297125302	-4.449332418062
O	1.6500575804720004	-0.16866818469800005	-4.791180748062001
O	0.6368326704720002	-0.12914425469799995	-3.805566548062
O	0.9881664004720003	-0.15470689469799992	-2.519987288062
O	-0.8995667645279997	-2.145912339698	1.0200221119380002
O	-0.4239801385279997	-2.909064054698	2.175803601938
O	0.8330609204720003	-3.488528504698	2.3894428819380003
O	0.6916756004720004	-4.329273934698	4.471323931938
O	-0.6423891681279997	-4.408513894698	4.188393701938
O	-1.1385914095279999	-3.810983294698	3.0083747219380004
O	-5.479294669528	-7.8425445646980005	-9.341911828061999
O	-5.118923609527999	-4.162686604698	-8.488971008062
O	-7.936213509528	-1.8724114216980001	-7.376590698062
O	-6.385442149527999	-0.11449888469799996	-4.449810778062
O	-8.395930009528	2.5567182953020002	-2.540014848062
O	-5.661803889528	-0.691846577698	0.46615094193800016
O	-7.984652699528	-5.120963334698001	2.915683651938
O	-7.9508751795279995	-7.4940915546980005	0.03513122533800015
O	-4.7442879095279995	-9.592646204698	-0.15264116336199984
O	-1.3531028685279998	-7.653845764698	9.157686091938
O	3.380617910472	-3.388975954698	6.874712831938
O	6.5018419304720005	-1.299023012198	6.176590771938
O	8.714888630472	-1.459018210698	9.115547041938001
O	3.5220184204720004	-9.520453754698	8.574249571938001
O	1.8300538604720005	-12.962907594697999	8.840369001938
O	3.4598241004720007	-12.111785894698	0.8843510019380002
O	1.9420895504720004	-9.261589694698	-0.8978210000619998
O	3.873738540472001	-7.6582062246980005	-3.5903247680619996
O	0.7804318504720003	-8.057943424698	-5.939594568062001
O	-2.817875259528	-9.127125314698	-5.782205928062
O	-4.853230889528	-6.250028434698001	-4.394701178062
O	-8.525465629528	-5.542784694698	-4.044326988062
O	-8.956204069527999	-3.2576071646980003	-1.0542950440619998
O	-11.867964549527999	-1.290815421298	0.38522129393800014
O	-14.366349349527999	-2.248012253698	-3.2961699180619997
O	-3.960203709528	13.111138805302	2.655879161938
O	-5.310234999527999	9.727930505302	1.4131826619380001
O	-6.437954149527999	9.379129405302	-2.1775007580619996
O	-4.790398029527999	6.100020345301999	-3.0724425880619997
O	-5.3966420295279995	4.446219605302	-6.449911998062
O	-0.3037153445279997	4.199738375301999	-4.754427678062
O	3.7034406104720006	7.679020115302	-6.5063236580620005
O	2.8062697604720004	10.305442205302	-3.947425648062
O	4.529415520472001	10.120102305302	-0.6188169590619998
O	13.947138350472	3.458481445302	-1.6615374880619997
O	10.339061950472	2.542551445302	-1.8762351980619998
O	5.519960370472001	-2.882143644698	0.3863189979380001
O	4.445992680472001	-5.777964494698001	2.311714391938
O	6.963260230472001	-5.728908294698	5.038107751938
O	9.660016350472	-4.0443113346979995	3.1879608219380002
O	11.075499350472	-0.670724800698	2.2072437519380004
O	11.861796450472001	2.7762194553020003	3.4728055519380003
O	14.250472750472001	5.503471535301999	2.438868691938
O	5.542715980472001	7.767237635302001	6.340284041937999
O	2.623803680472	7.744145205302001	8.708077641938
O	0.19439926247200023	9.104448105302	6.109484021938
O	0.27036518647200025	11.597391005302	3.3131731519380003
O	-0.5398665531279997	9.540053305302001	0.20817570793800014
O	-1.7616578995279997	10.952733805302	-3.0442558780619997
O	-0.8408243235279997	8.473671625302	-5.758712208062001
