90

O	3.796617558274	0.41096016343999997	1.8784044968600004
O	3.691480838274	-0.8920952525600001	2.6519896668600005
O	4.580271498274	-1.94434832256	2.9266147568600007
O	5.925380068273999	-1.34256169256	3.0109634768600007
O	6.060930918274	-0.06354258355999998	2.4092212568600004
O	5.075870738273999	0.015528629439999997	1.2887413028600005
O	1.641736898274	0.71158727394	1.3406463638600004
O	1.774396528274	0.18030909544	2.5587416268600003
O	2.3955747082739998	-1.18373013256	2.1786710168600005
O	2.923086738274	0.69025756364	0.7230894679600004
O	2.503595848274	0.60320212694	3.6879956968600007
O	3.771762618274	0.6150135745399999	4.3561714268600005
O	4.327581698274	0.038143501440000005	5.49192351686
O	5.774007298273999	-0.30948085556000005	5.75050297686
O	4.153519258274	0.77591075944	6.83402107686
O	3.712186448274	-1.27680938256	5.96035833686
O	1.725367388274	0.83560236944	4.585120686860001
O	1.011830268274	-0.17753994356000002	0.5245119508600005
O	-0.3049858187260001	0.31355047244	0.23943874186000041
O	-0.7376435287260001	0.16595576143999996	1.6293862918600004
O	-0.9641001197260002	-0.7319028625599999	-0.34265034313999954
O	-0.5346427657260001	-1.13928859256	2.0855600168600006
O	-2.234368771726	0.31270139744	1.3163000058600005
O	-0.6890914147260001	-1.20897905256	3.4810924868600006
O	-0.9883410817260001	-0.15207843756000006	4.020000366860001
O	0.2266367782739999	-1.95468184256	4.36647412686
O	0.35555250027399987	-1.7357159625599998	5.71067805686
O	0.8321777502739999	-2.74399022256	6.47910304686
O	1.501129578274	-3.82543729256	5.97393828686
O	1.554811818274	-3.8549214425599994	4.58013668686
O	0.7396944132739999	-3.06836945256	3.8197003768600006
O	2.713132328274	-4.23564727256	3.9681436268600003
O	0.13520503227399988	-3.6177103425599997	2.6264975868600002
O	-2.188693611726	2.03397311744	0.7629860483600004
O	-0.9150421187260002	2.6985567674400004	1.8069281268600004
O	-1.2652553117260001	2.5577002474399997	3.1171797768600005
O	-0.5838883377260001	2.97809491744	4.21356152686
O	0.5610767422739998	3.6688753374400003	4.00469474686
O	1.136215428274	3.4486128674399996	2.7867135968600008
O	0.3153385192739999	3.1809636774400003	1.7090978668600005
O	-6.222384261726001	-8.63119545256	-7.01880671314
O	-4.313180661726	-5.36194938256	-7.30045309314
O	-0.8296025157260002	-5.12243507256	-8.806388823139999
O	0.9156451992739999	-3.00473825256	-6.29070418314
O	4.482251158274	-1.82932578256	-6.82242513314
O	3.747957488274	-3.4687851625599997	-1.8906006231399997
O	4.4959830982739994	-8.36796340256	0.12302620886000037
O	1.536197118274	-10.05574844256	-1.2490468531399994
O	-1.499416941726	-10.05094254256	1.0420477718600005
O	2.639284388274	-7.17873415256	9.42536958686
O	0.05714812327399987	-0.77940648256	9.108218156860001
O	-1.309669461726	2.7082588974400004	9.43287570686
O	-1.166620021726	3.7375928274400003	13.019825196860001
O	-1.552226101726	-5.94060115256	12.282467696860001
O	-7.374780941726001	-7.87446243256	6.94993451686
O	-6.210751111726	-6.18843988256	3.8636762668600007
O	-8.240313261726001	-3.50341202256	2.1779194268600004
O	-7.954350371726001	-5.4080330625599995	-1.0729455031399997
O	-6.136770841726	-8.45589366256	-2.4154098531399995
O	-2.693013861726	-7.25222058256	-3.3735525431399993
O	0.11933941527399988	-8.69804983256	-5.3675860131399995
O	3.351996048274	-7.17553456256	-4.10020449314
O	6.8677064182739995	-7.22478293256	-5.5055420031399995
O	7.6973555382739995	-10.72709994256	-4.23405581314
O	5.4406712682739995	-12.119349742559999	-6.88101606314
O	5.550573998273999	-9.19431856256	-9.36750740314
O	9.307510298274	9.42433560744	-3.81627150314
O	7.950194638273999	5.8498590874400005	-4.37123320314
O	6.205718748273999	4.9699977874400005	-7.608610033140001
O	3.2136599182739998	3.1082170074400004	-6.14711338314
O	0.6822052062739998	1.53011838344	-8.549905493139999
O	-1.673387761726	3.99409650744	-4.38486063314
O	-3.683143071726	9.007949957440001	-4.77093647314
O	-0.37116305572600017	10.81012335744	-4.25820384314
O	0.5328951492739998	11.39405205744	-0.6486384931399997
O	-7.063442331726001	7.99320973744	3.7603532068600005
O	-5.0432654417260006	0.99567602944	4.565904226860001
O	-4.298499181726	-2.08018466256	6.62841322686
O	-4.312142991726001	-0.7599148125599999	10.15855953686
O	-6.443829711726001	2.13092710744	9.524363156860002
O	-6.564067021726	5.74101255744	8.474285786860001
O	-4.708585121726	8.99580543744	8.73284990686
O	-5.885812571726	12.559871857440001	8.30523794686
O	3.143496698274	9.885333407440001	5.9723139968600005
O	6.620496168273999	8.59828889744	6.34970029686
O	7.160407318273999	8.37662685744	2.5380444968600004
O	6.401366478273999	10.35281573744	-0.46193111313999957
O	4.076946238273999	8.20964123744	-2.5821635131399994
O	3.363939118274	8.79961075744	-6.19820353314
O	-0.010526619426000125	7.28010087744	-6.94106999314
