35

O	20.84537970251076	-5.0311424397206235	12.920207359050812
O	22.081154785804117	-5.797372474165819	16.474929311199542
O	22.66584018164827	-5.430173000198699	14.328219506972841
O	22.961670694215037	-2.552029883799679	16.01417521624252
O	22.824127939035755	-4.607314194226264	12.137501868746252
O	21.331243783890265	-2.8668152284489894	15.691862670621308
O	20.494373911076046	-6.035794239675243	14.950941359356026
O	21.755270204894188	-6.089208748577151	15.103594243175847
O	23.043941450868065	-1.9195492154224116	21.641928321475614
O	23.023840990271182	-4.126997103196371	17.7709625203011
O	22.18921281374464	-4.429798150538678	13.426848331041286
O	23.999173065206637	-3.52105722353383	15.857026998985488
O	21.283849208792038	-4.86903566851614	17.1517675330622
O	23.070372791361628	-1.9893538508785062	14.710678372053696
O	21.8590698776085	-3.6120108495532044	17.70504530657622
O	21.45201998142734	-6.343234146924897	12.87618887352756
O	20.158704195332923	-4.46555395283263	16.281426827675446
O	19.588126869126764	-3.9160272221436516	17.574881270982317
O	19.948988129986542	-3.4877151188042625	18.816031800198658
O	18.37005842238514	-4.384242119050639	17.4906413770308
O	19.086283787588005	-2.6388529797227345	19.503325751638194
O	17.41205625614682	-3.755389560293097	18.23096814584804
O	17.82991593710527	-3.1552148091972607	19.381757446362926
O	21.129133063409977	-2.4854600155194593	17.0110055141641
O	20.59529278042246	-2.096245899838941	14.844250561365111
O	19.557255719735394	-1.39724576029416	15.506057945003036
O	22.98972072103675	-1.5467267649248333	17.433994036138188
O	24.106985972072604	-1.7687561679382018	18.15446856102139
O	24.2789049314857	-1.7662389833164027	19.55451815408846
O	23.13747923437601	-1.5313976870377177	20.272586036735333
O	22.046621743488508	-0.974409626526511	19.658617701106188
O	22.114425445827152	-0.9035269267617829	18.26585997916544
O	18.32653642368924	-2.180611746012758	15.425975210875713
O	19.578622053784123	-0.7469831158134925	16.78780971238796
O	22.51324286613353	-6.099907288780462	12.095484750636292
