63

O	20.198623671846768	-4.587590236447253	17.146150145309523
O	20.962365356232496	-2.597365828694892	19.869573040609193
O	21.17770723563188	-3.6655959359373256	19.267194136757926
O	20.940718045564253	-3.464606401201535	17.834390367696198
O	21.039707724468432	-4.527187912348168	18.303756101024938
O	19.21273965276062	-4.280008397364332	16.34175162028059
O	18.951942596719785	-3.0762573457959577	17.192589499090744
O	18.68753185604611	-3.386828096556577	18.341801207392617
O	20.055257901889295	-2.375731759574336	17.118075323278532
O	19.776273815673562	-1.1264270786373882	17.315945629403494
O	19.333352155514795	-0.7273920286767201	16.226763074112252
O	19.706532914811294	-1.1985939063663373	14.981557889800737
O	20.51387591985741	-2.200415116374813	15.269801581880431
O	20.869785017139485	-1.5933049516849898	15.635408758035894
O	21.037352353844753	-2.391078069639767	14.368127133578632
O	21.534195710859496	-3.696334754171786	14.552924240556004
O	22.276035672786936	-4.1058793253748025	15.483114072170713
O	22.809461070212954	-5.161391388715475	16.04476404332208
O	21.89912570030046	-6.170671121486429	15.982172191043048
O	21.29600350783523	-6.074332226982742	14.809659453906063
O	21.4613292894196	-4.88180381843601	14.112699084869998
O	20.96735429582934	-0.17155845346270682	15.992451734586563
O	20.841578914835637	0.5979817356959558	17.040978055660627
O	21.317302327265303	-0.012651392983175747	17.972218222975492
O	20.63490120184728	1.6499491851787638	17.99367820423145
O	21.27497032355399	1.237836048043921	19.171666854752832
O	22.223111355309882	1.6626554739796453	18.362170046806135
O	22.962701297281267	0.5556501728580565	18.34208502422119
O	23.13313163294863	0.5317189257065165	19.732630648557485
O	24.070885563796345	-0.30061942464164093	20.02549494893223
O	23.658679177601087	-1.5037481717167445	19.423777894968683
O	24.160733479332706	-2.6593441009523198	19.679488742526964
O	23.97245944303114	-3.4466292593177483	18.59631949635665
O	23.45831476949328	-2.772446359491958	17.580807738735558
O	22.663227873257284	-1.7039686101775628	17.262423091468907
O	22.662200677960513	-1.4208542410650187	18.637127029216245
O	22.861691255106102	-1.0181526288139118	16.061687676210397
O	23.686551659038695	-1.8172642398346763	15.204776735726726
O	23.627449781039335	-1.830552477067835	15.130534985410833
O	22.35095619950731	-0.19298483346184336	15.223449635347409
O	22.09014120989578	0.9937400430092813	20.150559140223642
O	22.126268196895275	1.8398798715447051	21.06998340496424
O	19.677628639763988	2.0960884196643734	17.005973378811934
O	19.496401203950175	2.6423211126730224	18.26612182419273
O	18.27425193192537	1.7554913938469126	16.864892836560134
O	19.90968959921225	1.7798562094172121	15.700567464653036
O	18.424870422472686	-0.8178347322266086	16.989573246512762
O	18.50296298921518	-0.7463980733649463	18.43585962823095
O	18.68046294424963	0.30431946805451915	19.23499576889846
O	19.276392548973277	0.40060124024518395	20.51255360568399
O	20.08606230773573	-0.5929258389861036	20.68148989480099
O	19.538437642964304	-1.6206783382235808	20.159678669633696
O	19.582764823137804	-1.1452731556786062	18.811509103619336
O	21.154568256662778	-0.8541720058218036	21.548698807216663
O	21.880222128793264	-1.9119180322019877	21.897904119520618
O	23.059589429047822	-1.632442741107121	22.4920855017769
O	23.110355650784694	-0.4126165788520627	23.094420755498415
O	21.88658021975241	-0.012871649624420556	23.538591706143276
O	20.91202882687374	-0.06825137051033281	22.597739551339444
O	18.668826985447613	-4.01658852687194	15.114145344769536
O	18.77055561886992	-5.4449904360496655	14.92376937699097
O	17.527125628223494	-3.298012773532389	15.54525651943539
O	18.755675219896975	-4.069624928318964	13.677440250060254
