60

O	19.054644530225566	-3.980189825219985	17.575928340208833
O	19.061661107788233	-3.656530682288091	16.249021345255343
O	21.11006542567545	-0.8817602795546045	16.47925157415201
O	22.899892286589893	-2.1509540605785906	15.814201226229127
O	20.93438205338148	-5.066277190868548	14.871627339305503
O	19.58911326099481	-2.2963019741675854	16.213142036931632
O	18.81861368348364	-1.5916489349668625	16.84934514095479
O	18.071041729240108	-3.434650238510887	15.258698177282309
O	20.29819622029263	0.17371816087461012	16.342352059837715
O	22.263615489295635	-1.2859731874486862	17.70793962915211
O	20.936646075503223	-5.550833669399364	13.57616036065169
O	22.12607758667196	-4.316522232887619	18.235809708448667
O	23.112601531587075	-3.6916512455681554	18.918950326951123
O	17.914902035247408	-4.773367307033714	14.728289189032898
O	19.859617252659152	0.5618516089892636	17.666137882185232
O	20.15612230840939	-6.7189952383363725	13.34598653127582
O	17.18890583943234	-2.8981857896767282	16.31217566228589
O	22.57767614239934	-0.42277435239040784	18.696786592857393
O	20.520893805834472	-4.54299378659175	12.650138746435323
O	18.547590789482058	-2.54211678590931	14.27491881365039
O	20.15678298456664	1.7205060330948856	18.175477394543584
O	23.020423298630416	-3.4018656521925417	20.244523673369955
O	18.793807660708953	0.07837273178558601	18.16159887981784
O	24.29178402729377	-3.240556417090797	18.42609893810632
O	21.936764821254403	-0.35700965922091865	19.714558935236898
O	23.02988229167663	0.7104047517869614	18.318935921985783
O	19.829527369902536	2.0967172930957565	19.42299811545652
O	24.010529535471882	-2.74425628221331	20.94432100704205
O	18.376234711188754	0.3029519539778789	19.39725444073145
O	24.741536104818028	-2.023101336144424	18.850357401939934
O	23.05304917186977	1.7080502422180428	19.254034344572762
O	22.058382050136693	0.6575708907741744	20.519943513195244
O	24.961266029396224	-0.6705804761755372	20.814397177212836
O	22.991636516315246	2.2522864377610503	21.708069461896514
O	24.75791636742452	-1.8797141074813377	20.199002359175314
O	19.016671688636904	1.2825484172181125	20.078153906967664
O	22.9348898678133	1.5530823415652029	20.56535091088528
O	21.45219110970798	-1.8296407722687629	14.259322824690496
O	22.067678300905307	-4.0765582808915894	20.96304508639337
O	21.838843730724186	-1.2401325734302666	15.340579028041258
O	25.75779287966476	0.14132744411530185	20.093063322877814
O	21.803475463226874	2.9684140247801345	21.890767336875093
O	19.442079426193313	-2.858937540829194	18.393671342796893
O	20.72688133278122	-2.126916766359934	16.80788331129728
O	18.294302570635484	-2.7096418115513448	18.823191861647924
O	20.06940044771581	-1.8123858770846704	20.234906448550152
O	23.203995487601446	-1.3764717165187381	16.810417521254692
O	20.28591950699932	-2.5544674618546352	19.306164088479754
O	20.20222860380609	-1.4983318397772352	21.523174746795554
O	21.370341761150897	-3.814797904328067	14.849146304706975
O	23.26946967793607	-4.076782137359931	15.598192149676931
O	19.61522279257718	-0.5475453259341378	22.214925170756537
O	21.56299413734659	-4.865775365586651	17.24340317874552
O	22.291169568569398	-6.227889517967734	15.927564842044468
O	20.12797891351981	0.4030195728231363	23.049706029448576
O	21.361678476069606	0.16423955681565827	23.573080993981893
O	22.11810373597252	-0.8108762147753807	22.99263899247842
O	21.35645198452646	-1.6273862513125623	22.206606643099786
O	22.20668263381723	-3.374828817368672	15.783209854052233
O	21.240376852820503	-5.647162169115593	16.146763964723952
