53

O	19.878943551515437	-0.2756158709973704	17.634345260459295
O	20.625357213616383	0.28385893732933387	18.630161473047377
O	23.7150065284359	-2.597267938534457	14.19117867706606
O	19.13661205370154	-5.384021138813589	12.913249552097852
O	20.96553045697197	-6.3385245956925	11.968051481470505
O	21.202001570819842	-3.9379525503662185	12.808209918866101
O	22.896400098088854	-0.10225994850837106	21.21215743399723
O	23.56539077457286	-1.1535445815614893	20.940697831793788
O	21.172353623841616	-2.3676626984286395	22.797913471341108
O	19.9969741277109	-1.8014135355020517	22.4793869963312
O	21.245719743585948	-3.6168941006666993	20.91083188873777
O	19.46150430393736	-2.387492592568242	21.316255794185594
O	23.67879845103776	-0.8875594040233283	18.124052519751004
O	23.18155343986113	-3.138339359192133	18.412325068439642
O	23.415681699403343	-1.2857674189406945	16.827275212094612
O	22.54943674188137	-3.161797521937703	17.336431177161582
O	19.776282657057124	-4.315669486613401	17.282037245594044
O	18.316982721893954	-2.652361522313704	17.500532581067922
O	20.280873035628986	-4.022191964593392	18.431228834203754
O	18.856724427808484	-2.3218206544125497	18.65209444309146
O	22.715662103706457	0.8788833378563652	20.1601079152681
O	20.538688402789628	0.1936696901267747	20.015776617144255
O	19.369362421993255	0.32685640241223224	20.26119723569377
O	22.611414272037894	-4.926874962173338	15.866269502606102
O	20.296795447405902	-5.706423729875075	15.813741088372975
O	19.671142635161726	0.20608523238176923	15.32727086337539
O	22.32776857102472	0.5690168775292128	16.318313594098985
O	20.910736999189204	1.6433770052574461	18.186432820008722
O	20.537632032590004	-2.0648806636664494	15.957391161556144
O	22.721927934080817	-1.5851928817487007	19.934795047287054
O	20.07908836150858	-1.6799629509849143	14.590314742203233
O	21.695571364022744	-1.3797879122103232	15.307946565156588
O	18.561517012140733	-3.229938402954697	15.393145595348853
O	21.59909284393576	-1.0546473830721868	17.708993361978152
O	22.48649222732488	-4.446973638090715	14.701432738075107
O	20.232526017747006	-4.9656240762150015	14.855601126823071
O	20.13669445657162	-0.18308856308773125	16.39371965321216
O	23.413831267277388	-1.9248703604100181	18.904480308034575
O	18.905580080827846	-3.5889571569388976	16.770198786687992
O	22.258329488580102	-2.0420108089664595	17.052432721140896
O	20.380499609697658	-2.7331769986778403	20.37315350148477
O	19.868398195445888	-2.9928846875252866	19.11254598025847
O	20.868151351870974	-5.931745356369653	13.962623085837043
O	20.57382477950322	-5.112201253275332	12.688476931293824
O	21.68490815807107	-3.4606812885017924	22.143443197565915
O	21.390778432672807	1.0638290426072041	20.605378239661217
O	22.187957068058402	-5.784550385698587	14.16848215176325
O	20.690526310021177	-3.7333504857876703	14.929222146450616
O	19.734465638527695	-2.8633862620080097	14.900952243075363
O	23.635977852791115	-3.785883258318999	14.789974205918151
O	20.570231850425856	2.5503269797084265	19.314408095139772
O	19.67312993662374	1.9142753158023922	17.412041810476886
O	21.513680585099305	-0.3896747860033729	16.33333775703575
