66

O	23.924836445305466	0.7945382919922	19.328169246768844
O	20.140638177644544	-2.3941704765325222	19.37382533329027
O	24.06236247487937	-0.4189769463303974	20.010191069838115
O	20.740296772376826	-5.889746452807903	13.42195642632642
O	21.347630887386277	-3.800165134934783	13.025618519200949
O	18.029943627372518	0.89067396942221	18.831243976168153
O	19.574111994428616	2.34214498285045	19.477636418737998
O	20.79312828255499	-1.3036142091505	14.748963920790086
O	21.59865302913565	-2.4085830954183645	14.835160668935556
O	20.131459278847416	0.6566614387582231	15.163814589576273
O	20.922536774103488	-0.1746668662898727	15.580438776062087
O	23.021099425274123	-4.0892920670927895	15.898797874430738
O	21.644917475624574	-2.9924772581916845	17.014918601839494
O	19.71099489625826	-1.9631296409488388	14.793167266420422
O	19.855177101153952	-3.1691117632378885	15.506192123800998
O	23.734486281965317	-2.4046507389906853	18.63875886754692
O	22.84146307457971	-5.1224460546527	17.39207257102723
O	20.10433130697235	-3.7642369781906146	16.670409752607195
O	19.788500883370254	-4.863035002504682	17.34795630011427
O	19.850802928852467	-5.770660265087918	16.374492431051653
O	18.909886815438085	-5.171146875544035	15.628113074173086
O	24.629102762817524	-0.678827408188883	17.584609451698345
O	19.03985234416703	-3.948579065347845	15.177327801790621
O	23.125432271422824	-0.18597983456733813	18.866028371975215
O	22.084234438368547	-4.55750479658807	15.203736422417942
O	21.72479036837203	-3.256251757919612	15.902766251060786
O	21.633321121757888	-4.872047094155877	13.937707754583176
O	25.066152979155603	-1.2220605661802013	19.7390696212858
O	25.725582566138357	-2.229939564456646	20.14746576089964
O	25.425089646113406	-1.9400182425200359	21.398307748040217
O	24.43672849758844	-1.2763599464396285	22.047681263663225
O	23.718959435903873	-0.7187010973562026	21.143080168197663
O	23.683859192177696	-2.9876824635531958	17.602130536739278
O	23.289264937055457	-4.076183442221017	17.254424993107634
O	24.881491907080296	-2.645820029585413	16.914308271581845
O	23.677698495523845	-1.0997706283375837	18.242878562108782
O	21.37665428668187	-2.9138141018799955	19.70361731856306
O	21.449296963359874	-1.3876480838641996	16.745910704360607
O	21.774965753955385	-0.6164416857431281	17.692453174442743
O	23.115019161530842	-1.1315252654324552	15.200038007316333
O	22.241507048282195	-0.5435046294133066	15.921520770851505
O	20.961317854647078	0.5746390477252284	19.489617331215086
O	21.788597803424466	1.3129511194074395	17.68845503681643
O	20.36242648250675	-0.28861216654857313	16.78003202541651
O	19.290916794897985	-0.930529401501375	17.135729134898465
O	21.588336511959756	-0.14620954001577247	21.461517004528517
O	22.338686004569098	2.289151696139297	19.779832210390733
O	18.17127929043429	-1.1914036843533107	16.689406563456753
O	17.564524395905625	-2.358831351820899	16.978532170866256
O	17.770175066215938	-3.110794188971167	18.020220258227596
O	18.354916985071924	-2.3238609179153773	18.896128676125
O	19.596789503197638	-0.484380070548598	20.953248117597905
O	19.243145795151722	-1.726530974193536	18.121346268361798
O	21.071044683889532	-1.5761144079666494	19.676668323288595
O	20.10980089703545	0.6984875829988576	18.540220600271148
O	21.014956139630314	0.4086641462392734	17.721433487040514
O	19.232520341300027	1.5347796800706774	18.29933136418957
O	21.36037740147881	-4.158793671361449	19.61381880249733
O	22.48069302655714	-4.841561905166631	20.004269312205007
O	23.417008658174097	-4.034421722107295	20.554511315032357
O	22.762474876818988	-3.2656261514786773	21.435615555931783
O	21.698100180310277	-2.6201090623802727	20.973005021030797
O	21.444939258230054	1.2412346067796869	21.325482980824
O	21.517318860735724	1.5794407147853842	20.058484611506735
O	22.62808560549447	1.5367011647033957	22.02861774290299
O	20.71618118138563	-0.6367371470215555	20.502935116975824
