60

O	20.609289081826756	1.19100153325092	18.97154173636965
O	19.267471990478867	1.4645616817582472	18.71738994392404
O	19.262138657427222	0.06750937148601466	18.226840058513346
O	20.148198658732365	-0.1069009891642776	17.318178783437656
O	19.972344325143254	-1.2661401621234396	16.642086557669955
O	20.084039856912952	-0.40282330861990345	15.367030507858138
O	21.39682120254499	-0.25553945986977045	15.535362458408652
O	21.310840965506863	-1.5534673320667727	14.869662562190346
O	18.82128384680371	1.9311404149674207	17.17501478662725
O	18.665968927961078	-0.3392887376559911	19.07060983557719
O	18.730712969796212	-1.6141935350719125	16.58122247975335
O	17.770247008441633	0.9438902055202256	17.015434743452207
O	19.217124171753667	2.784859759868609	18.228593999886446
O	18.476345254710544	-3.3041636238414753	17.555071670017742
O	18.495886705795428	-4.388722427585979	18.329067076320502
O	19.225198194370012	-4.3095375936888685	19.459065721691207
O	19.305940718085107	-3.100379078830202	19.957685357491144
O	19.55675898949303	-2.2248188286020465	19.007697669736956
O	18.986137993929677	-2.192803320221892	17.845547452060277
O	21.31683557927438	1.5117198113681007	19.95758658017887
O	22.48756602694476	1.1508658208169347	19.385522477989813
O	22.381757141147432	1.3069189686314535	18.12059306185339
O	21.21641165538896	1.70470709755291	17.901727802488384
O	23.178699122417857	0.41812700438056094	20.22383558828969
O	21.986387697219335	-0.020802230093444063	21.065360244238132
O	22.550846522626333	-1.7233648389025353	14.702052990893055
O	21.364698186957916	2.3923721074853583	20.869843723286763
O	20.973673565661986	-2.542810065206764	15.822725964987617
O	22.706612946510276	-1.5245071282552245	16.16115517614939
O	20.846782022823124	-3.598792160131759	15.260828975449835
O	21.89843826855264	-4.077468309578642	14.717652527971705
O	19.832420088644827	-4.49663252676678	15.462661270875483
O	20.762781195254608	-5.17347831083828	16.263170114476697
O	21.666350465086516	-4.0727236480628175	16.720668672741795
O	23.003403591881483	-4.377059286927193	17.044557090260515
O	23.911058208616197	-3.6761447579764113	16.409305295887403
O	19.66937053828241	-4.591230661577748	13.99838315713998
O	18.459794504393415	-4.176943057935587	14.495204807935886
O	20.54381436072677	-5.7190469474972465	13.920873274909832
O	20.392071923693095	-3.7174072132880855	13.117959294342205
O	21.38157908331566	-4.295225888647824	17.80188109206681
O	23.266631508701533	-0.5943393514008316	16.851547189600545
O	23.840738310105085	-1.3793000110576583	17.94030250924677
O	22.915080116177652	-1.8967945727956081	18.701690989968448
O	21.808516404768664	-1.7669655400495066	18.40546914820103
O	21.929460336367395	-1.2755367575201417	17.160974312103146
O	20.81557377747875	-0.44761074258622313	20.94248783239081
O	19.8204669937464	-0.3144350825070983	21.74334822710175
O	20.07488896807152	0.4581114276800844	22.821160910663423
O	21.349732724828886	0.697038546968034	23.10565418054543
O	22.316491816892785	0.35834526987891513	22.2689161672518
O	18.675433691291737	-1.1761672782947703	22.03647588485019
O	19.771764262971868	1.8255126320332768	16.225234037777422
O	19.51359445167063	-1.390478266519663	14.83820974756832
O	23.029388284606874	-2.7041663206445095	19.76912129634882
O	24.121006923580367	-2.060132398925985	20.25350130722745
O	24.512228756865934	-2.3403610998465014	21.46521941136957
O	23.50987141616218	-2.533140819361921	22.307351222119564
O	22.29726184514515	-3.0034864975790025	21.90450135186012
O	22.217878831940236	-3.2644974199517387	20.60253989783346
