105

O	-1.7974625973571428	0.8530714048035721	-2.6183800201607146
O	-0.7835552483571429	0.06186231380357221	-2.445494170160715
O	1.1579264786428571	0.09410764080357215	0.1138871498392855
O	-1.5773947871571428	2.1431027538035723	-2.7320893701607147
O	-1.4449570303571428	2.534604003803572	-3.8776073601607144
O	0.2308269886428571	0.0586923258035722	-3.2568201401607144
O	1.9381873686428572	-1.0845402661964276	0.09542537983928545
O	1.318882578642857	0.7042214213035721	-2.6397321801607143
O	1.1962648686428574	-1.9718410861964277	-0.8099681461607146
O	-3.307151981357143	-1.6660410361964275	-2.7057922601607145
O	1.9801990386428572	-2.060623746196428	-1.8872739291607146
O	0.20632828864285724	-2.796688366196428	-0.9067845101607146
O	1.0755739786428573	1.9468673738035722	-2.168200270160715
O	2.467105228642857	0.3785447748035722	-2.4912739301607143
O	1.562840308642857	-2.5270101561964275	-3.0798315301607144
O	-0.3107760013571428	-3.295074806196428	-2.0167222251607146
O	0.2923190986428572	-2.9729625861964277	-3.1485785801607147
O	-0.06026659135714274	-1.204093626196428	1.2294639498392854
O	-0.4483456513571429	0.7316875523035722	-1.1535342361607146
O	-3.633366301357143	2.8759898438035725	-2.7890553801607147
O	-0.5028732113571428	1.913201813803572	-0.9037618951607146
O	-2.538900841357143	3.0442550738035723	-2.1335936101607147
O	0.2806580586428571	-0.20844872119642777	-0.8918212451607146
O	-0.21761087135714274	1.2820124178035721	1.2284294798392854
O	-2.534273529357143	3.2062280238035723	-0.8517414571607146
O	-3.269271821357143	0.4301211498035722	0.5591450398392854
O	-2.397390064357143	-1.7163163361964275	-1.7207066511607145
O	-2.9236030513571425	-2.6600870761964277	-0.13727894816071462
O	-3.677075111357143	3.1468092738035724	-0.17644306816071453
O	-4.708148121357143	2.597841283803572	-0.8401983431607146
O	-5.877723511357143	2.2730401038035724	-0.34026843316071453
O	-6.846183711357142	1.586817792803572	-0.9958595630607145
O	-6.589829131357142	1.3823772048035723	-2.317804860160715
O	-3.0644343613571428	-0.8479039461964278	1.3165580798392855
O	-5.845665091357143	2.4553693538035724	-2.8130873201607143
O	-4.738879991357143	2.716477043803572	-2.149276520160715
O	0.0788948186428573	0.11024188080357222	1.0658043898392853
O	-4.693967991357143	-2.1917869061964277	-2.5711616401607147
O	-1.0661464733571429	-1.3741441961964278	0.5217118098392854
O	-1.8986763863571428	-0.49502769619642784	0.2148947798392855
O	-2.5703906523571427	-1.7917895961964279	-3.9848403301607145
O	-2.189558449357143	0.5518766878035721	1.1497687398392853
O	-3.926648451357143	-0.3092710641964278	-3.0869624301607144
O	-4.032108071357143	0.23509153980357217	-0.5575124381607146
O	-5.005892861357143	-0.8071595061964277	0.00517487983928544
O	-5.288484111357143	-0.32658038619642793	1.2826448098392853
O	-4.096433191357143	-0.7106108561964278	2.1129418398392854
O	-1.9226347023571428	-1.6264732961964277	1.7163260498392856
O	-2.633451841357143	-1.5146494361964278	-0.4576924381607146
O	9.196021508642858	8.877895283803571	3.373848139839285
O	8.549122008642856	5.187594203803572	3.927824409839286
O	7.196593458642857	3.758327063803572	7.158995229839286
O	4.5142902186428575	1.4810666188035722	5.917528889839286
O	2.5173213086428574	-0.6755432461964278	8.326416249839285
O	-0.7328744693571428	1.619454553803572	4.703558249839286
O	-3.171967931357143	6.384119313803573	5.169879089839286
O	-0.4243741913571428	8.631671993803572	4.711917969839286
O	-0.03907897135714289	9.688756253803572	1.1019302998392853
O	-10.717947711357143	9.188961663803571	-3.9616582301607144
O	-8.392240011357142	6.454040983803572	-2.585486530160715
O	-5.580996951357143	1.6654899548035722	-5.798709240160715
O	-4.592941141357143	-1.148226826196428	-7.9750788001607145
O	-7.256368931357143	-1.7384985261964276	-10.609254440160715
O	-9.387791091357142	1.0825899618035721	-9.324056200160713
O	-9.701416971357144	4.380493543803572	-7.474841200160714
O	-7.312026621357143	7.323786233803572	-7.636344460160714
O	-7.8976209013571435	11.093050663803572	-6.983346090160715
O	0.2936610586428572	10.043072093803572	-7.378075720160714
O	1.9299462086428574	7.815916863803572	-4.997274610160714
O	4.944945808642856	5.7179175938035725	-6.035683860160715
O	6.730769708642857	7.025193693803573	-2.8937314901607145
O	5.874626158642858	9.129755123803571	0.13208548983928536
O	4.309277438642857	6.8069384138035725	2.6364559798392855
O	3.629780448642857	7.230168283803573	6.298873189839286
O	0.6903992886428574	4.979815053803573	7.036501919839285
O	-0.8560071623571428	3.865727543803572	10.266843289839287
O	-2.750397591357143	7.082247763803572	10.935676989839285
O	0.48796813864285715	8.796587653803572	11.842855489839286
O	2.493167888642857	5.6994363638035725	12.823456089839286
O	-4.125420671357142	-3.474619616196428	10.206001489839286
O	-1.3922248423571428	-5.816785236196428	11.530369989839286
O	-1.8712725373571428	-12.271747936196428	6.413648429839286
O	-0.8185069013571428	-8.573631726196428	6.823672349839285
O	2.620832248642857	-7.789967816196428	8.160792039839286
O	3.617568158642857	-5.050499676196428	5.774296489839285
O	6.865619318642857	-3.068897986196428	6.154725039839285
O	5.547785268642857	-4.239610976196428	0.9419485998392854
O	7.612133518642857	-8.575328046196429	-1.6451015121607147
O	5.236287888642858	-11.183220136196429	-0.23374614916071457
O	2.0571485786428574	-11.51746403619643	-2.2468739701607143
O	3.748239778642857	-5.620405466196428	-9.449584370160714
O	1.312713598642857	0.5856705258035722	-6.713820400160715
O	-1.0644020283571427	3.6571023238035725	-6.717857090160715
O	-3.311523011357143	2.944216803803572	-9.590781950160714
O	-1.1330367053571428	0.6580399348035721	-11.447859210160715
O	-0.14186124135714273	-2.9283708461964277	-11.665862010160714
O	-1.3353546593571428	-6.465184916196428	-11.555468110160714
O	0.02267993864285711	-9.652677436196429	-13.062077610160713
O	-4.671380241357143	-9.65475783619643	-4.5658390101607145
O	-7.442110441357142	-9.123336076196429	-2.0907162101607146
O	-5.051114301357143	-9.757736736196428	0.9283846898392853
O	-2.2103846503571427	-12.02280643619643	1.8875191598392855
O	0.7896515186428572	-9.671239736196428	2.3681307098392854
O	3.9543935386428575	-10.57602753619643	4.228991339839286
O	6.639698878642857	-8.25851951619643	2.8560011798392853
