40

O	18.590784125568263	-2.535053354079428	19.82011665797183
O	22.046719467384484	-4.464237120971359	13.980762748116282
O	21.890215468370545	-3.647653746295275	12.83166479571295
O	21.455078423774037	-2.4030215231487473	13.181612499064329
O	20.923264082910947	-2.202823909251611	14.419936921686405
O	20.35924065855381	-3.2884692375749176	14.923244224712379
O	20.906745271067795	-4.535770877044942	14.647257672873724
O	20.65497477017772	-0.7271032199986134	15.167667049346264
O	20.18177802225426	0.5453511145562517	15.073515099638978
O	22.10562772889535	-0.30622200297543745	14.869927235704623
O	20.046177594242096	-1.2804099292281124	16.644968014503686
O	19.0354674215739	-2.1128357372297075	16.913656314168133
O	19.22712484479613	-3.8667249528852508	20.63326706792772
O	19.89740926909748	-4.4621766400004965	19.634205977746518
O	19.192995242521796	-2.7344753044127357	18.290031753742642
O	20.928422077775	-2.479288207221183	16.922996236908173
O	22.139525178064638	-2.036607464584517	16.29687917660826
O	19.731394860313912	-3.9465330983432896	18.391533283606627
O	23.231416096483553	-2.5391900025682315	15.873411268088406
O	22.304694938181616	-0.8667577357481909	17.15392284961327
O	21.140257778124898	-5.3060157859594685	15.818052574728702
O	19.858907630379257	-5.863084268540121	15.850857021003266
O	23.299893831038872	-1.4575420772886134	17.918899464280297
O	22.778000134324287	-2.6921539141437183	18.329709912633454
O	22.508783178756655	-2.5146959678007015	19.727043861797053
O	22.697825838373383	-3.7687534478014992	17.866364659645875
O	23.730488403185284	-2.2839617423947063	20.448278095114535
O	23.727067991021443	-1.396627055682278	21.524941356289
O	22.81981301557515	-0.34710228048665215	21.29166692599744
O	21.544844277192524	-0.8305333710607152	20.98500213753983
O	21.55589705707465	-1.6326706751565383	19.963097597499036
O	22.71201076960891	0.5795527224686126	22.269186140547056
O	20.45049390726567	-0.7100751558760776	21.78004258009905
O	21.347170288422156	-0.1918145057250784	17.69643300290831
O	21.579241944963126	1.607819345634201	18.921755247014822
O	21.33609667408655	2.3314729992085432	20.034268231039317
O	20.14559033106114	2.1180858276658827	20.60942744514544
O	19.2506547319971	1.3192949036992005	19.962652710062947
O	19.511600589424575	0.6203533061009865	18.84497819379751
O	20.681871913644652	0.8508216969830853	18.26438076420941
