85

O	-4.006851604755555	-0.3169558435733335	-1.7776499641555557
O	-3.3167719447555557	-0.9438633735733335	-0.8278509591555557
O	-2.104807004755555	-1.4886558935733336	-1.0129969581555558
O	-1.7359680597555553	-1.6788744335733332	-2.245601613155556
O	-2.4345280747555553	-1.3077793835733336	-3.2289774131555555
O	-3.643181614755555	-0.7940055435733333	-2.975223093155556
O	-0.000956655755555369	-1.4336241735733335	-2.5614061831555555
O	0.38895274524444456	-0.6668098635733335	-3.6664540231555556
O	0.14213523824444463	-2.7995666035733335	-2.3526962331555556
O	0.5744711852444446	-0.6547738035733335	-1.2068304554555558
O	0.0961572642444446	-1.4534144335733332	-0.12344216815555575
O	0.7389678252444447	-0.8704480135733332	1.001795346844444
O	0.34755428524444465	-0.054880963573333386	2.0539574968444443
O	2.147783775244444	-0.7679733635733335	0.8466283968444444
O	-0.5262047407555555	0.18238217642666665	-1.4410937581555556
O	-0.9484635620555554	0.8273166404266665	-2.6488010131555555
O	-1.9158588947555553	1.4625888004266665	-3.2339502031555556
O	-1.7115254227555554	1.7282376554266665	-1.7281190681555558
O	-0.9721591507555554	2.9076701564266667	-1.7115295441555558
O	0.17888971524444464	3.1355644164266665	-2.4276830931555557
O	0.40622943524444466	2.303802956426667	-3.364280993155556
O	1.2894862852444444	3.3741566764266664	-1.6170585051555557
O	2.418055695244445	2.9928204864266665	-2.302693063155556
O	2.7831301952444445	1.7552292844266666	-1.5759319971555557
O	3.530066115244445	2.494905246426667	-0.5106835621555558
O	3.0458665352444445	3.7275571764266666	-0.4008742181555558
O	2.0606815952444446	3.8266419364266664	0.4885017968444443
O	1.9737064752444444	2.5659979464266667	1.1555729468444442
O	1.4322547152444447	2.0626201714266665	0.09016160684444419
O	2.3838392252444445	1.6121875624266666	-0.5800281321555557
O	-0.8174759957555554	0.8501428394266666	-0.8990183921555557
O	-2.3870010447555554	1.1410285534266666	0.7788679168444443
O	-2.5074950447555553	1.4929471324266665	2.0686385168444446
O	-1.7181854437555555	2.5022871864266665	2.5177326468444443
O	-1.0127011557555554	3.2548679964266665	1.6846820968444443
O	-0.9808591787555554	2.7492633764266667	0.4455330768444443
O	-1.2553745077555554	1.4746705914266665	0.2142750868444443
O	-4.613534394755555	0.8888386084266666	-1.5661055681555558
O	-5.720824024755555	0.9022350854266665	-2.4091766731555557
O	2.107907995244445	1.4754387414266665	-2.0929942041555556
O	0.1738236652444447	-5.914683583573334	-11.409406463155555
O	0.2541163652444447	-6.671414733573334	-7.710129873155555
O	3.2324889752444443	-8.196961043573333	-5.850769833155556
O	3.650486585244445	-6.091794903573334	-2.9101577731555555
O	6.1625783352444445	-6.461804243573333	-0.11069835315555565
O	5.126761585244444	-1.3168662735733334	-1.6292694241555559
O	8.627531645244446	1.1640944432266667	-5.060518313155556
O	7.261390395244445	-0.11586554357333334	-8.265563793155556
O	4.515906965244445	2.2219194044266666	-9.477936153155555
O	6.177255115244445	9.920868376426666	-3.491247513155556
O	0.7883004752444447	8.890857646426667	0.010214076844444309
O	-2.1782378547555554	9.313612196426668	2.2243265768444447
O	-1.7196873407555553	8.093278276426666	-10.071597883155556
O	-1.4200220607555554	4.851879266426667	-8.362117503155556
O	-4.485336144755555	3.0561183264266667	-7.451386303155555
O	-3.1205163147555552	-0.08481554357333332	-9.200661903155556
O	-0.03659420175555539	-1.3303580735733336	-10.738651273155556
O	2.3959319352444446	-2.5601461535733336	-8.218888773155555
O	5.620871735244444	-4.350900943573333	-8.098887163155556
O	7.425567885244445	-3.1732628635733335	-5.017622963155556
O	10.586190035244446	-4.2294314535733335	-3.2906657331555556
O	4.998393295244444	-4.048387823573334	12.141092936844444
O	5.464433675244444	-4.498529143573334	8.363840376844445
O	4.467048915244445	-7.7405555635733325	6.643377146844444
O	2.5766331352444443	-6.372294583573334	3.6325244168444444
O	1.3123865252444447	-8.683168393573332	0.8594797968444443
O	-2.1059826547555556	-4.525471013573334	2.1587305968444443
O	-6.342174344755556	-5.506065203573334	5.752392496844444
O	-4.247650474755555	-5.011714763573334	8.904446736844445
O	-12.550276564755555	4.676368446426666	5.308350256844444
O	-9.582859444755554	3.1595681464266665	3.6363848968444445
O	-4.537767974755555	4.928971826426666	-1.6149222931555558
O	-2.2341792347555556	7.004576356426666	-3.6405211231555556
O	-3.1048751547555558	10.260652036426666	-2.155438023155556
O	-6.4938737747555555	9.568530666426668	-0.8025586501555557
O	-8.327745754755556	8.169494126426667	2.254058576844444
O	-8.160445824755556	8.091381396426666	6.040885886844444
O	-10.715779684755555	7.269110006426667	8.681233986844445
O	-1.0592586947555553	5.471530516426666	10.239334536844444
O	2.7108812652444447	5.954492716426667	10.324330836844444
O	3.3910311752444446	2.2293241524266665	10.205393836844445
O	0.8006610952444446	-3.031640643573333	8.795832476844444
O	0.07518880824444463	-6.726544563573334	8.754382676844445
O	-2.1272616247555556	-7.222267813573334	5.651606436844444
O	-3.2453344647555555	-10.431683463573332	3.997397516844445
