94

O	0.5021150444265305	-2.1563936131224497	2.3443862520702043
O	0.9397504244265307	-4.3659346731224495	1.5868096220702042
O	0.5911517814265306	-3.24603270312245	3.2727339220702043
O	1.1664630744265305	-2.55779606312245	4.387608662070204
O	0.9194327044265307	-2.4173850131224497	5.707885092070204
O	2.0076544444265307	-2.25661184312245	6.537776342070204
O	1.6955775844265306	-3.9476933531224496	2.6098492520702044
O	2.2938657244265306	-2.08929323312245	3.8209727120702044
O	3.0468604144265306	-1.29460301312245	4.682919702070204
O	2.9584865844265305	-1.4317226931224498	6.010411982070204
O	2.8261849744265306	-3.21759716312245	2.9367289120702043
O	2.5137237944265305	-2.73510279312245	-0.36412367492979586
O	1.5101026244265305	-3.20672246312245	-0.9001517839297959
O	3.3693307744265306	-2.1795537231224498	-1.463127207929796
O	2.9344929244265305	-0.8801503231224499	-1.3021669879297957
O	2.7693976344265305	-0.09260771912244989	-2.398418807929796
O	3.823930614426531	0.7944639738775501	-2.1686824879297957
O	4.009454694426531	1.5363755468775502	-0.9471565279297959
O	4.597822994426531	1.25753542687755	-3.2640309879297957
O	3.7850955644265305	1.11820213887755	-4.442227507929796
O	3.8630701144265305	-0.2733049351224499	-4.619209027929796
O	2.9846850544265306	-0.7508735571224499	-3.610318307929796
O	2.3796761244265308	-2.0407607731224497	-3.6184755779297957
O	-0.006738108573469348	1.03944518487755	0.12797487807020413
O	-0.6492259735734693	-0.09758723412244988	0.7121811710702041
O	-0.39727501657346936	-1.2432788931224499	4.076274772070204
O	0.27362707242653067	1.94546058687755	1.6518206320702042
O	-0.13033437667346934	0.8299177798775501	2.8396762220702043
O	0.7882176164265307	0.6080956548775501	3.8946808520702043
O	-1.2217832255734693	0.7153647878775501	3.8136439620702043
O	-0.7973509635734692	-0.17140061812244986	2.044536182070204
O	-0.3500708705734693	-1.28788764312245	2.8388245720702043
O	1.5944929644265307	-0.6326497831224499	-0.10221022872979585
O	2.2688942444265305	-1.79246023312245	0.5342768970702041
O	0.08322494042653064	-0.19699432512244988	-1.7413558279297958
O	1.7788296844265306	0.20858041617755013	0.8308588080702041
O	-0.8367913165734693	-2.28407965312245	0.2722747090702042
O	2.9323477144265304	0.11193615587755013	1.6847291820702042
O	3.9128986844265303	-0.7304482121224499	1.4514291320702042
O	4.989665604426531	-0.7223463441224499	2.2387311820702043
O	5.271008544426531	0.42569842887755016	2.926179822070204
O	4.692136744426531	1.54445587687755	2.3353471020702044
O	3.3687306044265304	1.29700248687755	2.143379832070204
O	0.5306243904265306	-1.1778282831224498	-0.9585269409297958
O	-0.05736900697346935	-1.34309662312245	0.28384456007020414
O	-5.256870195573469	-6.98163350312245	-9.306705737929796
O	-5.3255995555734685	-3.67291725312245	-7.436909087929796
O	-8.150354345573469	-2.63340311312245	-5.208455197929796
O	-6.440242445573469	-1.3510319731224498	-2.263590647929796
O	-8.23448920557347	0.17334766987755013	0.6659576770702041
O	-4.658406945573469	-3.15822940312245	2.189178892070204
O	-4.968219265573469	-8.50116968312245	3.3477920220702044
O	-5.117876525573469	-9.80904074312245	-0.10757385382979585
O	-1.7006900055734695	-10.81534414312245	-1.5192829779297958
O	4.120611054426531	-10.19359354312245	6.613299632070204
O	7.172861404426531	-4.47857768312245	4.835400502070204
O	9.39323581442653	-1.4671167531224498	4.330849032070204
O	6.857468434426531	-11.16997984312245	-3.208854037929796
O	4.322701934426531	-8.54232269312245	-3.5984827479297956
O	4.966753764426531	-5.83557899312245	-5.982990947929796
O	1.4799317344265306	-6.4046359131224495	-7.606621667929796
O	-1.5584339555734694	-8.39039195312245	-6.908786397929796
O	-3.6680982355734693	-6.69760932312245	-4.3540194379297965
O	-7.152207345573469	-7.10751776312245	-3.122244207929796
O	-7.214202175573469	-5.86619413312245	0.4276085470702042
O	-10.08928140557347	-5.10879519312245	2.8480237320702044
O	-12.124388365573468	-9.31886546312245	0.48617411707020414
O	-13.13336186557347	-5.72086312312245	-0.36870062792979585
O	-4.6574834955734685	9.96920218687755	7.818390602070203
O	-5.5910509355734685	6.77987438687755	5.840145372070204
O	-7.605926605573469	6.94998996687755	2.633814422070204
O	-5.603092215573469	4.59168553687755	0.4302864620702042
O	-6.644965445573469	3.6111244568775502	-3.039360297929796
O	-1.5010591055734694	4.60874064687755	-2.9441980079297956
O	0.7832171544265307	9.60768261687755	-4.1081418279297965
O	0.23286956742653064	11.07669655687755	-0.6819068999297959
O	2.9159319844265306	10.48045535687755	1.9476072020702042
O	12.61178383442653	7.06255153687755	-3.271354597929796
O	9.35705993442653	5.28413584687755	-2.762576187929796
O	6.994143304426531	-1.95155409312245	-1.4204016279297957
O	6.816465634426531	-5.26012185312245	-0.09117360446979585
O	10.202367934426531	-5.12869782312245	1.5632220520702043
O	11.833708834426531	-2.31851267312245	-0.28976563892979584
O	12.127706834426531	1.4785729868775501	-0.4244282289297958
O	12.42952923442653	4.57427411687755	1.7208558720702043
O	13.758706634426531	8.039813666877551	1.0771399620702042
O	6.365583374426531	6.62226007687755	7.408967082070204
O	4.429948054426531	5.27756749687755	10.315919932070203
O	1.1008317144265305	6.47597210687755	8.878226402070204
O	-0.17247157547346936	9.51784626687755	7.043021632070204
O	-1.4880710755734694	8.41510400687755	3.636682932070204
O	-3.8656589355734696	9.99731297687755	1.3232190220702043
O	-3.183007075573469	8.48380429687755	-2.074786077929796
O	-5.167909865573469	8.80568386687755	-5.280472527929796
