42

O	21.067638480173215	1.4981943844891283	21.0924455528495
O	22.112120822457545	1.2011044360791345	20.24173458678746
O	21.818636524934124	0.5394616009738855	19.08291721998622
O	22.9024582415166	0.23203013978924014	18.258589784716065
O	22.782416202270507	-0.17312372174647872	16.99607632316206
O	21.536595450912095	-0.2671945976184582	16.479498280576376
O	20.904488211110433	0.8144410514081297	16.95594565767153
O	20.899013141618727	1.0757124473310484	18.265092289911536
O	21.415858878356833	-0.7109046823191696	14.858176575713196
O	20.495855801780866	0.1454288995850146	14.250772393134346
O	22.737201615465892	-0.6971673169058645	14.263850860108906
O	20.67834974922761	-2.2007096232006766	14.290824288652205
O	19.47426874056476	-2.235657344164406	14.994442099768197
O	19.301094524373035	-1.0290104573935355	15.659423625976547
O	18.827078529883376	-0.8304714761707997	16.860666765293495
O	21.822718502451526	-2.9224774536126983	14.319332653747619
O	22.46780989687514	-2.4782291281423086	15.584272548840751
O	23.51247121599411	-2.8834221909124835	16.275159967069065
O	21.24692033866295	-3.0128493445871407	16.221417726149273
O	21.501983415335946	-2.5989146638614216	17.459702577131317
O	21.716677578732135	-3.4873212669963807	18.35941606445032
O	22.036686739737863	-2.570760251171323	19.386608810993973
O	21.297334793122367	-4.5645696778401845	18.08272963591133
O	23.412020912536846	-2.368660958451012	19.512046143731666
O	23.91021379254903	-2.0433288042699154	20.775083022605713
O	22.974836539302444	-1.410169883184661	21.58480312364371
O	21.6358783784733	-1.7730064621169417	21.498679186500105
O	21.52346182368652	-2.8402852423261598	20.604669948890916
O	20.659606034118955	-1.4194147191188238	22.399157674754075
O	21.84118819847334	-4.282967733478944	15.963856124375775
O	21.32447071991232	-5.44009819134771	13.87890868403623
O	20.95381979632471	-6.7414227611620055	13.774914345263399
O	20.268100220254144	-7.303347089276806	14.80172236573467
O	19.427581871492354	-6.401582514494766	15.460273757320678
O	19.79051507916329	-5.110438879618543	15.482963910530739
O	21.017024674736934	-4.8557126337023515	15.021549352343705
O	19.020469040757085	-1.880479590176789	17.789148285953676
O	19.08350854900156	-1.4775643430561822	19.074658647228883
O	18.680145981421973	-2.442472118277016	19.930487215519662
O	18.581980658325026	-3.7411840021420684	19.533815716094995
O	18.266264652623434	-4.03193216687116	18.2468184587438
O	18.385992608245385	-3.0157044543200606	17.384392557702412
