42

O	22.578269939736373	-6.709803582908563	14.149597962757795
O	21.9742051196101	-6.0393715981578895	13.153247851813942
O	21.92420561332243	-4.718832269173613	12.998650185871329
O	22.823054865066904	-4.0229740002948695	13.60806066012667
O	23.539614434986966	-4.522344648187817	14.548429692286117
O	23.516704853679823	-5.873159259433229	14.687325739084898
O	22.50569869942415	-2.386247432476761	14.016276794326123
O	22.39297987306995	-1.9174677015220618	12.644255674202567
O	23.71682860361862	-1.8340218340544592	14.51911480066396
O	21.05702162757817	-2.7755231414925676	14.62264433458061
O	20.17668036390905	-2.073731744409407	13.858507386823007
O	20.313799529135956	-0.7732126574823954	14.398123206612581
O	19.406354774617252	-0.39612181642436717	15.441149880246588
O	21.60142521820434	-0.3813595008056194	14.750539023444151
O	20.434665593626395	-4.125150325403744	14.351032654228849
O	20.481153660616737	-5.137210772981986	15.400007850011606
O	19.914721250922085	-6.200241191311594	15.745023628034192
O	21.225497225155827	-4.598835904622862	16.32393455125968
O	21.93555304333456	-5.023298108052829	17.261742764871137
O	22.97542219002728	-4.263547124494639	17.80278699602288
O	24.008034850780625	-4.661345656104935	17.31441093245595
O	23.719153965722114	-3.1387247346773237	17.454430879062727
O	23.479159283923806	-1.8825062354577238	17.33767586485964
O	23.659343415344804	-1.0260433041689665	18.422507098067303
O	23.14824493771416	-1.9208630515783305	19.42224486865866
O	22.07834143411374	-2.6168940910134713	18.835196889676
O	20.859433209075736	-2.4543312638567163	19.232626759081963
O	20.839942485325814	-1.1593102580338446	18.721320358694044
O	21.458200105385288	-0.7562805914049733	17.364789950209648
O	22.135224968356866	-1.8379502887731611	17.510129007915836
O	20.87201700137732	-3.24942225590653	16.127011306755243
O	18.89857886391703	-2.200929274579846	16.9732865658531
O	18.00614762210568	-2.298896196718966	17.957379629527235
O	17.68107429044	-3.6106198033687003	18.17636601836324
O	17.508120875600714	-4.248204002368295	16.922194911727903
O	18.595288378753807	-4.131009971446291	16.14790758673334
O	19.543211612023114	-3.275014585452455	16.52862387938258
O	22.14206627877629	-7.76343730459846	14.871632088855412
O	21.099388060793878	-8.531474202453127	14.458514694692475
O	21.47584092219728	-0.6794147214211357	19.845620271974187
O	21.752545125296475	0.5608523708032753	19.485580771267234
O	21.934611004611064	0.5095245017045928	18.013405580396256
