90

O	-4.382908513590909	-3.7133978534022725	1.6188595506999999
O	-5.558014313590909	-4.336824173402272	1.3354891006999998
O	-2.3856780385909087	-1.8868664434022726	-1.8909344593000001
O	-3.153952513590909	2.1437469265977276	1.1348185306999998
O	-3.6440037135909087	-3.4249119734022724	0.4498494206999999
O	-3.822166223590909	-0.12499759630227263	-0.2318022453000002
O	0.34971838640909114	0.4299669375977274	-0.7752439172000002
O	0.5313186064090911	-5.562435703402272	-1.7469575793000003
O	-4.1916690935909084	-2.7508436134022727	-0.5818013673000002
O	-1.4389334965909089	-1.6959416634022726	0.7042702906999998
O	-2.977313833590909	1.3244808665977272	-1.3205953313000003
O	-5.609739143590909	-2.6801155234022724	-0.35971683830000023
O	0.1602778364090911	-2.8274252534022724	-1.9557052093000002
O	1.885655566409091	-1.4478075234022727	-1.5002850723
O	-6.229741153590909	-3.6837004434022727	0.3877277606999998
O	2.465084916409091	-3.7426206534022723	-1.5827987913000001
O	1.683966856409091	-4.7851712634022725	0.08311548069999974
O	-3.627781243590909	-1.9191051634022727	-1.4573681253000002
O	-1.530228173590909	0.5800644455977274	0.5772553606999997
O	-4.473910413590909	-1.1332493194022726	-2.2476654693
O	-5.859291663590909	-1.3237518234022727	-2.2757134093
O	-6.4516801535909085	-2.0352569334022728	-1.2365161453000002
O	-2.087193914590909	-0.5065131064022725	-2.3035767193000005
O	-2.831939013590909	0.1448737245977274	-1.1703955103
O	-3.822728533590909	0.6939257325977274	1.8608122706999999
O	-2.003499607590909	-0.4872534064022726	0.8951374906999998
O	-0.14080234359090893	-1.5861897834022725	0.16766132069999984
O	-0.017176393590908834	-0.7558352194022726	-0.8636733193000002
O	0.6247769364090909	-1.0783008014022726	1.2081071807
O	0.7464507464090913	-1.5235181634022728	-1.8122088293000003
O	0.1068096264090912	-3.4589094634022723	-0.7025624493600002
O	-0.7044527465909088	-4.659725273402272	-0.6757323397000002
O	0.5948740864090913	-4.0009874434022725	-2.6294545793
O	1.517191066409091	-3.7427451934022726	-0.5545932093000002
O	3.6519986264090916	-4.482969043402273	-1.7364424493000001
O	3.802144026409091	-5.595792793402272	-2.7140389493000003
O	4.753520096409091	-3.5747345634022727	-2.1078702993
O	3.754413546409091	-5.211536953402272	-0.4338664623000002
O	-3.448287213590909	-0.36989494540227263	1.0360742406999999
O	-4.505916023590909	3.2554326865977274	0.7751875006999998
O	-0.04919935359090877	-1.9690398234022726	2.2314649407
O	-0.15972872359090884	-3.2856747134022726	2.1883952706999996
O	-1.192492057590909	-3.9605106434022725	2.6801032006999996
O	-1.878472613590909	-3.3111537634022725	3.6483679306999997
O	-2.143116341590909	-2.0257856634022726	3.4903893706999995
O	-1.042154008590909	-1.3816240334022725	2.9395334206999997
O	4.232555236409091	-0.14639694970227263	-11.991041599299999
O	5.136645716409091	0.7816214165977274	-8.4286363493
O	5.7963882764090915	4.342185066597727	-7.3298600792999995
O	3.750745486409091	4.450676596597727	-4.2023806693
O	3.6203223264090907	7.565110136597728	-2.0233944993
O	-1.0889959915909089	5.464830816597727	-2.7108547993000003
O	-4.855652383590909	6.970338936597727	-6.5484066293000005
O	-3.330112323590909	5.212394926597727	-9.4262379593
O	-4.750072963590909	1.6803848665977275	-9.803230919299999
O	-12.48056559359091	2.0148996665977275	-3.2700341493000002
O	-9.385058203590908	-2.2020576534022727	0.9775847806999998
O	-8.254898483590908	-4.536629273402273	3.6988929307
O	-8.10906714359091	-6.273937303402272	-8.5829409093
O	-5.023898703590909	-4.629945013402272	-7.430095209300001
O	-2.2209992385909088	-6.582810473402272	-6.170762119300001
O	-0.035097593590908804	-4.575972063402273	-8.6209518393
O	0.06988393640909107	-1.6747102634022726	-10.769378099299999
O	0.5276440764090911	1.4231243565977274	-8.7293805193
O	1.245175696409091	4.981368266597728	-9.4762775193
O	-0.22237146359090887	6.955761756597727	-6.6858638493
O	2.852143296409091	8.489659626597726	10.4657521007
O	2.7329316364090914	8.205508666597726	6.6304094307
O	5.878437626409091	7.927709576597727	4.5937565107000005
O	5.060098976409091	5.097058776597727	2.2456261207
O	7.398433886409092	4.076447786597727	-0.6142501771000002
O	5.467229256409091	-0.3324120294022726	1.7911559006999997
O	7.6790337364090915	-2.9487100634022725	6.0681345907
O	6.580180196409091	-0.4654875084022726	8.7851143507
O	-0.3725833135909089	-11.973118783402274	8.2171067107
O	-0.00939058359090894	-9.145154113402274	5.9239862607
O	-3.389125443590909	-6.529812543402272	-0.3499790433000002
O	-6.348199623590909	-5.569267813402273	-2.3821839393
O	-9.15554992359091	-6.663272743402272	-0.2180041483000002
O	-7.262396093590909	-9.276227133402273	1.6419500006999996
O	-5.220119713590909	-9.818889883402273	4.8065218207000004
O	-5.029863573590909	-8.888853433402273	8.4882425607
O	-4.333266493590909	-0.6434850994022726	11.054298300700001
O	-5.987666983590909	2.7183806065977274	10.671180100700001
O	-2.632429162590909	4.5348860765977275	10.1242001007
O	3.092080466409091	3.5900245965977273	8.1618434007
O	6.704690596409091	4.059294416597727	7.6009742707
O	7.791497456409091	1.5214232665977274	4.9515719507
O	11.03420670640909	1.3458857965977273	3.0646858406999997
O	12.847056406409092	-0.5318258604022726	5.801156990699999
