45

O	23.160475824501805	-2.6879864880757145	16.115595325344458
O	22.71605551964978	-1.3884268879588417	16.48716260812791
O	21.777963271698994	-5.449408308357565	17.04788285549251
O	22.123667690536802	-3.570551906715961	16.513775523323513
O	21.179617506405158	-5.568972877260706	14.909289801448462
O	19.67033832525474	-1.3283262589037137	15.546736347322302
O	21.851290708905264	-4.877025270257512	15.998518475951496
O	21.71966900939077	-3.103396409343933	15.156816417502656
O	20.62035672605232	-1.2621127521909847	20.391364652646033
O	21.318803363597024	-6.9738642886842	14.913544504562738
O	21.835982538241105	-0.7131010260859016	18.990250281313294
O	23.928790953462414	0.7929107253537435	20.24993814324495
O	21.67797774980657	-7.447472972248695	16.375059847665536
O	22.521198916113015	-3.5349939409762845	20.69019198865415
O	20.241164056584896	-7.976411380832015	14.74058822395307
O	22.399755092739262	-7.802536765486874	14.300360996427182
O	21.599494544486486	-1.7927380467568177	14.69528199652493
O	21.784505345598458	-0.8712083728628142	15.819128522620417
O	20.424383963950294	-3.443673759310536	14.954963854212908
O	20.273820367531126	-2.487637330875054	16.10042060589802
O	20.666174033643273	-2.835596685284268	17.411690300931372
O	20.178003298774968	-2.020198283066547	18.337360873893413
O	19.080468142260102	-1.51094597734704	17.62040965892892
O	18.60249720552077	-2.853025076723959	17.321671351488924
O	17.622314343328885	-2.8655604915154247	16.522138466024117
O	17.345344836414032	-3.8656988779203587	15.664052973885966
O	18.064884447007586	-5.0041602336408975	15.678481342460929
O	18.65364592458469	-5.153937755525957	16.899700144353492
O	18.964287217992133	-4.085475525920015	17.74166823999871
O	20.63935388742875	-1.0798561264698185	19.20940340823332
O	22.507482513872088	0.44560882821562786	18.780909339047625
O	22.70095701259316	0.2940560015580871	20.210563439385606
O	21.690952969931796	1.020368609964353	20.852245196754733
O	20.876619893920555	1.3029348980397482	19.630579989167682
O	19.8592386183072	2.2140049580616887	19.666841106293624
O	18.856086831561157	1.510638299183664	18.942135805770338
O	19.204908023442584	1.275465077346473	17.65489352887972
O	20.516590686210595	1.204368793453735	17.393852920263075
O	21.40335043963903	1.2584102330123523	18.41435838949583
O	23.379798696993905	-1.7299832511097093	17.55375754092497
O	23.48253126638129	-2.5856951903066965	18.685719849839092
O	22.883591013431502	-3.6078433780325474	19.367367699566444
O	23.24921582277016	-2.776966005695676	21.545807964308928
O	24.46761055418306	-2.3932890992217937	20.988067076465484
O	24.476775469991207	-2.16249863739146	19.598152786770722
