85

O	3.8334301358367346	-0.5792258434897959	0.2737819844693884
O	3.684453895836734	0.196153852510204	-0.8873072345306116
O	2.4149859858367346	0.678789207510204	-1.0165790515306115
O	1.4365519858367348	0.08994552851020399	-0.2742767558306116
O	1.7378431658367346	-1.2501228054897962	-0.0779714655306116
O	2.9076044458367347	-1.4680059254897961	0.5787969074693884
O	-0.09245091416326523	0.570803197510204	-0.9293011115306116
O	-0.2722829741632653	-0.37980373048979604	-2.0151516835306116
O	-0.2656640041632654	1.924715354510204	-1.3568234035306117
O	-0.9427181461632653	0.522894649510204	0.5257414524693884
O	-0.3128364661632653	1.370151183510204	1.4750772464693884
O	0.6153455758367348	0.310337135210204	1.9346678464693885
O	0.8010406458367345	-0.466977989489796	3.0444514464693886
O	1.7212486058367344	0.6298444205102041	2.7398014364693886
O	-0.5196530341632654	-0.845243245489796	0.9248526964693884
O	-0.8152215221632653	-1.743440465489796	-0.1772121494306116
O	4.139749115836734	-1.710429585489796	2.6265879364693885
O	-0.6275288871632654	-2.994992985489796	0.2640086894693884
O	-2.2568667871632653	-1.5806366954897961	-0.2775273127306116
O	3.1204571758367345	-2.092265085489796	1.7711191264693884
O	-2.8745726241632656	-2.048917605489796	0.8894852164693885
O	-2.1512143371632653	-1.7802203754897958	2.0659547264693883
O	-1.4675847971632654	-2.6675698754897956	2.4783458464693884
O	-2.3429815441632655	-0.749711255489796	3.1290544564693885
O	-3.3545453441632658	0.0076414045102040085	2.3601314764693884
O	-4.430370584163265	-1.059806405489796	2.1918495964693885
O	-5.413135454163266	-0.5144403514897959	1.7557498464693884
O	-4.615316304163265	-2.212603875489796	2.9623908964693886
O	-6.001820544163266	-2.4973885054897957	3.3903310664693884
O	-2.5080959241632654	-0.12874810548979604	-0.3582277755306116
O	-4.506120094163266	-0.7491242954897961	-1.1877642845306116
O	-5.838311004163265	-0.557811182489796	-1.3784082335306116
O	-6.417262624163266	0.567609513510204	-0.9043218315306116
O	-5.600080494163265	1.576925984510204	-0.4949117155306116
O	-4.245586444163266	1.456263564510204	-0.40717903553061163
O	-3.7595564041632654	0.258481764510204	-0.7061036905306116
O	6.595852815836734	-3.6222763454897957	-11.17775522353061
O	6.125524785836735	-0.661480415489796	-8.852870753530611
O	4.230973835836735	2.501306674510204	-9.712723483530612
O	1.9981922458367347	2.995106804510204	-6.778532993530611
O	-0.26576817416326537	6.057651644510203	-6.551941803530612
O	-2.613821994163265	1.6227344445102039	-4.984465943530612
O	-5.678860124163266	-1.6170511054897962	-8.253062313530611
O	-3.0141605041632653	-3.3305017254897957	-10.134470383530612
O	-1.9362374751632654	-6.560482675489796	-8.427231923530611
O	-9.340276404163264	-7.2759674754897965	-1.6816771335306115
O	-5.3731891141632655	-5.820247895489796	3.3730180964693885
O	-3.552318694163265	-5.356044755489796	6.690041746469388
O	-5.510849144163266	-6.9651048554897965	9.411106716469389
O	-7.310248264163265	-11.406638045489796	1.0541667564693884
O	-0.15839981416326543	-12.703425845489797	-2.7231090735306114
O	1.1168588358367348	-9.189206055489796	-3.1022484335306117
O	4.410341235836735	-8.336278315489796	-1.6413519135306116
O	5.5237890058367345	-6.919283275489796	-5.017441263530612
O	4.077491775836735	-6.381485195489796	-8.472365593530611
O	2.2012855658367343	-3.0897944354897957	-8.278406433530611
O	0.6958932058367346	-0.862527155489796	-10.904407623530611
O	-2.1702169091632655	0.995179753510204	-9.285585453530611
O	-4.303686334163265	3.926412084510204	-10.457778623530611
O	-1.6684285421632654	4.648619664510203	-14.049848923530611
O	-3.3060007241632654	12.561587854510204	3.7143223964693886
O	-2.664150494163265	10.365249494510204	0.6154341694693884
O	0.3494169958367346	11.046127554510203	-1.5706784935306115
O	1.6790996258367346	7.523718164510203	-2.010597753530612
O	4.583239135836735	6.7347209645102035	-4.337401303530612
O	4.7890761258367345	3.999384924510204	0.2963902264693884
O	7.713667595836735	5.523295564510204	4.646805426469388
O	5.092653175836735	7.945585094510204	5.971998596469389
O	2.460953085836735	6.499614534510203	8.25951114646939
O	5.326421215836734	-2.5162961854897956	8.924507696469389
O	1.5912277158367345	-5.6742852754897966	3.1651587564693884
O	-0.9512415261632654	-7.679958575489795	1.5031676064693884
O	-2.4920427941632655	-9.326626125489796	4.552820696469388
O	0.32453948583673475	-8.826658035489796	6.945141236469388
O	1.7969815958367346	-6.271166345489796	9.316202596469388
O	0.9575666758367347	-3.772597135489796	12.000982276469388
O	2.8991331758367345	-2.350688545489796	14.89404917646939
O	-3.5790529941632654	2.079696524510204	13.541490076469389
O	-3.7915360841632655	2.9967171745102044	9.97105177646939
O	-7.0910141741632655	4.012631824510204	8.382199366469388
O	-5.402828654163265	6.598836294510204	6.1566837664693885
O	-2.6669563441632653	9.157842904510204	6.6296986564693885
O	0.028647795836734602	8.184431904510204	4.087302916469389
O	2.7381585358367344	10.397673964510204	2.764097146469388
O	5.5343000358367345	8.141945984510205	1.5386038164693885
