40

O	20.099582679145247	1.8065941234442542	18.921282415016712
O	21.39922510882374	1.7710452878103367	19.70684399603228
O	22.237644960516736	2.752113483856089	20.261065655370665
O	21.3615624442242	3.868906922448889	20.665825781695442
O	20.079848146509008	3.8918288858097965	20.05505523878957
O	20.20772473973752	3.2505333640214387	18.71175379350589
O	20.265596880395844	-0.1376497442451119	17.818818721304904
O	20.76296038609944	-0.22995488172250345	19.054828614030107
O	21.95960434590161	0.7405598519885179	18.924201662234044
O	20.007759456226474	1.2378356088475757	17.563380284869936
O	20.199825607615956	0.06382085574004126	20.312747512978675
O	19.91980970508356	1.0740877552143304	21.29039630428527
O	20.370367708709377	1.4113436166280244	22.561184528255197
O	20.400777374301466	2.7743069843180495	23.210229332273038
O	19.69487735007586	0.7328983700899223	23.769178296201275
O	21.789447580791208	0.9805603137788881	22.918789958987883
O	20.14508766410033	-0.95774879268217	20.95918534240447
O	21.264554765248064	-0.32517803449265115	16.913102851868736
O	21.066046051898606	-1.5890234163780472	16.26523690927729
O	21.31105192304916	-2.3390754969601675	17.497440254510867
O	22.22529215444166	-1.8344203206220466	15.58541276036253
O	22.54485149775413	-1.9990197268084633	18.058748800189797
O	21.487320650887597	-3.692826894336055	16.793146106523835
O	22.654065696574328	-2.50519436230607	19.365684727223776
O	21.68917488986481	-3.1517432799968788	19.75035498143299
O	23.19080201144449	-1.7269744395030764	20.499183427253918
O	22.956959079566218	-2.0130140088522115	21.816357817145985
O	23.84375401239726	-1.5615326059179309	22.7350660774127
O	24.753427983954538	-0.5713065229320402	22.481765232195755
O	24.762720231913125	-0.13969198651028303	21.155094005315295
O	24.16519986371107	-0.8654296732997075	20.166348326168972
O	24.882339038918097	1.1934749084438605	20.891367938698725
O	24.82468694842548	-0.998391190183964	18.886382020614697
O	19.793252189467818	-3.8595738247155094	16.18212532200914
O	18.87667376957332	-3.08122762601527	17.48892898434099
O	19.096939911298605	-3.7337165821576344	18.665785056691043
O	18.54632773693935	-3.475554526000744	19.879549514797972
O	17.62462594306351	-2.4866128337113436	19.94441928649623
O	17.70928111840849	-1.5722188010254552	18.93471873689978
O	18.140776505825084	-1.998433964949173	17.694201500074684
