50

O	23.84822545959994	-0.35255121377538745	20.224375982337772
O	23.629208316207826	-0.8376957391973621	22.52044267494187
O	23.412320596383175	-2.408023450236411	18.01267175853956
O	18.814484650871503	1.7241354271275877	16.30219302222447
O	24.97049942722362	-1.072238043715055	20.263221358613638
O	20.944788172250938	-1.8212900908933334	15.904005612960791
O	22.93248808575337	-0.08793320946350547	16.224064577571966
O	24.491712397770552	-1.8481481799188983	22.394382926396894
O	21.459425418122155	-3.173851300539771	18.25468316289547
O	20.144813057121976	0.019966294956926145	20.79516349761373
O	25.372667645687052	-1.7839669609932556	21.355396549063123
O	20.564993115953083	-0.5182160145649305	18.838837062966356
O	21.919659634186036	1.8025796700989754	20.59964482741169
O	23.439572123954505	-0.034846542788472545	21.484232513862757
O	21.177610145057525	0.7536055808943651	18.767494256090004
O	18.183063781011963	3.0661433447739634	16.23330097341219
O	22.15183564521288	-1.9680892377675105	16.34244972741878
O	17.831936320300464	0.8903585260076443	15.656345601194582
O	20.686045512599915	-2.3618570000431593	14.672059122006722
O	23.469309174923698	0.08979868014842418	18.942930943918043
O	21.09002888384489	-0.550927819287404	15.482258953403306
O	22.710925825977338	-2.9738592462886526	15.546684601530378
O	22.28401632474856	-2.1993318639268944	17.69387190590703
O	20.710315652928728	-3.6741707909238723	15.402830120116278
O	21.723839736805502	-0.048037442196777635	16.66375542989191
O	21.79972836255349	-3.8645381411722743	16.27770455995411
O	20.916809279749163	-4.493237678923491	14.174350248969374
O	20.89970764851065	-0.5458302489325775	17.656744982313192
O	22.600323860317207	-4.878005227543918	16.947696666539663
O	21.664235471883202	-3.1222283440523118	19.623800561030734
O	21.277935250062598	-5.81921052716943	14.742100625588323
O	19.714902055405087	-0.7863053293237426	16.795206690721926
O	21.532454809428085	-5.7800385531881195	16.13792676584625
O	21.08974997240207	-4.479105128102214	19.748904756217804
O	21.338517410840595	-2.458432458146529	20.79298479523919
O	23.099822491981335	-3.487733664262864	19.785436859095135
O	19.664029130855155	0.17664218403238496	19.621809511218245
O	18.967289145769858	-1.6606696988831824	17.438257729050406
O	19.941436184631293	1.5236974907098924	19.11242393437681
O	18.610952765711655	-2.799753645633748	16.86451115657248
O	18.829943618541847	-1.7108730409016442	18.69467890783054
O	19.294876411681095	1.6470157522756812	17.840558202605326
O	18.670697356430104	-4.021368458566862	17.438402523092194
O	18.42751208992045	-2.7428826754575457	19.39810481064691
O	22.00504160796564	0.7358372213518378	19.87818493791415
O	17.96145900823347	1.4423751634245237	18.414750292820678
O	20.1434361139308	2.8559317724815267	17.962233950851505
O	18.493901258194725	-3.9206480382613194	18.76014694160869
O	22.96253392990259	1.3220112667660888	18.775112016928514
O	20.121033036610896	2.093718025179985	15.218810815508306
