97

O	-0.14310475493877506	-0.45507542630612186	-0.9233103465
O	0.8776983030612249	0.584273121693878	-2.7870029765
O	-0.517377738938775	-1.8158095463061221	-0.9513946831
O	0.8377324230612249	-0.251991866306122	-1.8490461305
O	0.49964527306122486	1.731474000693878	-0.09529621649999998
O	1.7320071230612248	-1.116269066306122	-1.6337424465
O	-0.13543934593877505	1.239134982693878	-3.2916949665
O	0.04136190306122489	1.434380190693878	1.0934707934999999
O	-0.520641182938775	3.3305665736938783	1.7884839234999999
O	0.45834474306122486	0.742629750693878	-4.5173014264999996
O	-2.1069764469387753	1.524726072593878	3.9130207235
O	-1.965550992938775	-0.31716557630612185	4.975620753499999
O	1.8972723230612247	0.6190163616938781	-4.8807764764999995
O	-1.595744404938775	2.806700813693878	-1.9843978765
O	-3.6989035769387755	-0.411041196306122	3.9149439735
O	-1.134630217138775	2.8511344036938784	-4.2113519864999995
O	0.05672235306122486	-0.5136652863061217	0.5165166035000001
O	1.4167315030612249	-0.16149861630612183	0.5045336134999999
O	1.708235863061225	1.0446167126938781	-0.26065311150000003
O	1.0103816130612249	2.9619974336938784	0.33945138350000004
O	1.2278474130612251	3.281559313693878	-0.984274663
O	-0.6675183119387751	2.055886218693878	1.9083310934999997
O	-0.965244550838775	1.6969589926938782	3.1884400135
O	0.17361883306122494	0.7893983776938781	3.4713423435
O	0.06823313306122492	1.1831762536938781	4.9159323834999995
O	1.321099153061225	1.532531274893878	2.9827999835
O	-0.04521653693877514	-0.5224899663061218	3.3409780834999996
O	-2.343562786938775	0.10944611369387802	3.7988154935000003
O	-3.341225786938775	-1.7595047563061221	3.3943636835
O	2.294011193061225	2.798328733693878	-1.6511958545
O	2.626980383061225	3.133330223693878	-2.9618774365
O	1.787791263061225	3.8699718936938776	-3.6992093165
O	1.034856483061225	4.562307773693878	-2.8306225065
O	0.911100483061225	4.422871833693878	-1.4506522634999999
O	-1.165212589938775	0.11960282369387798	-1.6451932435
O	-1.820287425938775	-0.006967546306121841	-0.43918142450000003
O	-1.923704616938775	-0.9080008263061219	0.5833374635
O	-2.709213226938775	-0.18016491630612186	1.2708301435
O	-3.6174258069387752	0.643766007693878	0.8776672035
O	-3.4511960069387753	0.8638580116938781	-0.4376404795
O	-2.7687661369387753	0.016000913693878127	-1.2254225655
O	-3.9092043269387746	1.7423002406938781	1.5839327535
O	-3.362565146938775	2.932064833693878	1.2733195535
O	-1.0253870361387751	2.273842276693878	-3.0745458665000003
O	0.245764793061225	1.6835510466938781	-5.5867346965
O	-3.137345096938775	3.0685344436938777	0.01436809750000001
O	-2.0763009269387753	3.1376810136938778	-0.7557917975
O	1.942878093061225	4.493181613693878	-5.4728974565
O	-4.609535546938775	-9.053655696306121	-8.2594373765
O	-1.389260245938775	-7.941419376306122	-6.5460823065
O	0.3871213630612249	-9.845126296306121	-3.7809030065
O	1.071934573061225	-7.170795546306122	-1.2970513225
O	2.8703461930612253	-7.819839416306122	2.0000543035
O	-1.295902769938775	-4.920195776306122	2.8127645035
O	-6.4442201269387756	-6.427995156306122	4.0652578035
O	-7.530929986938776	-7.694759826306122	0.7929617635
O	-9.350928596938774	-4.997572716306122	-1.2156754955
O	-10.714074446938774	1.941415293693878	5.9838060335
O	-5.977150536938775	6.060298943693878	3.3746516135
O	-3.5829449669387747	8.790562383693878	2.2587804234999997
O	-12.323152386938775	5.973705813693878	2.7278999035
O	-12.081630286938774	2.583138873693878	-4.5895064265
O	-8.771683816938776	0.8567853686938781	-4.4903826965
O	-6.327686566938775	1.746971504693878	-7.0680938865
O	-6.017715466938776	-2.0928067063061215	-7.8989915565
O	-7.006099006938776	-5.404036016306121	-6.6268326165
O	-4.779520386938775	-6.398768106306122	-3.8051153765000003
O	-4.275030346938775	-9.522048396306122	-1.8366340575
O	-3.134572656938775	-8.371264716306122	1.5517043834999997
O	-1.818716385938775	-10.435577196306122	4.5494010135
O	-5.229330116938775	-13.982395796306122	2.8128277035
O	-1.477335375938775	-14.170429896306121	2.1045454434999997
O	10.942083113061226	-0.416930316306122	8.2912060835
O	8.210026133061225	-2.5459891563061214	6.5564375035
O	9.122473713061225	-5.016469306306122	3.8558670834999997
O	6.408283633061225	-4.1853926763061216	1.3327528634999997
O	6.139405693061224	-6.3998542763061215	-1.8536880595
O	5.695167553061225	-1.221715766306122	-2.5208174765
O	9.755056313061226	2.459767970693878	-4.3317184965
O	11.105886313061225	2.9340931836938777	-0.884711603
O	9.665261413061225	5.802933373693878	1.1058484735
O	3.9218410730612243	13.674091903693878	-5.4995903365
O	3.153505473061225	10.138387753693879	-4.6420930264999996
O	-3.234426146938775	5.635949903693878	-2.9383445665
O	-6.583887226938775	4.920301843693878	-1.8613793035000001
O	-7.339183846938775	8.290123423693878	-0.45247985150000003
O	-5.036316326938775	10.290428143693878	-2.5009194665
O	-1.529996186938775	11.779105103693878	-2.6551599365
O	1.2877622130612247	13.251178103693878	-0.6216183075
O	4.267307673061225	15.511058803693878	-1.3473794785
O	4.844647953061225	9.071248043693878	5.7352412235
O	3.917027033061225	7.404170893693879	8.9794559835
O	6.008076613061225	4.299347303693878	8.0985097035
O	9.373800713061225	3.541025823693878	6.6439811235
O	8.709639783061226	1.366705999693878	3.5885266534999998
O	11.124197513061226	-0.8859404963061219	1.8885226934999997
O	9.880377713061225	-1.401817126306122	-1.5863982475
