90

O	-4.140546810653062	-4.572345470279591	-0.20933659314081615
O	-5.228087170653062	-3.8300848302795916	0.18605019185918387
O	-3.9725958706530613	-5.937811680279591	0.03141831385918381
O	-2.774678470653061	-6.183128770279591	0.6457872248591838
O	-1.6471981556530613	-5.412812550279591	0.5662636788591839
O	-1.8081405896530613	-4.174555820279592	0.07174345685918382
O	-3.0129493106530614	-3.7890934702795915	-0.39707672634081614
O	-3.2572479606530615	-2.7121052302795916	-1.3520348561408162
O	-0.6365809236530613	-3.5310166702795915	-0.47334855314081614
O	0.5243860693469387	-3.9554793102795913	-0.4608911371408162
O	-0.6469922746530613	-2.2869330202795912	-0.9293919211408161
O	0.24148529934693874	-1.2847930022795913	-0.6025439931408162
O	0.6486237993469386	-0.4565391302795914	-1.7274668761408163
O	2.0332055793469386	-0.7072480712795914	-1.8988605661408162
O	2.7131267393469387	-1.6685076502795915	-1.278779823140816
O	4.099846459346939	-1.4411418702795915	-1.3472116261408162
O	4.5022882793469385	-1.3170928102795916	-2.680243216140816
O	3.8225814293469385	-0.4208144582795914	-3.435376356140816
O	2.504475849346939	-0.30674442797959145	-3.115348566140816
O	-1.0617108906530612	-0.6561616902795915	-0.2944208849408162
O	-0.5733622076530613	0.5461468297204086	-0.31501609194081615
O	-1.4684026616530614	-1.1165830112795914	0.9960826738591837
O	-2.6225093406530613	-1.2678005312795915	1.3840873538591838
O	-0.5001444556530613	-0.30384685139959144	1.6992284738591839
O	-0.5639902766530613	-0.47177364027959146	3.023734913859184
O	1.1578308093469385	0.04983133472040857	3.169265143859184
O	1.7107468193469386	-0.18363062027959143	1.4420493738591837
O	1.8865770693469388	1.1200256797204085	0.8937665938591837
O	3.0588868193469385	-0.7155208642795914	1.6119186538591839
O	0.7534469993469388	-1.1485975082795914	1.4334291438591837
O	0.4446088093469387	-2.3178340702795914	2.179633783859184
O	1.2174287193469389	-3.2335772602795916	2.088327423859184
O	-0.8626551996530614	-2.6334402602795914	2.571655743859184
O	-1.1239085836530613	-3.8021463702795915	3.305515343859184
O	-2.553689570653061	-3.7239413302795916	3.404739913859184
O	-3.080173550653061	-2.9119262602795914	4.419768073859183
O	-4.470152490653062	-3.0218901702795917	4.604027373859184
O	-5.081920690653061	-3.4133138202795914	3.383009293859184
O	-4.525728940653061	-4.661904720279591	3.082527673859184
O	-3.216956340653061	-4.960433760279591	3.481854903859184
O	-2.6784483406530613	-1.5153533302795914	4.592000673859183
O	-4.605972760653062	5.9343830697204085	-10.826713836140817
O	-2.5606045906530612	6.556117589720409	-7.6859116261408165
O	-3.745591740653061	8.613849419720408	-4.722123436140817
O	-2.8289593006530613	6.358047239720409	-1.8436663961408162
O	-3.4252213306530614	7.539141689720409	1.748527233859184
O	-5.125119350653062	2.5215091797204083	1.2992088638591839
O	-9.886575250653062	0.7527599597204085	-0.29973101424081616
O	-9.950775520653062	1.6692423197204085	-3.924896636140816
O	-8.67402084065306	-1.1836651762795913	-6.150595296140817
O	-8.593393620653062	-8.649334300279593	0.7405902938591837
O	-1.8345331506530613	-8.845154280279592	1.1403025138591838
O	1.8241288893469387	-9.459271230279592	1.4451952738591838
O	-6.093496560653062	-12.232292100279592	-2.221593976140816
O	-4.671477700653061	-8.163162850279592	-9.187605306140817
O	-3.3403667106530612	-4.891644900279591	-7.927408816140816
O	0.05966114934693878	-3.7242446202795914	-9.018573186140816
O	-1.5321520106530613	-0.3708224405795914	-10.089839176140817
O	-4.865872940653061	1.3852773397204086	-9.983402786140816
O	-5.273532200653062	2.9671660397204085	-6.582297296140816
O	-7.646698800653061	5.436900599720409	-5.051942466140816
O	-7.838903510653061	4.686606519720409	-1.3432348961408163
O	-9.351298320653061	6.577096119720409	1.5996485838591838
O	-12.912734870653061	5.526497719720409	0.9125830738591838
O	-10.195411300653062	10.205971299720408	-0.9902986881408162
O	3.878958959346939	5.507629359720409	11.792478563859184
O	1.4617576193469386	5.838653549720409	8.786014013859184
O	1.803715859346939	8.690470379720407	6.354090043859183
O	1.5174014793469386	6.794621699720409	3.054703383859184
O	1.3947610993469386	8.779966129720409	-0.21080806014081616
O	4.5530252293469395	4.4664656497204085	-0.6106776011408162
O	9.869153129346937	4.156584219720409	0.24476171385918383
O	9.756559629346938	4.150770109720409	4.016976133859184
O	9.555786629346938	0.7714874897204086	5.6736808338591835
O	9.807644929346939	-5.1428273702795915	-1.8401083461408163
O	2.4281339093469385	-5.691867870279591	-3.572446336140816
O	-0.7407603586530613	-7.392826010279591	-4.078028816140816
O	0.061839899346938676	-10.795125300279592	-2.696167876140816
O	3.7247560893469385	-10.670717900279591	-3.286478616140816
O	7.023768049346938	-9.565235310279592	-1.7754241861408162
O	8.979646029346938	-9.496599790279593	1.4358433038591838
O	12.692110929346939	-9.308665690279591	2.125425533859184
O	8.618454059346938	-7.879304110279591	8.813185763859183
O	6.079925979346939	-5.262380010279591	8.279255513859184
O	3.0845711393469384	-4.9616543302795915	10.600080663859183
O	3.1457372393469387	-1.1231176902795914	10.386033563859183
O	5.781474059346939	1.6370924897204087	10.310274263859183
O	5.367708519346939	3.4439221197204084	6.936508153859184
O	6.451988639346938	6.849094389720409	5.986722203859183
O	6.770803599346939	6.992589589720409	2.237885183859184
