91

O	0.4978040191137259	-0.15517266844313693	4.113828377727451
O	-0.8496666488862741	-0.9083525394431369	4.045591837727451
O	-1.3341127228862741	-1.762979776443137	5.077118127727451
O	-0.8379213898862741	-1.094123760443137	6.277934087727451
O	0.1573997631137259	-0.12899029244313692	6.425949017727451
O	0.2172905991137259	0.7013246635568631	5.192530307727451
O	1.347157857113726	-0.32804392214313693	2.1801684377274513
O	0.806169517113726	-1.509167816443137	2.5809801877274507
O	-0.6731152078862741	-1.1518078364431368	2.702004617727451
O	0.649973077113726	0.7105788435568632	2.852595897727451
O	1.099372107113726	-2.134441656443137	3.840328687727451
O	1.801360577113726	-2.3332815064431367	5.082332417727451
O	1.4622641871137259	-3.307872376443137	6.092191957727451
O	0.9724748871137259	-3.172328366443137	7.501603397727451
O	0.3617784761137259	-4.277905976443137	5.591018637727451
O	2.413115067113726	-4.498837806443136	6.332205697727451
O	0.5361500751137258	-3.224963046443137	3.755660597727451
O	1.313369427113726	0.09912261655686305	0.8419695427274511
O	-0.08546126688627409	-0.20448841644313692	0.6138121033274511
O	0.4653742281137259	-1.5299861764431368	0.25437445672745107
O	-0.4512162676762741	0.2085918795568631	-0.6228723522725489
O	-0.7930709188862741	-2.165969426443137	0.3084294237274511
O	0.9775835671137258	-1.510006056443137	-1.121522212272549
O	-0.6303775398862741	-3.465797356443137	0.7407695547274511
O	0.3641323441137259	-3.888222396443137	0.19455804372745106
O	-1.204534229886274	-4.238504926443136	1.772613707727451
O	-0.7017001398862741	-5.516097576443137	2.0626113477274512
O	-1.003807225886274	-6.094731096443137	3.246608327727451
O	-2.179890232886274	-5.807919976443136	3.878778767727451
O	-2.720088992886274	-4.577482476443137	3.514009807727451
O	-2.245080802886274	-3.799974706443137	2.498077267727451
O	-3.420090062886274	-3.908866116443137	4.467047377727451
O	-3.1966259728862743	-3.061199646443137	1.690689377727451
O	2.681209407113726	-0.9712563884431369	-0.884950152272549
O	3.2435974671137258	-1.829753456443137	0.5251798783974511
O	2.8886020771137257	-3.127400186443137	0.6696839207274511
O	2.982685397113726	-3.919875586443137	1.784504917727451
O	3.8202449971137256	-3.490277976443137	2.768683297727451
O	4.019799757113726	-2.150291446443137	2.790723757727451
O	3.9627699871137256	-1.485291056443137	1.6112243377274509
O	-9.642785612886273	2.532530833556863	-7.9577730322725495
O	-6.6129741828862745	4.207511053556862	-6.414774482272549
O	-6.865495082886274	6.8259429135568634	-3.661933512272549
O	-4.2810652528862745	5.613125683556863	-1.264978522272549
O	-3.4141605028862743	7.633894593556864	1.832043987727451
O	-3.7779295028862743	2.471541643556863	2.985128097727451
O	-8.077856412886275	-0.2419246434431369	4.553309227727451
O	-9.988731582886274	-0.3766538718431369	1.3840973657274511
O	-9.401528052886274	-3.503575696443137	-0.7266461322725489
O	-4.689057252886274	-8.901653046443137	6.153123107727451
O	1.4743411671137259	-8.068345886443137	3.2079422977274508
O	4.951197567113726	-8.186894186443137	1.9083345677274512
O	6.745913837113726	-11.040947446443136	3.289553157727451
O	-2.782531902886274	-12.744976046443137	3.066402897727451
O	-6.4037506428862745	-13.944427046443137	3.170935537727451
O	-5.630992192886274	-10.410716046443136	-4.262833712272549
O	-4.752422472886274	-6.810806786443138	-4.368083372272549
O	-2.4214101228862743	-5.349008266443137	-6.959741782272549
O	-5.040357402886274	-2.719717646443137	-7.6930268122725485
O	-8.396753172886275	-1.581047556443137	-6.316756052272549
O	-7.585267082886274	0.751907723556863	-3.458838262272549
O	-9.573303302886274	3.197440983556863	-1.4331705922725488
O	-7.916469862886274	3.5043961935568633	1.9656476777274512
O	-8.404549272886275	5.967131693556864	4.800083487727451
O	-11.530864412886274	4.283313003556863	6.191831727727451
O	-13.436625612886274	5.605537773556863	3.236547597727451
O	-11.187670512886275	8.581957453556864	2.334163727727451
O	8.042074087113726	9.160021353556864	6.867909847727451
O	4.489497337113726	8.364064233556864	5.583453597727451
O	2.956625797113726	10.484306253556863	2.862250847727451
O	1.597505367113726	7.677617153556863	0.655077372727451
O	-0.3872355916862741	8.621160533556864	-2.465300802272549
O	3.049297027113726	4.519845933556864	-3.341268752272549
O	7.898232667113726	5.335621433556863	-5.556458972272549
O	9.668746687113726	6.492092953556863	-2.389534932272549
O	11.061250287113726	3.675804913556863	-0.31788157627254887
O	9.013629767113725	-3.767381696443137	-5.692221322272549
O	2.362830367113726	-5.316311056443137	-3.214898822272549
O	-0.15295869688627411	-7.694478176443138	-1.786246672272549
O	1.8778748171137258	-10.574584146443136	-0.505178052272549
O	4.628458277113726	-10.139634796443136	-2.8688323422725492
O	7.902579527113726	-8.373235416443137	-3.4787005322725486
O	11.082148787113725	-7.268936016443137	-1.8234249822725492
O	14.476465187113726	-6.451785096443137	-3.232689782272549
O	11.021029787113726	-1.7756812464431369	4.571507487727451
O	9.593962687113725	-1.189311665443137	7.997700187727451
O	8.554667127113726	2.421802983556863	7.146878777727451
O	9.870200387113726	5.335434853556864	5.273321907727451
O	7.322745267113726	5.8612103835568625	2.460049757727451
O	7.118283747113726	9.082372753556864	0.5193951946274511
O	5.595188137113726	8.224446203556864	-2.825495632272549
