40

O	21.301669943311435	-6.86383168922748	14.479903980603737
O	21.486689271224325	-5.934076576346604	15.514655272953538
O	21.957688891731035	-4.828412457443441	14.869338364384571
O	21.41148417768838	-4.1875381144099775	13.809168080527165
O	21.025741073975148	-2.9022601393188348	14.054317555495128
O	21.692516765997343	-2.197138467566324	14.977548416446174
O	22.916994140756152	-2.663271749926022	15.269634725668407
O	22.993269555114235	-4.027452273873779	15.343291267371999
O	20.914502712197105	-0.7232135618549965	15.377195465896428
O	20.25622635091919	0.10939555969433812	14.436705352790433
O	22.03846436063717	0.04793642445104118	15.806830980815858
O	19.480252321182586	-1.274655526971928	16.107739053430514
O	19.186211823364626	-2.466353183361095	15.310256374315372
O	19.243452595116818	-3.785996976742118	16.14780027447612
O	17.963488583191058	-3.447775907142605	16.906511642837764
O	18.556222120974383	-4.6168449162815595	15.060119591457225
O	19.817466671677032	-2.2566299896353614	17.025419067862696
O	21.09498898291786	-2.781814037151052	17.202499233329434
O	18.380786272669063	-6.012140171417565	15.284967003785777
O	21.299939553011846	-3.8880363838136027	17.752750559853997
O	21.9798928562098	-1.8323443968770072	17.706814095328244
O	22.595708174751927	-1.7413177865619005	18.922440634401696
O	23.10661221015733	-0.43412462781142336	19.25184966322198
O	24.10411156402434	-0.15761890457261662	18.5880045437443
O	22.172341059607888	0.556964900452908	19.24913358746118
O	22.058227673900934	1.7884569903619374	18.6467887509702
O	20.815921360704596	2.02376019188841	17.89254736128356
O	19.881751039510142	1.683201868592938	18.804555183237603
O	20.34307268705867	1.8055419974041644	19.98923873038863
O	20.36771922697263	0.8185398725901343	20.902451424227742
O	21.593953239900838	0.536982037810966	21.393580399299314
O	22.341671903345976	1.7793531473822637	21.030128439777137
O	21.636362229782836	2.5041507890511454	19.97422376608637
O	20.822396111266052	-0.8307090109185225	17.86285263335239
O	18.714745290887244	-1.0023600036811018	19.067389468839117
O	17.881450529080734	-1.8205051734737605	19.708848088684547
O	18.298425412766154	-3.0612623467545483	20.064613312410224
O	19.632931413140156	-3.140638722866774	20.29590970212859
O	20.513269687100152	-2.202080712782923	19.76656410641553
O	20.00421125718469	-1.3355924755967796	18.895030776741557
