85

O	3.205656988387755	-1.4034031979244899	-1.1647880601428569
O	3.694877818387755	-1.34097362792449	0.1991930228571432
O	2.503555928387755	-1.29919089792449	0.8529336058571432
O	1.3371115083877552	-0.6786107779244899	0.5341366058571432
O	1.1375857583877553	-0.4614776079244898	-0.7215727111428568
O	1.9666331683877551	-0.9472107579244897	-1.6547421701428568
O	1.065322228387755	-0.20769492792448996	1.8225482598571432
O	-0.17976720061224483	0.3783595120755101	-1.2682495101428568
O	-0.4393917056122449	1.81532128207551	-0.3058807581428568
O	0.11975126238775513	0.8453216010755101	-2.580498920142857
O	-1.4164223426122449	-0.32113877792448986	-1.1562306601428567
O	0.920840358387755	2.15670346307551	-0.5169100181428568
O	-0.5729552016122449	1.0279914810755102	0.7803927338571433
O	0.23457859638775513	0.7695989020755102	1.9717960498571432
O	-0.8491742056122449	0.18468829207551019	2.779544169857143
O	1.622043608387755	2.08188931107551	0.7625938938571432
O	1.1478626783877552	3.18018765207551	1.5736110198571431
O	2.842593718387755	1.8334945390755102	0.4176487818571432
O	0.5040396283877552	2.7585793120755104	2.613284329857143
O	-0.09375989661224482	3.66643239207551	0.7778477378571432
O	-1.105188338612245	4.06582895207551	1.767672689857143
O	-1.055063018612245	5.41588627207551	1.6316114398571433
O	-2.029171071612245	6.23176783207551	2.136245249857143
O	-3.024636461612245	5.66238954207551	2.858463479857143
O	-3.1598161416122448	4.32386736207551	2.753503099857143
O	-2.366324921612245	3.6429104920755098	1.8870874298571432
O	-0.1306631846122449	3.2129537020755103	3.666556679857143
O	-0.7987611704122448	4.0158200920755105	4.5499404998571435
O	0.549233208387755	2.51206607207551	4.496560269857143
O	-0.6393053886122448	5.28005581207551	4.805808029857143
O	0.4672662883877551	6.20448328207551	4.3033694498571435
O	-0.11685682161224487	5.19772058207551	6.298324259857144
O	-2.1008890516122447	0.8680716350755101	2.322082689857143
O	-0.9352943656122449	-1.11373784792449	1.9850282198571432
O	-1.567894723612245	6.38749425207551	5.350161259857144
O	4.790762508387755	-2.0340203079244903	0.6780941788571432
O	4.789598838387755	1.6228675010755103	-12.228379300142857
O	2.226080758387755	-0.20573104792448982	-10.132669900142856
O	-1.5128418356122448	0.3206263620755101	-10.417014800142857
O	-2.6323628016122447	0.6649212430755101	-6.980424930142856
O	-6.225283351612245	1.1034758340755102	-5.840012070142857
O	-2.874715201612245	3.99145831207551	-3.400005290142857
O	-1.875918081612245	9.48483700207551	-4.867693670142857
O	0.6123481883877552	8.79936105207551	-7.401969100142857
O	4.167457478387755	8.65027701207551	-6.046078010142857
O	3.189342508387755	12.49386444207551	2.970191379857143
O	4.085745308387755	6.24090324207551	6.200948439857143
O	4.479698038387755	2.97146816207551	8.325359859857143
O	11.224178778387754	7.496646552075511	-1.1613644901428568
O	8.472967898387756	5.191776702075511	-2.2799833901428572
O	9.315632178387755	1.6260181570755101	-2.418775580142857
O	8.084123998387755	1.4928095536755102	-6.065228300142857
O	6.512525998387755	3.7826457820755097	-8.563543840142856
O	2.812056798387755	3.79909733207551	-7.895109480142857
O	-0.14521504661224482	5.07294493207551	-9.786323740142857
O	-2.829924041612245	5.90113932207551	-7.278254840142856
O	-6.517391451612245	6.7147711020755105	-7.725732630142857
O	-6.481390451612245	5.8015639720755106	-12.063256700142857
O	-12.088762421612245	-3.85271843792449	4.057526739857143
O	-10.241018621612245	-2.01466008792449	1.1923029398571432
O	-9.788839181612245	-3.67521635792449	-2.124925900142857
O	-6.137087441612245	-2.9723603079244896	-2.748630110142857
O	-4.472751461612245	-3.9359775079244894	-5.991816780142857
O	-1.2692288786122448	-5.030159657924489	-1.8729808501428569
O	-1.0160594896122448	-9.97210835792449	0.6368827518571432
O	-4.072857131612245	-9.39422665792449	2.795028819857143
O	-3.511051011612245	-7.63620592792449	6.090292549857144
O	7.600966018387755	-8.20794581792449	8.732967779857143
O	5.800647918387755	-6.1650833179244895	6.042033319857143
O	6.137258068387755	0.6284657370755101	2.924822029857143
O	6.807362598387755	4.19134620207551	2.646206949857143
O	8.158095648387755	4.74943257207551	6.120620209857144
O	9.079177338387755	1.32998572777551	7.050715739857144
O	7.817816948387755	-1.97636261792449	8.372064399857143
O	5.455423428387755	-3.4986251079244894	10.865042899857144
O	5.457616878387755	-6.878619187924489	12.572366899857144
O	-1.4234653086122449	-3.14979889792449	13.850563699857144
O	-2.872243461612245	-2.0365945979244895	10.708030599857143
O	-5.434795671612245	0.7621023910755101	10.658009499857144
O	-7.355220111612245	-0.78708952792449	7.758693439857144
O	-8.339585441612245	-4.11916545792449	6.653428539857144
O	-6.678127831612245	-4.728304427924489	3.300834109857143
O	-7.694902751612245	-7.22876495792449	0.7290237648571432
O	-4.5884559916122445	-7.800142077924489	-1.3431514201428567
O	-4.206627141612245	-9.618945857924489	-4.620632240142856
