49

O	21.093205655077888	-2.1758229228043335	20.465489582488715
O	20.481726330431044	-2.728117053568776	19.460524583485835
O	22.069923736248295	-2.7602682687708686	16.151328493635365
O	22.424280575889977	-2.3617866699496943	20.83423518103833
O	21.993815447202238	-2.354930174071727	22.0490145026352
O	19.18171414158337	-2.942258094643946	18.989727337169832
O	21.102956168310243	-2.4613551484087566	15.072425158118673
O	18.26790201442415	-2.047176739283575	19.582795699782917
O	19.867461694495184	-2.8828847902266386	15.803124815006367
O	20.12506815054093	1.7275641442444203	22.275919228383383
O	19.919443657527406	-4.281886433019307	15.762733144839576
O	18.705148455919964	-2.2606067758362354	15.945847381528132
O	18.527928509415702	-1.579691991517936	20.874477955896506
O	17.548258085019242	-1.3369075603711453	18.874720961833738
O	18.86347184674195	-4.891815299187586	16.316764293889275
O	17.546998262085275	-2.9123109349184566	16.14768047637315
O	17.682706573001493	-4.229425551081466	16.438301030620476
O	20.94392268493907	-1.1628140852132054	17.030246663163037
O	21.273975810610313	-2.881549365474574	18.292641680910553
O	24.450362377873255	-1.6599327568908713	21.998111636738976
O	22.494760422271018	-3.006149559541558	18.759888486140365
O	23.741787876484832	-1.7777200298089353	20.835754537522938
O	21.482680407757094	-3.4987936604339893	17.129352980446107
O	23.442823440644503	-1.5422756971596028	17.20428177447816
O	24.452414869905606	-0.9824007249723661	19.9954699426026
O	21.948375793787672	1.5641759669552224	18.536101080189916
O	19.54060096152474	1.2633537510143003	21.003176571899573
O	21.503401997381047	0.44896245315161276	20.742148176202015
O	24.631504660546458	0.3173907700364107	20.354318273986408
O	24.524632802814	0.6113442294902378	21.67991459108306
O	24.00417405785426	1.6973536562873608	22.26915994105583
O	23.919289734912184	1.9408878716937565	23.590198985792764
O	23.819002348056355	0.825707364643798	24.385772732199925
O	20.54506905141054	1.4977976224198815	17.93963015350741
O	24.490218452638803	-0.2704561779469854	23.852823598866724
O	24.767528087556872	-0.4307775854155439	22.50523177466559
O	22.24712964589321	-1.3257572454297948	16.72801992416281
O	20.911426397044373	2.9372743200829943	22.691440765869956
O	20.129634465931932	-0.3594687249285442	17.661086810874
O	20.402514072518848	0.15794699530908063	18.818851787316554
O	21.059828210490096	0.5692558797630292	22.671728464137896
O	21.95870656151088	0.1599158348524743	18.46781948729192
O	19.537396114066862	1.5095836608407345	23.678646541280585
O	22.219329810868924	2.4013758693966825	19.731276061489957
O	21.037410677138848	3.31169225373902	19.552516453604806
O	19.79982624164786	3.485675922928234	19.115755274436573
O	19.53757763707149	2.3735739916733065	18.08590449237915
O	20.390580670231802	0.7129914068623646	16.683378471346806
O	20.45716056650287	0.6196169744534183	20.089518517508353
