51

O	21.960287546150163	-3.308240692468299	18.76044123301299
O	20.98486188682236	-2.382769477394616	19.088507472656065
O	21.619655964113765	-2.4232074515725324	16.317092873764228
O	23.31342570600817	0.1247813697117992	20.2808961190316
O	19.704428295424645	0.004965939980499101	20.940541026988686
O	21.35604472159703	-4.557352745154409	16.669002754773935
O	22.138416126229554	-2.07978478248302	21.019781461578575
O	20.227286946562195	-2.1101467646454917	18.126358650914614
O	21.237644479905082	-2.137909525943414	14.988101743471859
O	23.51187701312218	0.6612509637510056	19.010525673066308
O	19.401167043210876	0.7099753832135525	19.767262937057033
O	18.90470225647538	-2.306088030585487	18.14746384956455
O	20.371430764481968	-3.3290232098010923	14.950995897332874
O	22.288520040639604	1.222081130638142	18.409913477447336
O	19.62213368866489	0.5720015838761869	18.42063462887996
O	21.991520314504506	2.357664565375244	19.301809987784857
O	18.032464829081107	-2.5040397597032946	17.233663197996197
O	19.0934718918543	-3.0929389356487524	15.013604474658806
O	20.392346070726894	0.6047104896315758	17.362362776902327
O	18.441308247126038	-2.302269151823883	19.370237762820736
O	20.75001431464633	-4.309209062864818	14.114001904963924
O	18.395631204693956	0.7271543254362232	18.072538477556
O	16.728137961933765	-2.38214814283183	17.30856207993016
O	18.209722645403136	-4.107747996741331	14.870450544794561
O	20.014638759082366	0.3256111732984657	16.147752273261215
O	17.221660400755596	-1.754458600675834	19.566731596142187
O	19.95116114924123	-5.4071324389877775	14.0199449515685
O	17.93444520675627	0.4875490026514	16.852086256290647
O	22.88908648585379	2.8427674186940317	19.956148270884203
O	20.88262616997952	3.130648055911484	19.302483982627795
O	16.393201782722826	-1.8103979450700367	18.489669838165252
O	18.69832687801963	-5.2821844595121865	14.485320323885407
O	18.76143677329612	-0.07822866764659686	15.944138967352982
O	22.9594217343299	-2.5974443738982242	18.235102873013187
O	23.4128466750639	-1.6054831490844867	16.559003280858125
O	17.886695293544193	-5.3549975164115	17.760281925930464
O	22.219099833662057	-3.66427577774871	16.223848580355856
O	21.801851948266155	-5.5931538466546336	16.264999183409298
O	19.73988243003277	-6.71233481026749	17.029249369231348
O	22.91928045578275	-0.9543252455686607	19.442538527981778
O	20.14713084940139	-4.742037796399733	17.116286865081765
O	19.69802463023396	-5.272244134283913	19.21049806376718
O	20.91423402913107	0.09844343315294268	20.3503664052846
O	22.206794174217887	0.8634861579731619	22.000261801129152
O	21.79883132147654	-1.6155281181294872	19.917187449991648
O	20.12501981671501	0.10977416224675363	23.216920147498968
O	19.97412533898904	2.086926374168158	21.92920698698407
O	22.26550876823153	-1.72748203898988	17.267366408220248
O	21.989903262903432	0.6823843329101693	20.74916948869419
O	19.81208528987665	0.8817778655279469	22.10857340799333
O	19.355222754399946	-5.460568417758289	17.771673770057742
