38

O	21.939833625491637	-8.322547064696472	15.419756906230365
O	21.687381824808494	-7.033722859743553	14.923666961042269
O	20.522867571675558	-6.244407508750773	14.85339240472552
O	20.638258121497348	-4.951429980334896	14.232340615993033
O	21.775111674418707	-4.423023199718499	13.809169079665434
O	22.429060224916817	-5.433535297148765	13.21391854410446
O	22.24552011194636	-6.782056912937947	13.645057426099056
O	22.470192010437525	-2.935789607629213	13.560935281412604
O	22.1658020595639	-2.74170813668498	12.214321577754797
O	23.98198011545092	-3.127499570079837	13.466285106471545
O	22.490261642133614	-1.9458134781267167	14.838681295546479
O	21.897587745875427	-0.77543677133648	14.740661287149006
O	20.475994876307283	-0.7842387881270232	14.622229905966973
O	19.4845916210503	-0.5174111446072196	15.627967219820224
O	20.22953653485669	-2.004495964942927	13.873634210413826
O	23.279039257908988	-2.572038568696022	15.767371855196208
O	22.937131642874053	-4.058940416888818	15.660366702768822
O	23.625913584693922	-5.040798272680565	16.121143723464737
O	22.123249234059678	-4.143924463921931	16.795468923639355
O	22.740766326641314	-3.7229806465215365	17.9676922990224
O	23.4244730288972	-2.542096377935077	18.102174207391748
O	24.578366822624563	-2.4725836937252863	17.805973634353954
O	22.713493912553467	-1.3994384759074723	18.195757126075993
O	22.88408425601086	-0.1255581167213613	17.774131151540693
O	21.630727920196446	0.4966510476355117	17.475898458712322
O	20.837462231353953	-0.20197246057808083	18.361921518608057
O	21.441659851706827	0.13506112868708642	19.42816126787399
O	21.45502720768148	-0.859952839712141	20.334970742301948
O	22.62935526148476	-1.5050574779300931	20.410094582629753
O	23.70314122297491	-0.705454160510057	19.73627335419229
O	22.886930616317123	0.4453993022414775	19.291232075302922
O	21.56275785611361	-2.760555304897501	16.343831124035347
O	20.578855134122932	-3.122010838248822	18.431799242425853
O	19.450649959516248	-2.8877907696352145	19.145936133551462
O	18.408310868567273	-3.4873735981724923	18.55069326675691
O	18.350096154562273	-3.6523195760934204	17.207041754335467
O	19.543873910752566	-3.647742134332666	16.609417675767048
O	20.510795403829423	-2.847860231721269	17.122236325340108
