42

O	22.238273524246218	-2.72569285673586	17.66277610962725
O	22.724364269961683	-3.5739595689179846	18.432837352765993
O	22.8368875736283	-1.478901414629258	17.703103645893147
O	22.053214349280218	-0.36256549647386316	17.385644938142995
O	21.868754814609616	-0.4183931292632399	15.92032725004887
O	20.82266790836682	0.32654058843450495	15.413968391397251
O	22.02233834079131	-1.620102389953229	15.142196506138099
O	21.527720640754445	-1.2796417393398714	13.85864913808615
O	20.98121272962475	-2.5168428845339106	15.664279216609712
O	20.96310443574034	-2.8295042187102064	17.005604238731657
O	23.419731215946246	-1.5811701030451908	19.176212051084338
O	22.40352148721943	-0.7119074632326434	19.765819901865125
O	21.72304153484269	-0.31060431582951287	20.845967071822916
O	21.051524986580837	0.874805071927145	20.842140363857073
O	21.073635482924928	1.6178124707658688	19.708408668426028
O	22.404623062290096	1.6013864187390956	19.43462543595148
O	22.973208527066294	0.37182423960515765	19.347104535579522
O	20.33699573015808	2.6246165971163977	19.005719573114966
O	20.573787973445604	2.4859237803609444	17.66579732515063
O	20.687848268133468	-0.41848361140902135	17.59126240967993
O	20.026401276906896	-1.107854557045273	18.598834631525268
O	18.921215251394006	-0.40566969877038495	18.796031738928043
O	18.36093425356777	-0.48525685304931554	20.011822299086948
O	18.68591777272784	-1.4798301987048486	20.860024154652173
O	19.263125348628943	-2.587985394069451	20.32830144227272
O	20.111661108556703	-2.2076942058848346	19.421483756192032
O	19.79045461542283	-1.6966271705326004	15.453460066781647
O	19.014233422399695	-2.7462495888414393	16.11908570554509
O	18.67645112626161	-3.7874937724853655	15.413335791890741
O	17.845861936711316	-4.728606724988111	15.913054845003517
O	17.465133551434697	-4.502221030010793	17.202800066308487
O	17.42271292655764	-3.262587042095829	17.738355379178913
O	18.130529740857266	-2.4066770314663435	17.009489862413414
O	20.48620325316054	-4.112923196358358	17.640929048977593
O	21.283676591832933	-4.76235409271608	16.665438500419505
O	22.340155602217383	-4.322472446444541	15.989046375455839
O	22.429164878211342	-4.729038869753583	14.691560064318761
O	21.214501704927596	-5.083263399199984	14.07974974944618
O	20.780444846446002	-6.05260066870273	14.845302680314125
O	20.782864283102747	-5.862676658251902	16.161371410463637
O	20.997720035213355	-5.0983848593282906	12.647973483264302
O	21.56779456975549	-3.824504000913089	12.510306860850035
