40

O	24.80173260478115	-1.2578204385021687	18.601295028147337
O	25.08787007781583	-2.2019901017699937	17.669425327022797
O	24.660523830665838	-2.23891867502103	16.375440445362962
O	23.574592376415218	-1.6096166172585962	16.114802393169974
O	23.673219681638244	-0.40382027382770413	16.710435693639774
O	24.13653436647999	-0.2486601509637132	18.022985287741747
O	23.03779216359024	-2.1022161996377697	14.586013101415146
O	23.63787522121776	-3.000681428710851	13.647415066752776
O	23.082758530554052	-0.8239572044173602	13.90155740434463
O	21.38337180618716	-2.336268825352526	14.646256851163079
O	21.093202934893853	-2.3909240859356604	13.38400194036172
O	21.35815832186566	-3.785494831566231	13.213467367904133
O	20.12864941498757	-4.361398262989963	13.764377336200297
O	21.883648464991268	-4.528481054454113	12.197544079653692
O	21.007340465253407	-1.3121883941098167	15.399645684259365
O	21.695732540361572	-1.5870564677348682	16.636779283182918
O	21.381882072200415	-2.680116697072426	16.927815907006597
O	21.475971200949154	-0.6102575995448489	17.80482982323423
O	21.514220295556886	-1.2962092560728535	18.92164959232502
O	21.99411312885091	-2.6204482238954805	18.96339392679387
O	22.20326902722656	-2.365655770339104	20.076282793893863
O	22.86505247317032	-3.4127610158658257	18.48090864541838
O	22.92097035055789	-4.713539954335689	18.32160703245611
O	21.570402431378493	-4.891311366744047	17.726359576685617
O	21.546096778640003	-4.769510246480587	16.30084799755162
O	21.28341460965577	-5.995004206454142	15.775137300931862
O	22.46792079339855	-6.6496611337877445	16.349798447889995
O	23.068883337219972	-5.758863127013028	15.024338447347231
O	22.874012867358122	-4.6780688480929475	15.839607587644979
O	23.63783296094153	-4.812700953728374	17.035944786988832
O	20.22317065044443	-0.37730112640132774	17.166090293021554
O	19.068680960819368	-2.630438248507242	16.43954625020077
O	18.55731717405765	-3.820566075866728	16.75100223013474
O	18.59955293003355	-4.080904515026607	18.056876151511787
O	19.01328117243948	-3.2180234063788467	18.97323847620597
O	19.4833768204777	-2.0384606718359617	18.535831678372297
O	19.722645055681635	-1.8052843664330367	17.25821283280149
O	24.820743550193523	-1.4067810243268566	19.951008696892337
O	25.25201380979565	-2.644827215202137	20.403262143296597
O	22.59948691862045	-6.563991084825901	14.05904836924725
