54

O	23.57683241957865	0.5860850590285887	21.29181196694589
O	23.272759153248032	0.4847240096731287	19.98337990990986
O	20.03593804291444	0.7481075961154542	20.278184343341536
O	20.319454831228274	-0.4140931938446881	16.734831061669453
O	22.237128351329122	-1.4687562487166455	17.147181968673404
O	20.066812198626444	-3.4108641296003928	16.306253991323466
O	22.142812157841277	-5.8918692809177	15.979073900420818
O	23.049811561906825	-0.31356427972383494	22.277179269999646
O	22.049339756532195	0.1360561326304397	22.83371693413637
O	23.35419140629473	1.7335448335097896	19.29312297166874
O	20.642110545174642	2.044208494795142	20.124247046414613
O	18.992963443545563	-0.8723200877371899	17.03867687670485
O	23.536658647339237	-1.120298374951364	17.398126529855247
O	18.806910881611856	-3.9590209676459045	16.167349009656984
O	21.91392084409068	-6.193281481855666	17.341320566909385
O	18.852732791242428	-1.4493177540745656	18.358675475534692
O	20.447012894267687	2.793448147343983	19.096512884639967
O	23.64257827011395	2.9884720220815932	20.02276302055184
O	20.904324993117868	2.496557742104513	21.416634907645072
O	24.052275185312848	-2.1346322569448595	18.12514340456711
O	17.755664130517616	-3.9507279300066402	16.98076103296005
O	20.536337368628427	-5.763183367501285	17.49611263005141
O	22.89816367228342	1.7195994317902625	18.038426592375743
O	19.340723466731344	-2.259766807701694	19.442487303912777
O	19.88463314989082	2.454180617130139	17.871476484733908
O	24.514646751953723	-2.4807029071670144	19.386577124069547
O	17.473034997559616	-4.525489760058	18.263339945122095
O	19.64761299738412	-6.870767074733927	17.136944421504413
O	18.957486203707376	-2.2380888754883674	20.800288541727767
O	25.243061079050975	-1.986061411904177	20.477437885249852
O	19.529931435967743	-8.014732141992004	17.8851583969423
O	18.163417354382872	-5.121117153896218	19.369655859265837
O	16.751653195645712	-3.6568968145615894	18.881903450245517
O	19.918337376712508	-9.211769551756047	17.986357162676107
O	23.79574737110549	-1.1730612033181542	23.25307823632539
O	20.859679933096224	-9.759639154627934	18.871109349523017
O	19.938219265151417	-10.018073088558955	16.82792304904262
O	22.057882653016385	-0.27515543874034276	19.81779469998747
O	21.066782908260837	0.09532675538140856	20.643381055172643
O	22.075871982344815	-1.364815110554891	20.548575049346997
O	20.04508693373444	0.3342669974694099	18.87108000585177
O	20.90149060200747	-0.13087018455333488	17.958015633612867
O	18.857980633313122	0.5277956999718596	19.04299793828727
O	20.87353090487898	-0.7712294120588801	15.48976885687041
O	22.153143475516607	-1.3065635479883404	15.723114894247066
O	22.240707322837597	-3.3497091238665933	18.532684709523416
O	21.845681667661907	-2.755018272238683	17.584229817781285
O	20.571701011450347	-3.1703378397568827	17.551639720494013
O	20.71271413440635	-4.852366253305233	14.326552038589424
O	20.965933189599568	-4.015471383037446	15.32954303887091
O	21.92285858107075	-4.443249048505154	16.021664210193144
O	21.18144941718842	-6.0817613193254125	14.260683461069714
O	20.979509136636395	-6.7383476086376115	15.377198792287228
O	21.474355154309436	-8.069192456942595	15.417802801377317
