103

O	1.9195083699155109	0.590672555061224	-5.755991707346938
O	1.2325675529155107	1.489559707061224	-5.065444637346939
O	3.2972876699155105	0.490832163061224	-2.469600717346939
O	0.8136420279155108	0.399715904361224	0.0957669026530612
O	1.1338833379155107	-2.227303652938776	-2.338497768346939
O	0.5303760226155108	-2.578220332938776	1.2475684626530614
O	3.7999377799155107	-2.7731146629387764	-0.5275351733469388
O	3.194997569915511	0.833707415061224	-6.269775507346939
O	3.324269079915511	2.050352737061224	-6.6345449573469395
O	0.6368694409155108	2.7045253270612237	-4.856451827346939
O	3.7428984399155105	1.824052127061224	-2.2547514983469386
O	2.0575281799155105	0.45714089706122396	0.7933649526530613
O	0.012957507915510758	-2.427029972938776	-3.2514793973469387
O	0.4754444147155108	-4.129902332938776	1.2623536126530612
O	4.563870259915511	-2.281978302938776	-1.5832363813469388
O	3.4998175299155108	0.427133823961224	0.6198739826530613
O	4.03430976991551	2.1652629670612242	-3.6493234873469387
O	1.3618311899155109	3.515929217061224	-5.7558570473469395
O	2.622331469915511	2.622603067061224	-1.8706738383469388
O	0.5337561528155108	-1.613050782938776	-4.315202197346939
O	0.6558535119155108	-3.7244856529387755	2.676009882653061
O	4.1033880699155105	-2.4342014129387763	-2.893874657346939
O	0.2946114459155108	3.0221599370612244	-3.596777177346939
O	4.894102639915511	0.21375888506122398	0.3327480526530613
O	3.7419888599155104	3.538249127061224	-3.9041823673469387
O	1.7034719999155108	-2.519059132938776	-4.766054067346939
O	1.3284617909155108	-4.955723222938776	3.130993812653061
O	4.85295931991551	-1.769276622938776	-3.888108457346939
O	5.9382216199155105	-0.059732786938775984	-0.5661740903469388
O	2.5140287499155107	-2.4519112829387764	-5.919181907346939
O	5.87497484991551	-0.822285632938776	-3.738081127346939
O	2.289783329915511	-5.834260992938776	2.633471052653061
O	0.2753165189155108	-5.587380772938776	3.455894732653061
O	7.081399969915511	-1.115058392938776	-3.9938174873469388
O	4.449990249915511	0.185662192061224	-6.513601767346939
O	7.30921659991551	-2.2372380429387757	-4.857427027346938
O	7.97185669991551	-1.032616132938776	-2.873337817346939
O	1.8391037199155107	1.412875327061224	-3.744648707346939
O	2.7271030099155107	0.320300055961224	-3.675545027346939
O	0.8309121119155107	1.088417638061224	-3.1600559173469387
O	2.1305732199155107	0.323619252861224	-1.6772927753469387
O	1.1882489149155107	1.228256344061224	-1.0386061563469389
O	2.831025549915511	-0.24340945293877603	-1.0342160983469388
O	0.11512816891551075	-0.589633314938776	-0.7968408863469388
O	0.6488289119155108	-1.012845792938776	-1.9211452263469386
O	0.9334667489155108	-4.085484572938776	-0.7857133243469387
O	0.8319865579155108	-2.947928532938776	-1.1103944923469387
O	0.008239546915510765	-2.402440962938776	-0.034047887346938754
O	2.6228640999155104	-2.9816445929387756	2.0186806426530612
O	1.9696880199155107	-2.475796052938776	1.140888252653061
O	2.594618859915511	-2.4525346929387757	-0.05324974734693888
O	4.727962039915511	-2.219011632938776	1.4214547526530614
O	4.53744513991551	-3.139362092938776	0.6352688026530613
O	4.590836829915511	-4.382182352938776	1.2927880626530612
O	-10.82018560008449	-6.706422672938776	-0.6211450683469388
O	-8.889449310084489	-3.8854303629387754	1.0933965726530612
O	-9.882971800084489	-0.27528922093877606	0.846411312653061
O	-6.60759467008449	1.331428325061224	0.2240704826530613
O	-6.29991346008449	5.147144547061224	-0.1429619473469388
O	-4.0876504800844895	2.569893777061224	-3.368479807346939
O	-5.5220497700844895	1.354105957061224	-8.83878299734694
O	-7.537397320084489	-1.537276262938776	-8.027506677346938
O	-5.595913600084489	-4.824638452938776	-8.222571927346939
O	3.117547169915511	-2.4681929129387763	-12.713280267346939
O	6.9298582999155105	-2.7806024029387757	-6.575474137346939
O	9.36308900991551	-2.883122362938776	-3.6792535173469387
O	0.6590475809155107	-10.970315232938777	-7.8773696373469395
O	-0.7827262000844892	-8.646415102938777	-5.437769037346939
O	-0.4693602280844892	-9.315532102938777	-1.9536863703469387
O	-4.318248910084489	-9.034128262938777	-1.5317289353469388
O	-7.146495930084489	-7.6607019329387755	-3.304359147346939
O	-7.152445540084489	-3.953871442938776	-3.127926237346939
O	-9.620102200084489	-1.341479692938776	-4.018892457346938
O	-7.713839860084489	1.717294957061224	-4.915513767346939
O	-8.91948768008449	5.358294007061224	-5.513045287346939
O	-12.99948280008449	2.8912728370612237	-7.645891587346938
O	-12.99400450008449	4.447631817061224	-4.145398197346939
O	2.8403549299155104	12.597486167061223	4.224807712653062
O	0.25578137991551075	10.258841697061223	2.4936501826530613
O	-2.840595080084489	9.235202377061224	4.346262592653062
O	-2.8017712700844895	5.496295317061224	3.506561402653061
O	-5.63522838008449	3.292618827061224	4.656185542653061
O	-1.1526659800844892	0.870385771061224	5.470237902653061
O	1.7386731399155109	0.999234227061224	10.230161632653061
O	3.3099737299155105	4.373086807061224	9.604740932653062
O	6.580764079915511	4.411248107061224	7.703655762653062
O	11.05557439991551	-6.320430642938776	7.455608912653062
O	8.050959039915512	-4.924858302938776	5.73322860265306
O	4.288629499915511	-5.867980282938776	-1.1283695773469389
O	4.024558849915511	-6.464247452938776	-4.464069307346939
O	7.60577402991551	-6.943310242938776	-5.365295447346939
O	9.010334189915511	-7.870995792938776	-2.0803884263469388
O	10.44324551991551	-6.431344742938776	1.1478992826530612
O	12.55537809991551	-3.7384620429387754	2.7120950626530616
O	14.397433499915511	-3.5036525229387756	6.010180772653062
O	10.98117989991551	4.560429397061224	1.7350680326530612
O	10.47639792991551	7.191195397061224	-0.8268497163469388
O	7.3139401999155105	8.639687917061224	0.9178796726530614
O	6.08610643991551	9.349508107061224	4.284830602653061
O	3.090839269915511	7.149806527061224	5.038890482653061
O	0.5233565310555107	7.636227357061224	7.682223872653061
O	-0.9356735700844891	4.195503717061224	8.168701322653062
O	-3.973542580084489	3.274876507061224	10.239260832653061
