54

O	22.199762739418965	-0.8150977862656624	17.699395969554953
O	23.16377409983637	-0.4663746697797093	18.260543556966944
O	22.680794533899327	-3.1987523657259542	17.366672839430766
O	22.358159232208433	-1.8740154792079822	16.731771095674038
O	21.209383610896545	-2.3761124157387155	16.07732270133033
O	21.043685501531094	-1.5229102564229604	14.853573621841685
O	19.82294445537758	-1.8867474237080564	14.34365679075687
O	20.972432443556585	-0.26009875470596433	15.47764144005336
O	20.170542982534442	0.5374529452669519	14.79311392469542
O	20.15813286185912	-0.2574047265370303	16.806807165029987
O	20.419517953428674	0.7679773418225266	18.49543157255213
O	21.133074221905943	0.11482931124553031	17.62467265704835
O	21.392616410808017	-3.185351753848789	18.157973000888614
O	21.57359874612687	-2.1965936942635156	19.08551474664899
O	21.624601155981637	-2.231115327686423	20.413078107562303
O	20.505585104475074	-2.895528197302317	20.783562860758323
O	20.037493128603007	-3.770303515825593	19.802453998186493
O	20.58129734140686	-4.107225005780475	18.616161150786528
O	22.969116827291348	-2.2183823873660984	20.90623261890565
O	24.186723889611883	-2.390415647737969	20.078042862333632
O	23.12188715560701	-2.9988674984144814	21.80801703157039
O	25.371437793641316	-2.1920633270002385	20.753176216495447
O	26.490723528524796	-1.5203127249860529	20.684396254768878
O	27.061177039287955	-1.2248425923336939	21.84159192197565
O	26.85433274035711	-2.195201938667723	22.74385521145182
O	25.68127372330222	-3.18913909441659	22.05625289575168
O	21.82292257288408	-3.128459191184157	14.962082184945796
O	21.05539082654558	-4.2602286640014935	15.307501564131043
O	21.79130340153263	-5.3129218964376355	15.70094674031413
O	21.235923770054683	-6.463675622535249	15.120168056616134
O	19.904894482521193	-6.541120687399582	15.222038573626794
O	19.244651259194196	-5.55670403571702	15.93623943217735
O	19.769587084710754	-4.354588960644089	15.572453223008669
O	19.318879914660034	-1.1972217148239455	16.373029280917343
O	18.754040145762303	-1.7549412989371003	17.503278738384015
O	18.120040964828668	-2.856960688182248	17.267954939288558
O	17.291986067659813	-3.4603004075006645	18.093742947918678
O	17.150454023729402	-2.8246063906374754	19.29139410977367
O	17.685249357472102	-1.6233464676193532	19.56755343720215
O	18.44383715779001	-1.1108299104112502	18.594994709894067
O	20.41944122940953	0.8227720444868869	19.850994679861664
O	21.736804652531067	0.9322363287055728	19.957260223074655
O	22.269948826526658	1.1840993324087867	21.092857098604075
O	21.392726459684187	1.2093438616366108	22.19250999286127
O	20.379364198002847	0.22575831097450894	22.05794847437478
O	19.723226428409205	0.39622822917316247	20.899565150621484
O	23.61691701570185	0.7063304597965192	21.01116511570084
O	24.100763613535747	-0.04111918718373908	21.935417931250093
O	24.61433106157261	0.8898383237323919	20.427443788586178
O	24.42795600880786	-0.07868288786989308	23.255173445226156
O	24.0434246697448	0.8894414977046983	24.057040200207506
O	23.069717465990344	0.7297237414880817	24.946284545935917
O	22.499593821965405	-0.5428417356478112	25.008391489181754
O	23.811728582536258	-1.329269799115887	24.17585705000463
