97

O	-0.44898139084230737	-0.6780791509038464	-2.3237805761153845
O	-1.5062813648423075	-0.21475764190384627	-1.4834812511153843
O	0.2481960231576925	-0.5113344909038464	-4.777946321115384
O	-0.45605358684230735	0.30928975209615367	-3.106943941115384
O	-0.05754745684230733	1.5384480510961538	-5.242590831115384
O	1.5924421431576925	2.721755889096154	-1.9941425401153843
O	-0.26354951184230735	0.46955768809615367	-4.381834791115384
O	-0.7370905378423074	1.5848597490961536	-2.497651576115384
O	0.02318236315769262	-0.3266943059038463	0.9218558188846158
O	-0.7839937928423074	1.2643815190961538	-6.501989181115384
O	0.9598763031576927	-1.8387150809038462	-0.28984336111538433
O	-0.6306193488423074	-2.7221508309038462	1.2904777188846157
O	-0.6849588578423074	2.052641669096154	-7.766395231115384
O	-4.970549606842307	-2.5124985709038468	-3.803476321115384
O	-2.403242396842307	-1.2120346309038463	-0.15742290111538426
O	-2.2724773368423072	1.4382247510961537	-6.516844571115384
O	-0.6785018788423074	-0.18226014490384634	-7.030749831115384
O	-2.0247769328423075	1.4234902900961537	-3.1742503911153843
O	-2.4925031068423076	0.5531120771961536	-2.122895256115384
O	-0.11491579384230743	2.575876639096154	-3.3536908811153845
O	1.0399583131576926	1.7908209390961536	-2.9265684811153845
O	1.0365410131576924	0.6871616600961536	-1.9586110771153842
O	1.3492332731576928	0.7165308280961536	-0.5752494611153842
O	2.712702683157693	0.10835632209615365	-0.6730293851153843
O	2.7181298031576926	-0.8362209009038464	-1.7792373451153842
O	2.6220808331576926	-2.1144636309038463	-2.0904190111153844
O	2.0918237231576926	-2.5601296209038464	-3.2464102111153843
O	2.7814794731576926	-1.9506223609038462	-4.286059551115384
O	3.093440283157693	-0.6256952109038463	-4.1390306911153845
O	2.8904833231576927	-0.09300160790384637	-2.9369408011153846
O	0.9140967031576925	-0.5346113309038463	0.1548013688846157
O	1.4638211431576926	-2.7619120209038464	0.6402511588846156
O	0.5400907931576926	-2.6010883109038465	1.7393569688846158
O	1.4524268531576925	-1.7443546709038464	2.6966528388846163
O	2.6328752531576924	-2.7164301609038466	2.609713008884616
O	-1.7057905468423074	-2.755967590903846	-1.7509206330153844
O	-1.4217107548423074	-2.331519740903846	-3.1276480311153843
O	-2.7237241868423077	-1.7773745209038465	-3.6297332411153844
O	4.088623323157693	-2.421713920903846	0.8139677188846155
O	2.7095939731576926	-2.211979900903846	1.1971380388846156
O	-2.0588825938423074	-1.4559696909038464	-1.2559320731153842
O	-2.794173846842307	-1.4793116209038464	-4.9438405011153845
O	-4.006970626842307	-1.2302646609038463	-5.516175371115384
O	-4.9898231568423075	-2.052848850903846	-5.049217381115384
O	-3.9356607268423076	-2.109635230903846	-3.042801161115384
O	-6.967562816842308	0.7554480970961537	10.850901788884617
O	-3.6082658768423075	1.9128006490961538	9.531597588884615
O	-2.8355070268423077	5.465164319096154	8.461790288884616
O	-1.1605409110423075	4.987849669096153	5.213067098884616
O	0.23637339315769257	7.960546509096154	3.2727966888846156
O	-2.3486370968423076	4.599555499096153	0.05731527888461563
O	-7.612227326842308	4.814670419096154	-1.2506993811153844
O	-9.213663496842308	3.6702524790961535	1.9190903788846156
O	-9.831447636842306	-0.12936569690384636	1.977492928884616
O	-10.990527606842306	-3.2279708209038462	-9.665754351115384
O	-8.126195196842307	-1.7942409409038464	-7.763572291115384
O	-2.1038572268423072	-4.587130060903847	-6.639543561115384
O	1.0975745331576925	-6.560943850903847	-6.635690121115384
O	1.3154195531576924	-8.469787400903845	-9.794330501115384
O	-7.933747126842308	-7.081378350903846	-7.635678791115384
O	-11.753295636842306	-6.965485710903846	-7.210443161115384
O	-8.976837726842307	-8.566351710903845	0.3160231688846158
O	-6.699427126842307	-6.209814070903847	1.9771413488846157
O	-4.005544506842307	-7.443208320903847	4.240745748884616
O	-5.243390376842307	-4.885257750903847	6.925882128884616
O	-7.645721576842307	-2.001215020903846	7.193073328884616
O	-6.052301686842307	1.0670528270961537	5.651474068884616
O	-6.9003432968423075	4.698869049096153	5.644946528884616
O	-5.516008706842308	6.189049119096153	2.497949868884616
O	-5.066849286842308	9.735428039096155	1.2307702988846156
O	-8.683105036842306	10.287814989096155	0.24393541888461567
O	-9.669084456842306	10.395170239096155	3.865117528884616
O	-6.2964723368423074	11.444632469096154	5.289653608884616
O	10.832915963157692	8.441302459096153	-3.5148344211153844
O	7.391018403157692	8.218222219096154	-1.7747575341153843
O	7.115659673157693	8.855222649096154	1.9296553488846155
O	4.942262173157693	5.934420349096153	2.9688512988846156
O	3.7230643331576925	5.577402589096153	6.566495058884616
O	5.286756663157693	0.9944542860961536	4.466933538884616
O	10.147133263157691	-1.3344199809038464	5.098584268884616
O	11.938384963157691	0.7303112340961537	2.4731418888846157
O	11.909108463157693	-0.7530201309038462	-0.9922353431153843
O	7.3583564231576934	-9.065232310903845	0.3665605088846158
O	0.29490100315769263	-6.713800980903846	-0.42618126111538435
O	-3.0469013668423077	-6.7507461109038465	-1.9754679491153844
O	-2.5188247868423073	-8.880986660903845	-4.995946821115385
O	0.3215683331576926	-10.814534730903846	-3.7095777711153843
O	4.065488793157693	-10.859301830903846	-3.3639892211153843
O	7.273282103157693	-10.036229030903845	-5.1399402711153845
O	10.822353363157692	-11.246543130903845	-4.673447961115384
O	8.954983263157693	-2.209906140903846	-7.636148981115384
O	7.477402343157693	0.5898838140961536	-9.703392321115384
O	8.352735203157692	3.2011787790961534	-7.032693651115384
O	11.029124163157693	3.9957261690961534	-4.5246849311153845
O	9.324165963157693	3.705834059096154	-1.1042283801153843
O	10.549696363157693	5.196437839096154	2.0779847188846157
O	9.046558563157692	3.1621699290961534	4.854267258884616
