33

O	20.749447499076812	2.6188094682964893	23.543530973225568
O	20.443217929012437	1.3374723936067974	22.871793009207938
O	22.802467734263256	-2.644317478888637	18.791578317984968
O	21.3031349420204	-3.120751074041345	20.43088929596206
O	20.374085015557224	1.270814534870753	17.903497526089144
O	21.57277854648609	1.1533595631321432	18.671820947372304
O	20.491811532246878	3.4402050509922306	19.012579062792774
O	19.71570588169312	2.4952715851614147	18.403243081165606
O	22.976784199196075	0.2531804936963855	20.774369111371573
O	22.554773380655963	-0.5875341918675256	17.90427020787358
O	19.611139150285624	0.05193014523742312	17.78167914668907
O	19.841363009031465	-1.300008622655525	18.20680164426699
O	23.841911067121405	2.5324041096435486	21.86104642138647
O	24.238854237724972	0.7564985356671157	19.25153697910613
O	18.834531017404164	-1.8431831532117475	18.941480877835193
O	18.507196311191862	-3.1344647880043808	19.157928054699596
O	18.994884513059176	-4.025371501072067	18.25238545862395
O	19.999175785939833	-3.641303228160672	17.411707976241267
O	22.01993498846277	3.9803790047732686	21.65245128461027
O	20.24485212561789	-2.3221611529433646	17.3398434794186
O	22.11410684208933	2.4408845428955126	23.27411691677381
O	22.28475104122836	-0.7482652416008289	20.152488148956994
O	21.82208879017013	-0.2645856932388848	18.855596948663262
O	22.240362283708485	-2.114838358721621	20.05398230744524
O	20.27122200029947	1.4296789751351957	21.53771508707023
O	19.38659258530719	0.48456034063469644	21.08283215710279
O	19.3491174325546	-0.716419044444065	21.6932954494731
O	20.266572403251118	-0.8916826487538865	22.638158108375965
O	21.00383871905214	0.13825609450966825	23.13195145590653
O	23.999477898692017	2.593155187694335	20.46005094567759
O	23.412083370936756	1.376698886250436	19.950727908069805
O	23.47006434045187	3.9247451220203913	20.021369787924478
O	22.39847057811448	2.8130337387027624	21.99987431607524
