97

O	-0.739851927172549	-4.070814378188236	3.4106263290019605
O	-0.900698163172549	-2.6968405981882353	1.3067588590019608
O	-3.0735455841725488	-2.8223853581882357	1.4938231690019608
O	0.21691451582745103	-2.5966972981882357	2.0752423190019607
O	-1.9611236591725492	-3.948870068188236	3.0870217790019603
O	-1.8175313521725491	-1.5220188381882358	-1.4052844609980393
O	-2.025333385172549	-3.4090485281882357	1.7494964790019607
O	0.15796077582745105	-0.7602904281882357	-0.7042477709980394
O	-1.471686218172549	-1.2786590581882358	3.9076851390019605
O	1.609959905827451	0.8419696908117643	1.6629797090019607
O	-0.415924964172549	-0.02929509618823567	2.2446480890019607
O	-2.536755424172549	-0.05061409218823565	0.8229318440019606
O	2.5985653958274506	0.6969739928117644	0.7959208200019606
O	-2.072472806172549	1.4446069718117642	2.6016146990019604
O	3.606334255827451	-0.11191517518823568	1.0694049490019606
O	3.5903556558274508	-0.8176550581882358	2.2183417590019605
O	2.7029662758274506	-0.5506689211882356	3.1544898490019606
O	1.695026685827451	0.26211174881176436	2.7999349890019607
O	-0.704861273172549	-2.8950173581882357	-0.07378443924803937
O	-0.913816042172549	-1.5858542781882357	-0.5809496589980394
O	-0.16820607417254907	0.5872456598117644	-0.7598277279980394
O	0.718130895827451	-3.0786990781882353	-0.39149017099803934
O	1.680156085827451	-2.0378198981882356	-0.8269381499980394
O	1.3527936958274511	-2.1749048281882355	0.5799877960019606
O	-0.687644776172549	0.2963751739117643	-4.618998510998039
O	-0.20341156817254902	-0.9531684081882357	-4.747445990998039
O	0.4078481258274509	-1.6023647481882357	-3.7175569109980393
O	0.9060139558274509	-0.7431723781882358	-2.7965908309980394
O	0.4169111358274509	0.47655398621176437	-2.6701945709980395
O	-0.680902453172549	0.7718609488117644	-3.3389712609980395
O	0.711881765827451	1.2794988288117644	-1.5070781909980393
O	-1.562524881172549	0.5614197748117643	-1.1792613309980393
O	-1.510817477172549	0.6028119888117643	0.2765585770019606
O	-0.28599002717254907	0.47936782561176433	0.9523580290019605
O	-1.5390091881725492	0.39904636391176435	2.7793191490019606
O	-2.277611564172549	-0.6112835881882357	3.3192264590019604
O	-0.615269266172549	-0.9961089981882356	4.825860049001961
O	0.44625770582745106	1.6087772218117642	1.2085905990019608
O	-0.641090676172549	-1.8834566081882358	5.938604109001961
O	0.698870865827451	-1.9189695581882356	6.374669259001961
O	1.4511742258274511	-0.8958519181882356	5.765062459001961
O	0.7289221758274509	0.3061366533117643	5.941976089001961
O	-0.474140396172549	0.28097132781176437	5.228685359001961
O	-1.372197878172549	1.3848543618117644	5.326331079001961
O	-1.297843916172549	-3.1328749781882355	6.180755729001961
O	0.495412725827451	-3.1758676081882355	3.2281444390019605
O	1.053951645827451	10.339510611811765	-5.502399070998039
O	4.549494845827451	10.393188011811764	-3.9253117709980394
O	4.535045945827451	6.979412281811764	-2.1140443609980397
O	7.785091485827452	5.9894196418117644	-0.32469019499803936
O	3.2079637958274514	4.816799231811765	2.3112947790019605
O	1.2260094058274509	8.156568451811765	6.232943739001961
O	-0.3086232781725491	10.794349811811765	4.0526893690019605
O	-7.867802754172549	3.1341633318117643	12.432464009001961
O	-5.1700203141725485	2.4241927518117645	9.861337679001961
O	-5.397235714172549	-2.1375023481882356	5.194168559001961
O	-5.788699214172548	-5.2284378681882355	3.1174075990019605
O	-7.7126628641725485	-7.809251518188235	4.910002819001961
O	-8.09127124417255	-5.554510108188236	7.943346349001962
O	-8.21642225417255	-2.0527163681882357	9.468912399001962
O	-10.08091859417255	0.9581036088117643	8.09919593900196
O	-11.25892621417255	5.754950181811765	1.6461082490019607
O	-7.962057894172549	5.701191141811765	-0.05806841509803937
O	-7.652719664172549	4.467760931811765	-3.5618984209980393
O	-5.810548794172549	7.714379791811765	-4.453427250998039
O	-4.403712394172549	10.800361511811765	-2.7680591009980393
O	-1.023994247372549	9.747495651811764	-1.3550337509980392
O	1.859998055827451	11.667567411811765	0.1508241100019606
O	3.613505525827451	9.287643201811765	2.5479390690019605
O	6.905688755827451	9.498673831811765	4.405435139001961
O	8.10008633582745	13.299240111811764	2.1995843290019605
O	12.31005558582745	-5.628376808188236	0.7079424710019606
O	10.80513708582745	-2.1313890781882354	0.6434550300019606
O	11.55519888582745	0.26026118581176433	-2.1920618409980395
O	8.07661356582745	1.5451259518117644	-2.9635770509980395
O	7.450027485827451	4.3540144118117645	-5.461027390998039
O	3.820427165827451	0.3959213554117643	-5.792239350998039
O	4.100431305827451	-3.7819604781882354	-9.363977310998038
O	6.469321105827452	-5.872192578188235	-7.230566480998039
O	4.861908215827452	-8.172293558188235	-4.709377620998039
O	-6.086078084172549	-9.622710188188236	-7.712261900998039
O	-4.336529514172549	-6.614336358188235	-6.227577150998039
O	-5.583126344172549	-0.9882747681882358	-1.7245902009980394
O	-7.131802254172549	0.6226253048117644	1.2531972190019607
O	-9.227294004172549	-2.1883639381882354	2.6743989490019606
O	-9.517070304172549	-4.234615578188236	-0.3548940769980394
O	-7.700577644172549	-6.866966768188235	-2.3409518109980394
O	-5.753848854172549	-10.067460688188236	-2.1400887709980396
O	-5.201552644172549	-12.881059988188236	-4.589850710998039
O	0.12336740582745098	-13.335145088188236	1.2903928890019607
O	1.822371825827451	-10.102068488188236	1.7015491590019607
O	3.498597425827451	-9.115911658188235	4.9131526990019605
O	6.2098333858274515	-7.121075168188235	3.1462149090019604
O	8.40781342582745	-7.790629158188235	0.14187056000196063
O	7.654816895827451	-4.744538308188235	-2.0816685309980394
O	9.76783628582745	-3.5215524081882355	-4.891890480998039
O	7.512902235827451	-1.5395804481882358	-7.206295000998039
