85

O	4.624478379272727	1.4309596315454547	0.3446168776863632
O	3.8729709592727266	0.5889648185454546	-0.44830486551363685
O	3.176590069272727	-0.4605981724545454	0.019774013686363168
O	3.434283049272727	-0.8920800724545455	1.2281604786863631
O	3.644000829272727	0.10756752754545462	2.097003248686363
O	4.526184889272727	0.9869826015454546	1.6150945686863631
O	1.9309916792727273	-1.5216311824545454	1.9625375886863632
O	2.0195482092727275	-2.7749188624545456	1.374300548686363
O	1.5643838392727272	-1.4346882924545454	3.3015675186863636
O	0.8768098692727271	-0.3336014924545454	1.3363790386863632
O	0.9129357692727271	-1.1545381324545452	0.24727006868636314
O	0.0028124722727271845	-1.6089644924545454	-0.6216778603136368
O	-1.1823837847272727	-1.1832090024545452	-1.3019681143136368
O	0.8194236892727271	-1.1586820924545456	-1.841286371313637
O	1.5869076892727272	0.7221953145454546	1.8689953086863633
O	1.7495613492727273	2.0855694065454546	1.7918495386863633
O	2.496625629272727	3.0383679575454545	2.1391092586863634
O	1.5594392892727271	2.5017374675454547	0.4314713546863631
O	0.2459867702727272	3.0316483475454543	0.48735476968636315
O	-0.6427988997272729	2.758157567545455	1.5767395386863632
O	-0.02555932172727282	2.5270355875454547	2.6323754386863634
O	-1.8367544207272728	2.0851119415454544	1.5418236086863633
O	-1.6148056607272727	0.7921680085454545	1.1714896986863632
O	-0.9278312107272728	0.27360239354545457	2.2889835986863636
O	-1.4548379207272728	-1.0342728124545455	2.3683171986863636
O	-2.509673700727273	-0.8979344124545454	1.441088198686363
O	-3.277016000727273	0.1253008575454546	2.3527160586863634
O	-3.759889220727273	1.2859067021454547	1.8214561186863631
O	-3.6172180107272727	1.1665418023454546	0.5322448256863631
O	-2.540841970727273	0.0376476075454546	0.46415143768636313
O	1.407094849272727	1.1416598531454547	-0.05948050031363683
O	1.3064950792727272	2.0382442535454546	-2.122167351313637
O	0.40525133627272714	2.2868784375454547	-3.1672022013136365
O	-0.7992504137272729	2.866480617545455	-2.7430907813136365
O	-1.511678780727273	2.0578029055454548	-1.9140642013136369
O	-0.6061875277272728	1.6817406665454546	-1.0156850003136368
O	0.6697898992727271	1.4430282555454546	-1.119644745313637
O	4.694129189272727	2.7755131375454547	0.12436930868636314
O	4.277304989272727	3.2439160375454548	-1.1085434363136368
O	-1.3517639807272728	0.8982655795454546	3.5584951286863635
O	-2.658823050727273	0.9154367705454547	3.304834218686363
O	7.002268249272727	-5.752443292454545	9.268810608686362
O	5.804405199272727	-6.300783572454545	5.745030208686363
O	3.4350749292727274	-9.082643912454547	4.668716918686363
O	0.9563177792727271	-7.358504812454545	2.6115854186863627
O	-1.9974472007272728	-8.818180612454544	0.7911712486863631
O	-2.585122110727273	-3.9895948124545457	3.0219743686863634
O	-5.555676290727273	-3.8697025724545453	7.927261878686363
O	-2.539802450727273	-4.319442362454545	10.110130288686362
O	-0.9560177817272728	-0.9108903324545454	10.814125488686363
O	-8.169330330727272	5.013611297545454	7.646511548686363
O	-4.844380200727273	7.000323997545455	2.4623839286863634
O	-3.541578400727273	9.007219317545456	-0.43039173351363685
O	1.6129187192727272	7.261945117545455	10.631500088686362
O	2.1556322892727273	4.364751587545454	8.373767438686363
O	5.132686489272727	4.436327747545455	6.155743128686363
O	6.083841989272727	0.9859848575454546	7.555810088686363
O	4.804831849272727	-1.7031282124545455	9.737769588686362
O	2.4266971692727273	-3.894124992454546	7.906109658686364
O	0.6598735492727272	-7.108421732454546	8.437943728686362
O	-2.584755670727273	-6.953412602454546	6.497231808686363
O	-7.125432000727273	-5.8709185924545455	-10.214809341313638
O	-5.751589800727273	-6.552393952454546	-6.695957411313636
O	-2.8138485807272726	-8.940192312454545	-6.234729611313637
O	-0.7030413247272729	-6.956051932454545	-3.8292420613136366
O	2.4734489492727274	-8.343105682454546	-2.201100961313637
O	2.824272929272727	-3.0583683524545453	-3.560220181313637
O	5.131211569272727	-1.5990800424545455	-8.525976841313637
O	2.020132589272727	-2.1727883724545456	-10.669621511313638
O	5.490482159272727	10.537430707545454	-7.880705891313637
O	4.564244889272727	7.6890316575454545	-5.7260449813136365
O	2.078547729272727	6.410555377545455	1.200674208686363
O	-0.023629012727272802	6.892685477545455	4.3579045486863635
O	-1.4733795607272728	10.148636747545453	3.4837455686863628
O	0.9000073192727271	11.324622587545456	0.9274222886863632
O	1.7517120192727271	11.250113887545453	-2.7951446013136367
O	0.16800548027272721	11.267229087545456	-6.245912451313637
O	1.4696788192727273	11.911037987545456	-9.732498321313637
O	-5.941141890727273	5.409463687545455	-8.457785831313638
O	-9.129869770727273	3.8509174175454546	-7.094170321313636
O	-7.935933950727273	0.2990997655454546	-7.719194801313637
O	-2.8792302407272725	-3.012487622454546	-8.480489091313638
O	-0.6190608827272728	-5.837907402454546	-9.450377181313637
O	2.5967598392727274	-5.245170792454545	-7.444939271313636
O	5.627214949272727	-7.411249432454546	-6.9440116513136365
