51

O	18.5887091544393	-3.6292051424183773	14.716114585233408
O	21.448577085142677	-8.569299041568996	16.04387827791548
O	21.766436480338275	-7.290786528807251	16.39021435751987
O	20.95315716175451	-6.618535122097699	17.298784345398104
O	19.639218333603036	-6.865690402132367	17.12602528827477
O	19.31901931492896	-7.9503784680713405	16.383144520143638
O	20.20968563268786	-8.532607448691328	15.525439552475564
O	20.168036845518305	-1.3129247686716548	16.51794143207564
O	21.047310626255157	-1.0211349953384719	15.390974660773223
O	22.285804729046813	-0.7656235704358116	15.913872028167873
O	19.502056347663967	-0.8338230978722032	15.378362855092082
O	19.234404001290613	-1.9258893814864455	17.143948220265145
O	18.749435543761848	-2.8059811180786878	17.999286075218993
O	18.26480771261381	-4.026437421268929	17.765511464029302
O	17.83538531389538	-4.7860918224887286	18.78161104410819
O	18.200313604585133	-4.444836613700758	20.036214210979487
O	18.600011363589562	-3.1794438890672527	20.311991839398157
O	18.47337616189726	-2.3753022890655537	19.235264529143336
O	20.517050484993696	-0.4109249603317453	17.555759942659833
O	21.707723737614145	0.14135506861128544	17.755933889611953
O	22.023817648040495	0.8697746825927029	18.86774204824647
O	22.527555581436058	-0.260124869466027	19.806436059546627
O	23.705164904693817	-0.20873049093756335	19.20213640685177
O	21.374271334339014	-1.1361523347226632	19.644884633339224
O	20.32471301141107	-0.09650544826595353	19.811352253066595
O	19.56316929105474	-0.13525964038597071	20.983177134437952
O	19.77954932608044	0.5788580184778813	22.115443389825717
O	20.46872087553998	1.7446027692034316	21.95239129150342
O	20.823611896513114	2.006045299740856	20.610066890114695
O	20.784474995344844	1.1539605029370077	19.54381026413082
O	19.944524700550033	0.7136058760413184	17.231682092296655
O	22.871854878075325	-1.7225815929790755	16.57331126776279
O	23.69554195380273	-2.0743970483559635	17.536070214745223
O	23.089287004774167	-3.182296800613707	18.466243696640323
O	21.790928261158097	-3.2808427930635564	18.787767997173802
O	21.117380331868915	-4.4035781210449745	18.61025734624164
O	21.488985318792135	-5.428759709430402	17.8660097781556
O	22.77704305320656	-5.216037754046893	17.37533568796588
O	23.34803856477278	-4.0485073593585685	17.469775521012586
O	21.833338550004687	-2.7033150491325477	16.63743879371708
O	21.50439334782648	-3.2392066820560546	15.425418202006135
O	20.480848415794974	-4.190248332424424	15.316225740094229
O	21.77349625842502	-5.370258671562437	13.75309369658447
O	21.60265875549939	-6.697124081231163	13.070889270567227
O	21.91338828356411	-6.34758905673254	11.695006098911547
O	22.883968033712176	-5.592327211618956	14.230491689323642
O	19.80676630846131	-3.763935361151608	14.042315625030662
O	20.82273667300515	-3.3445296635275135	13.166796526932858
O	19.466606461434292	-5.172953257141277	13.37009615340555
O	22.433903573483242	-3.3818909732851745	14.697376513096078
O	20.94437674705098	-5.419397613143774	14.878683787877183
