105

O	-0.31550084344545437	3.6528201417454547	2.0074251836363644
O	1.1190215395545455	5.3992855517454545	2.6762002436363646
O	0.18324800555454565	0.7134766237454545	2.6540502736363645
O	0.2998747955545456	0.24690166174545447	-3.7419856763636354
O	-0.6737034644454544	3.5664257817454543	3.289292513636364
O	0.6476555845545456	-1.3132948582545456	0.09358778163636422
O	-1.5807533904454543	0.1113354817454546	0.34366097063636425
O	1.0344671595545456	4.990205131745455	3.9436079336363643
O	2.085709129554546	0.22298316174545452	1.8801515536363642
O	2.307486749554546	3.6442947317454544	-0.6943694993636358
O	-0.07211874574545435	4.272332901745454	4.289759873636364
O	1.4613589695545457	1.7691927577454545	-0.4464482093636358
O	-0.026418644645454348	4.602033381745454	-0.7348745233636358
O	0.34207954455454564	4.822155291745455	1.7720199436363642
O	0.28213543055454565	2.3928389217454544	-0.9137991463636359
O	-0.05011855954545434	0.6775451327454545	-5.119111136363635
O	0.08097717395454565	-0.7765383982545453	1.1238862406363643
O	1.1745142295545457	-0.8728250982545456	-3.984723966363636
O	0.5941920415545456	-2.6805708182545454	0.026129627636364228
O	-0.8636918484454543	2.6642079217454544	1.1686851366363642
O	-0.3583288164454544	-1.0815808782545453	-0.7707555683636358
O	-0.08822779484545434	-1.8237690782545455	2.0360676136363645
O	0.7123919055545457	0.3235247197454545	1.6609740936363642
O	1.6411952395545457	-2.6304075782545455	1.1022572826363641
O	-0.5673143704454544	0.29300746174545456	-0.42814677336363577
O	1.3726522495545457	-1.7535808582545456	2.1734830436363644
O	1.4224553495545456	-4.035575048254546	1.5498399236363642
O	0.7251161465545456	0.7852801097454545	-0.44577139736363575
O	1.6820807695545457	-1.4800148982545456	3.5686080436363645
O	2.513957959554546	1.4794650947454544	2.2763215036363644
O	2.1706975995545457	-4.072545088254546	2.8342554336363643
O	1.3101489895545457	-0.2918272382545455	-1.2832778863636358
O	2.583032229554546	-2.7892929582545456	3.2791030336363645
O	3.738341129554546	0.8713241807454545	2.840103143636364
O	2.877841339554546	2.7409945517454544	1.8406136636363641
O	1.7903564895545456	1.7173695937454545	3.557115353636364
O	2.0396108195545457	2.6025299517454545	-1.3838828963636358
O	2.609083329554546	-0.26127985825454547	-1.062395136363636
O	0.8595378765545456	2.816424901745455	-2.2280766763636355
O	3.2514243795545457	-1.3417031182545456	-0.6455539943636357
O	3.2843106595545457	0.7884053107454545	-0.8569506263636357
O	0.6830167705545457	1.6433282027454545	-3.0303071963636357
O	4.153499079554545	-1.3811423382545454	0.35941826963636425
O	4.458212739554545	0.8634447867454544	-0.2754645943636358
O	0.20199253455454566	3.5057982217454544	-0.09313414536363579
O	1.9810235495545456	1.8093138927454544	-3.6915208163636355
O	-0.5405343694454544	2.4501803617454545	-3.2499630663636356
O	4.799390659554545	-0.2134496482545456	0.4473251516363642
O	-1.2818236104454543	2.9815980617454545	-0.06734137136363577
O	-1.2961222004454545	-0.29425021825454545	-3.3208856663636355
O	-9.255189810445454	-6.803728448254545	6.512128023636365
O	-7.412153320445454	-7.058049738254545	3.1990364736363643
O	-8.832034420445453	-6.014809588254545	-0.17935795636363577
O	-6.017007390445454	-3.9088301482545456	-1.575196106363636
O	-6.3889379004454545	-2.4676370182545453	-5.066635656363635
O	-4.353297590445455	1.1975588507454544	-1.5996523563636358
O	-7.179005880445454	4.678033221745455	1.2231290936363641
O	-8.710686520445453	2.4625916417454548	3.7958124936363644
O	-6.680161640445455	2.2438769177454545	6.990012603636364
O	-0.7541859964454544	12.537274161745454	7.345001993636364
O	-0.4856902384454544	9.563517761745455	4.861268313636365
O	4.443970459554546	5.864100741745455	3.6104784336363642
O	7.813032979554546	4.351343911745454	3.051813813636364
O	10.468367109554546	6.8381420517454545	3.6826854936363644
O	4.612400539554545	10.479940581745453	5.933245123636365
O	2.811991209554546	8.997795371745454	8.932374433636364
O	0.17686764455454565	10.490620131745455	11.325955953636363
O	-0.05025853204545434	2.2902229267454546	12.550781153636363
O	-0.8765934014454544	0.15575008174545446	9.662912023636364
O	0.7492639895545457	-3.164144998254545	9.376246493636364
O	-2.826851630445454	-4.733969418254546	8.773284943636364
O	-6.3207395104454545	-3.566427958254545	8.151632523636364
O	-6.610716060445455	-2.6205845382545454	4.509443793636365
O	-9.619395760445453	-1.7614287082545457	2.4123211136363643
O	-8.385915710445454	0.6010591557454545	-0.2533900453636358
O	-10.012886000445453	1.9754865377454545	-3.3831408763636355
O	-12.170222290445453	4.583666591745454	-1.709677596363636
O	-14.405530790445454	1.8378132527454545	-0.3518971233636358
O	-13.646021590445454	-0.8251963882545454	-2.965672976363636
O	-5.148901430445455	3.6001724217454547	-9.435303316363637
O	-5.223729830445454	0.46223779874545445	-11.631104946363637
O	2.688567379554546	-0.6438592982545455	-13.504621646363637
O	-0.01800453434545435	-0.8917766382545453	-10.767798046363637
O	-2.029306210445454	-4.100737108254545	-10.421368646363636
O	-1.9169479204454545	-4.546996468254545	-6.641689646363636
O	-3.953538350445454	-7.263227148254546	-4.917761246363636
O	1.0501782995545457	-6.481640408254545	-2.8653016663636355
O	5.472382299554545	-9.453122538254547	-4.236462186363636
O	6.223100959554546	-7.497647648254545	-7.400598316363635
O	8.465444619554546	-4.490427438254546	-6.970281706363636
O	10.697751209554546	-4.888606018254546	2.221582523636364
O	5.059672139554546	-0.7299611382545454	4.9657528336363645
O	3.419750679554546	2.0380518957454545	7.0110087236363645
O	6.493688909554545	4.179958831745454	7.549503963636364
O	9.108212839554547	1.5578106537454546	7.3920464736363645
O	11.308918409554547	-0.34947038825454557	4.968541413636364
O	13.427438209554547	-0.057328618254545605	1.906910203636364
O	16.316179009554546	-2.1342131782545457	0.6075357396363642
O	10.096898209554546	2.5523343317454543	-5.303147096363635
O	8.109619889554546	5.381789511745454	-6.803799426363636
O	5.838903959554545	2.9274221517454544	-8.666246426363637
O	6.1230902395545455	-0.3334685382545455	-10.550138046363637
O	3.931592479554546	-2.791678238254545	-8.568874026363636
O	2.541536269554546	-6.032941408254546	-9.883905446363636
O	1.8350903195545456	-8.236662318254545	-6.869423636363636
