89

O	-5.1207784510100005	0.10908470704800055	2.4142812657558
O	-3.77392061101	0.4120051290480006	2.6430770757558
O	-3.15928005101	0.2705231640480006	1.4440006857558
O	-2.78526376101	-0.9475908919519995	1.0109895257558001
O	-2.01350309101	-0.9847856019519994	-0.08251534624420001
O	-1.06122667101	-0.04868996195199937	-0.13734468424420002
O	-1.53442434101	1.1615947750480005	0.09058491975579996
O	-2.63978454101	1.2925239440480005	0.7842166557558
O	0.12547378998999992	-0.12576884295199942	-1.3709989742442001
O	-0.03907461901000009	0.9216994200480007	-2.2897763042442
O	0.1698326939899999	-1.5309279319519993	-1.6378314742442002
O	1.6710166389899999	-0.0019627249519994505	-0.6795653622441999
O	2.18188430899	1.1385313480480006	-1.0443552392442
O	1.74243601899	2.0043987180480007	-0.003281806244199992
O	0.4588655599899999	2.3889111180480005	-0.050985949244200024
O	2.93758246899	2.1471115380480006	0.7342597657558
O	1.1703435389899999	-0.15842229795199947	0.5461776837558
O	0.66038417899	-1.5382735919519992	0.6130149157558
O	0.16292295698999992	-2.0201188119519995	1.7429527057558003
O	2.07329385899	-2.1450731619519994	0.6586496197557999
O	2.65167922899	-1.7281768719519994	1.7626684857558002
O	2.8033253389899997	-0.3449565819519995	1.9842138157558002
O	1.8133382889899998	0.12122669504800054	2.9651260457558
O	3.88592857899	-0.21333611495199944	2.6049392057558003
O	0.5903757789899999	0.7589542362780006	2.6720550257558
O	-0.6796552330100001	0.38403321204800056	3.1870798957558
O	0.5883715389899999	2.1398890480480004	3.0269839657558
O	-0.73502394001	2.8374521480480004	3.0045827457558003
O	2.84467498899	-1.8627403219519993	4.1107820557558
O	2.02000158899	-0.6779097519519994	4.0549869457558
O	2.09085972899	-2.8167900519519993	3.8469919957558005
O	4.274217468990001	-2.2863892219519992	4.2743544857558
O	2.86004734899	-1.5513086219519994	-0.44688446424420003
O	4.59783144899	-2.3315801419519993	0.6215210437558
O	5.85470235899	-2.3316825319519996	1.1324933857558
O	6.53047130899	-1.1637776919519993	1.1640380357557998
O	6.05004224899	-0.13811350895199936	0.40467634175580003
O	4.92576736899	-0.2879914419519993	-0.3539394116442
O	4.08583763899	-1.1177231719519993	0.17851379675579998
O	-8.21565095101	-7.976049091951999	-6.9166340242442
O	-6.92390886101	-4.405533481951999	-6.8775815342442
O	-4.49742812101	-2.9696532119519996	-9.4045555042442
O	-2.0133254210100002	-1.2669189019519993	-7.2452416042442
O	0.9330965689899999	0.7076408356480006	-8.6954049342442
O	2.48478527899	-2.2588977519519995	-4.6081506442441995
O	4.351492208990001	-7.306237381951999	-4.8126266242442
O	1.29073389899	-9.282052711951998	-5.5714232442442
O	-0.34991168001000006	-10.457041411951998	-2.3160875042441997
O	7.150086448990001	-8.577038251952	4.1027116857558
O	4.095726268989999	-3.480671381951999	7.0182576357558
O	2.74941204899	-0.6473812319519994	9.2129697157558
O	4.5097278989900005	-0.6050579619519993	12.3633921857558
O	4.494248438990001	-9.556204611951998	8.6281872657558
O	-2.96476747101	-11.201947911952	5.8256938757558
O	-3.41357052101	-8.497631001951998	3.2823251657558
O	-6.36945249101	-6.293094491951999	3.6799268357558
O	-7.357030581010001	-7.053565441951999	0.0335090887558
O	-6.104711601010001	-8.986477021951998	-2.9086151942442
O	-3.60453103101	-6.835137421951999	-4.6882157842442
O	-1.85459677101	-7.041796371952	-7.9895436542441995
O	1.47021820899	-5.291263921951999	-7.6328974442441995
O	4.12626275899	-4.1612979119519995	-10.0856479142442
O	5.724871578989999	-7.548742791951999	-10.4217233142442
O	1.48216884899	-5.280000681951999	-13.6346185142442
O	6.18652883899	11.294851788048	-4.3204800742442
O	4.802222508989999	7.893034158048001	-5.5058837942442
O	1.82017591899	7.7308287080480005	-7.8625296042442
O	-0.2537421080100001	5.033489158048001	-6.1154703242442
O	-3.47602585101	3.6530586080480005	-7.7138762042442
O	-3.91274746101	4.391117478048001	-2.4077918642441998
O	-6.008468061009999	8.902702058048	-0.0576700922442
O	-2.84454264101	10.945043188048	-0.3100118010342
O	-0.4317132895100001	10.753932788048001	2.5688098457558
O	-5.19397329101	4.913562528048001	8.4440968757558
O	-2.55476519101	-1.8617322219519994	6.0829945657558
O	-0.80888323901	-5.016154751952	6.2041322657558
O	0.5477767489899998	-4.733410651951999	9.7571891857558
O	-1.87365268101	-2.2504208019519996	11.1252901857558
O	-2.5886707010100003	1.4753660680480007	11.4363422857558
O	-0.9774191700100001	4.861638508048	12.0589662857558
O	-2.31198652101	8.182354048048001	13.2271371857558
O	4.9188070689900005	9.233731478048	9.9139407857558
O	5.107601288990001	7.705381168048	6.5657451157558
O	8.37596779899	6.674947438048001	4.9030758057558
O	7.136075168990001	7.801013588048001	1.4621148357557998
O	5.053914938989999	10.667850268048	0.03758744975579997
O	1.97352812899	9.074581058048	-1.6321198942442
O	-0.3051012090100001	10.431047768048	-4.2351896842442
O	-3.5748519510100003	8.514238098048	-3.9644053542442
