56

O	18.46328401910022	-2.52761316901685	17.95127842989515
O	19.24254691952014	-3.5708015624679943	18.166161870559275
O	19.381663715528592	-4.142918382509877	19.371931215663466
O	18.624306722357197	-3.6329748108267808	20.36014655749737
O	17.762865518920684	-2.6479640792680756	20.122586991696814
O	18.149768553072505	-1.8614495894075813	19.06692453979032
O	20.43270872354262	-1.1790384155192972	20.933975929089854
O	20.750974734979895	-1.7204183899773415	22.079771469595844
O	20.38995015906176	-1.0776438355910023	23.276382987268246
O	20.178299159182803	0.26967526663203345	23.200292279175358
O	19.22977990157078	0.4876350640260896	22.25667350182261
O	19.29196379130807	-0.40659459396183206	21.256635582483632
O	21.051915008793	-1.530459490649343	19.761903933547302
O	21.311231762181507	-1.8124040757666016	18.57912557593187
O	21.57741273809668	-1.2151711738362514	17.495215938502618
O	22.31363883639587	-1.3968002892350155	16.367490257286313
O	21.414131632321574	-0.6834219889956636	15.476094812383048
O	20.0825135585735	-1.0365990875624398	15.635334741553047
O	20.24316027261814	-2.5387147226121574	15.695620473474335
O	19.248748432492246	-2.9290382678006073	15.066646141275273
O	21.362924949739917	-3.105893754433875	15.240793653619503
O	21.394546518049815	-4.491483128827465	15.359815826601526
O	20.2712652624519	-4.842557081963399	14.548428550838256
O	20.499100150251824	-5.799507072354359	13.466398096480214
O	19.162816414678755	-5.349271509270314	15.33181973444327
O	21.55399003159404	-4.450445436840189	16.803270360078596
O	21.37469234934907	-5.5375039019005605	17.224780067277788
O	22.725490579040006	-3.9198331435506137	17.35463510178281
O	23.10213937328919	-3.704661689701333	18.623637763970223
O	19.578500887906642	-1.1980841080565514	16.826771104263724
O	18.468084642785016	-1.7416471421114257	16.781418616277477
O	21.815638024987596	-1.3175492037260153	14.313664528123248
O	23.46572131435883	-0.6125917519426507	16.555882968832034
O	21.477387587300598	0.23062073524957416	17.699102755768987
O	20.97601256687325	0.9865855509888564	16.85242634290994
O	20.47693216195495	0.22871556173049878	18.66629614478333
O	20.644932505907164	1.3846733933794335	19.35799473827451
O	19.731359111476287	2.020452466240836	18.56049309653555
O	19.27276282786651	2.590459418614363	19.843718154436203
O	18.582793319407372	1.2321273531119845	18.10604140352538
O	21.698128260400736	1.3935810115495204	20.238379902667674
O	21.746926807516736	2.1289427342013028	21.162055847446684
O	22.79580357304795	0.5900940243195827	19.762910374504514
O	24.012523573349885	0.8836947078682045	20.376869377415826
O	23.754134260002264	0.7350064020654561	21.756217900181525
O	23.896796828131563	1.757769267377862	22.62267026509097
O	23.162259744721162	1.626436105828087	23.809992124783335
O	23.174773021249823	0.37493261326183913	24.3469966076639
O	23.58775875754759	-0.6482778077242783	23.536282690996686
O	23.255390997615674	-0.35302810380230665	22.22462899052866
O	23.87236630848604	-2.8121152842810515	19.409986568465225
O	23.736593469907817	-2.9942967309966506	20.79838152361235
O	24.87597257409902	-2.8399729615921463	21.57824899673834
O	25.81931510508397	-1.914910251263407	21.24247375225258
O	25.78010568315335	-1.6748399704733345	19.91329916166878
O	24.680734564356847	-1.8255862984120383	19.130142436797847
