48

O	21.750535412946615	-1.9842981566126763	18.795872565861927
O	22.04117080739242	-1.3237878020369065	17.563739251408926
O	20.237554891087154	-0.4066807024501762	20.977449704798076
O	21.49280149133631	-1.0875632552620464	19.71257097186066
O	21.295381642883825	1.372358093623845	20.652507812118106
O	20.544422762003677	2.7541159143445144	18.305330384237344
O	21.41596377105356	-0.06751254492080005	20.604102763151683
O	20.845230776853565	-0.21739016480442785	18.749033853351506
O	21.243759963574952	-2.198675051609621	15.050997618606427
O	21.54248309234159	1.9452687175384071	21.90960302671258
O	20.344481245790828	-2.763458721212201	16.84972236271522
O	22.896742046862663	-3.7540275250980724	16.05434309283832
O	22.751591103799633	2.8545235539155023	22.105755381480947
O	23.977983600073742	-0.9161012497055618	22.285795904201386
O	20.62307411429653	2.9318189164783073	22.5652970862531
O	24.870744449074508	0.7355498279578938	21.19688154891407
O	21.559668030892215	0.9499501402191923	23.082507128972775
O	21.926536510821567	0.7698807950610245	18.64908236524695
O	22.465941681928946	-0.01526470384089662	17.748746168982517
O	19.76714979303285	0.6390487267777594	19.109525424137516
O	20.19474924824741	1.5067562868688469	18.021925762516556
O	20.624896708907603	0.8359839804963183	16.79578196615056
O	20.114289406530133	-0.4368450843039535	16.329416783980996
O	19.02075595274149	-0.5013229137528687	17.227226921934353
O	18.70518272960916	-1.8245461285771438	17.624066906069988
O	18.553184837733294	-2.2028974575256446	18.902972133023315
O	18.372504603983064	-3.5073849096682763	19.116783316520454
O	17.75774091301669	-4.187996963366915	18.10981597368794
O	17.215345550723637	-3.5242153118410577	17.06698740917864
O	17.838120590481584	-2.3660552705266658	16.775281820136218
O	20.46497372551783	-1.7331888377426456	15.906980996471939
O	20.688924467014903	-3.9930146094218344	16.689680221691955
O	22.01301340197365	-4.401921718720256	16.86270713878718
O	22.043547599190166	-5.618641581825781	16.004366841612008
O	21.411839351087032	-4.9229226893305915	14.768490954487051
O	21.039315606137297	-5.696234182068041	13.664059499020254
O	19.810214413850055	-6.271466938850204	13.687834831166377
O	18.88087556528233	-5.742404709794138	14.583057204161992
O	19.200209582755754	-4.379863441436981	14.763652399719486
O	20.445891876279642	-4.164565630796915	15.243982151049828
O	23.284807984122857	-1.466772029729249	17.123603265536584
O	23.787469271332753	-1.4382728922038588	18.468172097590966
O	23.806736727204814	-2.595406666210838	19.097993158389407
O	24.53552401015035	-1.4323353813668778	21.105538944921577
O	24.71911368234156	-0.30007006420485194	20.32075893477909
O	24.36704348316406	-0.3420699243291889	18.973678342230425
O	24.38292051034542	-2.5675873347172637	20.375240919138022
O	24.791284362490018	0.23677704227819762	22.501243749768378
