65

O	-0.4401170354081635	-2.081447470624489	-0.6494328433183674
O	2.6732314015918366	-0.25014869162448927	-0.36773867231836743
O	2.141144401591837	0.7370531533755108	-0.8031941413183674
O	3.0299045815918366	0.5691192838755108	3.1092238546816326
O	-0.4664053094081635	-0.7492818506244893	-1.2878343853183674
O	1.0525024515918364	-1.954293890624489	-0.32376063691836743
O	-0.4830685094081635	-3.058320060624489	-1.7267093453183673
O	0.6321334345918366	-3.342018200624489	-2.6043331753183674
O	0.035452354591836516	-4.176355290624489	-3.746607935318367
O	1.5210567715918364	-4.280469120624489	-1.8390361953183674
O	1.6413233115918364	-2.853441650624489	0.45521495168163256
O	1.6322018615918366	-1.671321090624489	-1.5379957553183674
O	0.8888537395918366	-0.8188076706244892	0.6429787756816325
O	2.2425923815918365	-0.6552285706244892	1.0339780146816326
O	2.7429178215918366	0.40206970637551076	1.8283541546816324
O	2.7082348315918368	1.681031519375511	1.1634310146816327
O	0.7873846105918365	12.51830981937551	-0.32134920031836745
O	-0.8001346384081636	9.53384300937551	1.4154890446816326
O	-4.468305838408164	8.60524919937551	0.8298599346816327
O	-4.042223518408163	4.846526149375511	0.30142302468163257
O	-7.139556538408164	2.702968289375511	-0.16701033911836743
O	-3.4927088984081633	1.281141546375511	-3.7511668753183676
O	-2.749111598408163	3.284369879375511	-8.603032005318367
O	-1.4022913984081635	6.671372349375511	-7.782762685318368
O	2.3947799815918365	6.689760679375511	-7.599899655318368
O	4.011247581591836	-2.253013080624489	-11.682130495318367
O	5.921467951591836	-4.738697490624489	-5.867259015318368
O	7.3565134515918364	-6.710347010624489	-2.9424835453183675
O	10.656859261591837	4.6452223093755105	-6.653675115318368
O	7.866037061591836	4.773281319375511	-4.189279435318368
O	8.511052081591837	4.9894013793755105	-0.4187905943183674
O	6.153979541591836	8.05108746937551	-0.31418228791836744
O	3.716831731591837	9.81368610937551	-2.6218076953183673
O	0.49389749559183654	7.796788649375511	-2.7232436953183674
O	-2.944527478408163	8.59913330937551	-3.978105535318367
O	-4.567930938408164	5.346010989375511	-4.965624495318368
O	-8.109810528408163	4.355550149375511	-5.8695195853183675
O	-7.970783238408163	5.610500569375511	-9.438365985318367
O	-8.024330998408164	9.17129029937551	-8.132785655318367
O	-9.678524628408162	8.51802137937551	-4.749286685318368
O	-9.104649358408162	-8.84201694062449	3.8500747646816325
O	-8.355952078408162	-5.393321080624489	2.3413929746816327
O	-9.179316448408162	-2.274633020624489	4.397417214681632
O	-5.899931708408164	-0.3393811736244893	3.7755661846816326
O	-5.542466358408164	3.271605129375511	4.982653594681632
O	-1.0535406714081634	0.5721299259755108	6.070179634681632
O	0.1945866835918365	-2.2483506406244893	10.339558804681634
O	-2.0309093284081636	-5.2862368706244895	9.728563354681633
O	-0.4419454314081635	-8.07573539062449	7.726414604681632
O	8.260222681591838	-4.755902450624489	6.468830744681632
O	7.303411981591836	-1.0852699806244894	0.20781307068163257
O	7.825751231591836	-0.4985282206244893	-3.4720966353183673
O	10.043408861591837	-3.3387277406244893	-4.413471685318368
O	11.528550061591837	-4.034203660624489	-1.0691699873183673
O	10.846453961591838	-5.967799370624489	2.0928451146816327
O	9.594711551591837	-9.25041755062449	3.4303552546816327
O	10.154582061591837	-11.08022278062449	6.675017494681632
O	1.6741939815918365	-11.79757168062449	1.6985632946816327
O	-0.7793873754081635	-12.56706108062449	-1.1044932993183674
O	-3.5375603784081635	-10.50221998062449	0.5680324756816326
O	-4.750252128408164	-10.01170738062449	4.0746192446816325
O	-4.311716548408164	-6.317289180624489	4.961613784681632
O	-6.140933748408163	-4.479118010624489	7.662528524681632
O	-4.050468948408164	-1.451774840624489	8.625629044681633
O	-4.726653058408163	1.6522966993755106	10.606551004681632
