51

O	20.503498212611326	0.790083678606345	20.125330302642567
O	20.01116520894778	0.03652578523489147	19.058213268019227
O	22.29540515380295	3.658116994789847	19.26065710927708
O	24.436129250639354	-3.351922273061103	15.673370907070689
O	19.60269403889956	2.0234645908160114	18.42863383744713
O	21.978419706909897	-3.997643352293195	13.423214327558863
O	19.73475150576474	-4.306863797474495	12.881507511961962
O	21.11382142361512	-6.1236145039184855	12.129322929492503
O	24.205536105907665	-2.932938345918263	20.801779535424277
O	21.109413578252216	0.003573049031018627	23.150357834410222
O	24.42718235918392	-1.6529170007552536	20.521794759723523
O	23.53362953658239	-3.706238798926369	19.930612925548452
O	19.82528106547474	-0.4581696304765128	23.084190630073657
O	22.008406939707683	-0.9039292823340688	22.599812960623723
O	23.934508373322505	-1.28599072220254	19.336758248436595
O	23.22601697061571	-3.2237182899255643	18.71496541580386
O	19.47388719308442	-1.4602728513592846	22.19837365507378
O	18.29969136912121	-2.9270305138325963	18.502005756151842
O	20.057078270958296	-4.213726353894588	18.428899835037576
O	18.656269050262715	-2.437385504900171	19.69000487539644
O	20.406651151564994	-3.7436378220908364	19.60253733062767
O	21.04121948803095	-0.7483750784807994	18.46565506498165
O	21.948958569836588	0.02866579772735145	18.163189972330397
O	22.54660020846547	1.0724684457434002	20.31518637936206
O	22.257484337861253	-5.206173401050188	16.610142129202053
O	19.906233576943	-5.594940876596159	15.989197038504214
O	22.46453356206679	-1.276734343067507	14.99783555193515
O	19.646319019540652	0.758375601695219	17.765532558640487
O	22.942982207373742	-1.49995117637986	17.245595794781675
O	18.77357347269638	-3.3742709913852544	16.391182646893665
O	20.2302642471987	-1.7634758190703188	15.043775991503711
O	21.651327909690213	1.4912170262768965	19.493421666294093
O	22.565344260446807	-4.885380333364941	15.410191276989291
O	20.189324247230005	-4.840392750769267	15.043296181626777
O	22.91314679889547	-1.9457514812257597	18.676161643565457
O	18.915052715187535	-3.930418497829032	17.822525721753358
O	19.771647288505914	-2.8439198858951755	20.308369302055713
O	20.388430409458508	-2.130029451082618	21.386612173281307
O	21.554689734493103	-1.7694474132773845	15.628998357457421
O	21.673958214252135	-2.2795259219567425	16.907960338937606
O	20.8407697405034	-5.821236262346652	14.161211583903452
O	21.048037599860326	-4.930475596714436	12.984791812948508
O	21.547133972930737	-1.5283848873838783	21.47872903118341
O	22.091412741739322	-6.106498654009714	14.75824343318147
O	20.64428181409901	-1.4276742748972828	17.351274620333257
O	20.73423056173703	-3.6813196578842944	15.378187019948303
O	19.752660411870213	-2.753184760949628	15.822607571640447
O	21.599191598480893	2.803875147999276	20.167929834921836
O	23.71204207104283	-4.423867234128208	15.871913810731966
O	20.621882635152176	0.8751799905633342	16.71965488841581
O	18.704804132403282	-0.18753275659828894	17.29043344229312
