89

O	-0.7870127551162789	4.335769398186046	-5.509198581488372
O	0.4386140548837212	4.6705471581860465	-5.989660071488372
O	0.07224300488372115	1.6022330121860462	-2.6409375494883722
O	2.637904884883721	2.8968843181860464	1.1908387385116277
O	-0.7202777571162788	3.444069998186046	-4.421367491488372
O	2.575804534883721	1.7607679951860462	-2.3426037044883725
O	-1.063267362116279	-2.167839471813954	-0.9774953314883723
O	-0.9009561224062789	-3.6091494718139536	-5.564612231488372
O	0.4453469048837211	3.390554038186046	-3.6289119914883723
O	1.5921214348837212	-0.3862175518139538	-1.0938629514883724
O	2.686611214883721	-0.2690851218139537	-3.2646318314883724
O	1.5066670548837213	4.303731368186046	-3.9659058514883725
O	0.2317979048837211	-1.9432150118139537	-3.7179320914883727
O	1.4535350248837213	-2.522510701813954	-1.8957528264883723
O	1.5993264748837213	4.656689678186046	-5.281825831488373
O	-1.201466397116279	-3.867721271813954	-3.2222969914883723
O	-2.887623975116279	-2.358458961813954	-3.4506889214883723
O	0.5807949448837211	2.812318438186046	-2.4006489504883723
O	1.2577074548837213	1.3676084531860462	0.20023701851162778
O	0.7180832548837213	3.702319688186046	-1.4069356064883722
O	1.567122784883721	4.757587948186046	-1.5707283034883723
O	2.086055204883721	4.976434598186047	-2.8723088334883724
O	0.6085539248837211	0.6883645331860462	-3.3957626114883723
O	1.9852952948837213	0.6883070241860463	-3.0158540424883724
O	3.4016155748837216	2.703950628186046	-0.32239196148837235
O	2.068702054883721	0.7565325841860462	-0.4464589914883723
O	0.3938159748837211	-0.8212918318139538	-0.5671275014883723
O	-0.4295652031162788	-1.2453276818139538	-1.6788813794883723
O	-0.33682700111627883	0.0786394511860462	0.1983506785116278
O	0.38942267488372106	-2.181885971813954	-2.3172984984883724
O	-1.064219294116279	-1.5883993818139541	-4.162349301488373
O	-1.4820149461162788	-1.9315385618139538	-5.558672231488373
O	0.43159264488372107	-3.0511646918139537	-4.546371831488372
O	-1.730772188116279	-2.607767221813954	-3.4013886014883723
O	-1.9737252851162788	-4.984809711813954	-2.7723049224883725
O	-3.4085664851162787	-4.602065691813954	-2.9521570864883726
O	-1.5572929141162788	-5.267958811813954	-1.3713350864883722
O	-1.7839474751162787	-6.235920801813954	-3.5571563914883724
O	3.1346240148837214	1.5023303961860464	-1.0875479114883724
O	1.127242694883721	3.343299628186046	1.8275342485116277
O	-1.2607654721162789	0.7718507231860462	-0.6995404214883723
O	-2.1429038651162786	0.16892673618604614	-1.5914816784883723
O	-2.7667173251162787	0.8516108941860462	-2.584773606488372
O	-2.917559105116279	2.172631878186046	-2.2853485280883725
O	-2.395370375116279	2.759054278186046	-1.1981646214883723
O	-1.7308301941162787	1.9702206731860463	-0.28648898148837243
O	6.458708294883722	-10.726467261813953	-0.36460157148837236
O	3.4405147148837214	-9.064643861813954	1.1983576885116278
O	3.088664584883721	-8.389150491813954	4.895871778511628
O	1.9316565748837213	-4.832204051813954	4.824514888511628
O	1.1643647448837213	-3.020948311813954	8.105836078511627
O	3.917780694883721	-0.04544595181395372	4.829513498511627
O	9.473568834883721	0.5490464621860462	4.915728248511627
O	10.356709634883721	-2.672607591813954	3.227910458511628
O	10.519638934883723	-2.202412821813954	-0.5760393214883723
O	10.08348673488372	7.955902048186046	-1.2969406354883724
O	4.046576394883721	7.7470072981860465	-4.227420061488372
O	0.6506349948837211	8.474323478186047	-5.874269061488372
O	9.575617734883721	0.2931419101860462	-8.772962051488372
O	7.287163934883721	-1.225395081813954	-6.337519381488372
O	4.206620864883721	-2.980529551813954	-7.597960471488372
O	5.206892834883721	-5.964337221813954	-5.344674401488373
O	7.64333385488372	-6.9554510018139535	-2.734444503488372
O	6.573219694883721	-5.619012791813954	0.6105518585116276
O	7.573464114883721	-6.176465371813954	4.099235988511628
O	6.8405643048837215	-3.0902072218139542	5.998451858511627
O	-4.681510645116279	3.246051758186046	9.572765578511628
O	-5.1310309551162785	-0.5110546818139537	9.913961578511628
O	-3.5708520451162786	-1.688981351813954	6.615325428511628
O	-3.070961315116279	-5.454238461813954	5.9459944485116285
O	-4.944535185116279	-3.029674231813954	1.5409694685116277
O	-10.17288515511628	-2.2015953518139537	0.13709262851162762
O	-10.994146965116279	0.6272756221860463	2.6198111985116275
O	-9.225985115116277	3.938366998186046	-10.219065441488372
O	-6.913987675116279	2.7175817081860463	-7.624964431488372
O	0.5714344848837212	1.5646692361860461	-6.962840011488373
O	4.067212044883721	2.9944056281860463	-6.674853851488372
O	3.7239596048837216	6.197421448186046	-8.519484831488372
O	0.5297978548837212	5.589074298186046	-10.415189701488371
O	-3.2652612351162786	5.856077128186046	-9.825349881488373
O	-5.982718045116279	8.080769518186047	-8.411791741488372
O	-6.165797325116279	10.235551418186047	-0.15393276148837254
O	-4.059612815116279	11.759079938186046	2.5835760985116276
O	-5.056404055116279	9.061840518186045	5.114685578511628
O	-7.254817725116279	3.375312668186046	5.4481918485116285
O	-8.936015385116278	0.3529466781860462	6.830121678511627
O	-8.275462595116279	-2.503555651813954	4.361062908511627
O	-8.790262065116279	-6.194306851813954	4.785319528511627
O	-12.439340165116278	-6.067160591813954	3.7594537985116276
