106

O	1.0982727886470591	-2.131862823049019	1.8644372015647057
O	1.834410858647059	-2.7381722930490193	2.7938769215647055
O	3.951769778647059	-5.287100253049019	3.8257069615647064
O	-1.503727241352941	-4.6006460930490185	-2.907360278435294
O	-0.806790787352941	3.271625956950981	-3.194813748435294
O	-3.185077511352941	1.4384614169509808	-2.5825479884352944
O	-3.012743541352941	0.8903612919509809	-4.560334058435294
O	-3.3300378113529407	-0.966457223049019	-2.734407758435294
O	4.876175458647059	-4.910777133049018	2.716049411564706
O	-0.5803907443529409	-3.5860256830490194	-3.4957494384352943
O	6.007375228647059	-4.309740943049019	-0.32721363943529413
O	6.946540428647059	-2.331036853049019	0.35987349156470594
O	4.702135898647059	-3.7991488930490194	-0.3158375134352941
O	5.713551048647059	-1.7660092530490192	0.2091395615647058
O	0.507905565647059	-3.6954044030490194	-0.09601243443529417
O	-1.244589951352941	-2.7831895230490193	-1.169137002135294
O	0.275224117647059	-2.5816511330490193	0.5759441115647059
O	-1.6223791913529408	-2.1208827030490194	-0.12204464443529417
O	2.124604828647059	-0.9687027230490192	-1.720453719435294
O	2.924724088647059	0.1435461529509809	-0.004418338435294045
O	2.678454058647059	-2.046847633049019	-1.210578575435294
O	2.735360218647059	-3.7241067230490192	2.523103671564706
O	2.739281908647059	-4.568434303049019	1.6731550215647057
O	1.176919558647059	1.031266690950981	-3.897070998435294
O	0.420605778647059	-0.8326669720490191	-2.844303198435294
O	0.172845423647059	-1.0051768830490193	3.2946520515647064
O	-0.419296160352941	1.0581388469509807	1.7038177515647057
O	0.713578966647059	-3.008855173049019	3.7031067515647065
O	3.179528078647059	-0.9514263030490192	0.6425268515647058
O	5.119854318647059	-3.456040053049019	2.9764909115647065
O	-1.438800351352941	0.2476685759509809	-0.32024541543529417
O	0.476276922647059	-3.588783423049019	-2.453031948435294
O	-1.009237438352941	1.6353557369509808	-0.28968734243529415
O	-0.17222649535294102	-0.4573002700490191	0.04363133156470589
O	1.467144318647059	1.3437613369509809	-0.6793674634352942
O	-1.213560551352941	-0.958637163049019	1.583421141564706
O	0.06262393574705899	1.2878739869509808	-3.524378738435294
O	-0.652413309352941	-0.44146756104901913	-2.2864449184352944
O	0.746339720647059	-0.9157666730490192	2.1310137715647057
O	-0.123414062352941	-3.4532472530490192	-1.2027559004352941
O	2.142764298647059	0.11258433855098089	-1.0774631627652942
O	-0.9093723083529409	-2.2671808930490194	0.9862914915647061
O	4.644617758647059	-2.5403898330490193	-0.03515817843529412
O	3.235313208647059	-2.047204293049019	-0.04584284843529418
O	-1.456381711352941	-0.3756676530490191	-3.4176561284352944
O	6.938131738647059	-3.6851535330490193	0.3794717215647059
O	3.829402008647059	-2.9157738130490194	2.9999422815647057
O	-0.731627069352941	0.3669414349509809	-4.406443448435295
O	-0.011700193756241003	0.5476528919509809	-1.7560160204352941
O	-0.020232145082941	2.536133916950981	-4.081369358435294
O	0.402089235647059	-4.333142413049019	3.140958711564706
O	1.592647288647059	-3.315513143049019	4.779910751564706
O	-2.724338601352941	0.2798807419509809	-3.186846368435294
O	0.009595012247058998	-0.08507926104901911	1.280361531564706
O	0.23283309164705898	1.4702010369509808	-0.8768333074352941
O	3.268812618647059	12.45128079695098	-1.878733696435294
O	0.333177808647059	10.29786269695098	-0.7410920624352941
O	-0.966759647352941	10.12045299695098	2.794348321564706
O	-1.340981441352941	6.477713016950982	3.250369831564706
O	-2.6042646313529407	4.955983406950981	6.548721691564706
O	1.653702808647059	2.4837921769509808	4.554219331564706
O	6.786578678647059	3.216338826950981	5.941630751564706
O	7.450019338647059	6.253370076950981	4.070229731564706
O	8.878429858647058	5.362673116950981	0.6600599515647059
O	11.357508918647058	-4.023182073049019	1.695112851564706
O	5.9003114286470595	-6.270716183049019	-1.9552351474352943
O	3.391850028647059	-7.908516113049019	-4.031639668435294
O	4.797957958647059	-11.30421240304902	-4.816637348435294
O	12.168695918647058	-5.472176163049019	-3.2358311584352943
O	10.814541918647059	1.5497964969509808	-6.855805948435294
O	7.670190378647059	2.597495756950981	-5.219003898435294
O	4.925521588647059	3.187369816950981	-7.443472968435294
O	4.591803158647059	6.715761306950982	-5.837640318435294
O	5.7755576786470595	8.71209814695098	-3.040032078435294
O	3.989259528647059	7.607090756950981	0.03987611156470594
O	3.908084488647059	9.03346061695098	3.518047541564706
O	3.270637598647059	6.006748726950981	5.689218011564706
O	2.471196688647059	5.916163376950982	9.420737961564706
O	5.986097518647059	6.524447706950982	10.645245961564706
O	5.636621338647059	10.09608439695098	9.646848961564706
O	1.8356091486470592	10.35622289695098	9.782890661564705
O	-9.853696511352942	-5.297411813049019	8.083619851564706
O	-7.370723101352941	-2.3619453630490193	7.686436711564706
O	-8.544321111352941	1.1362588769509807	7.124610501564707
O	-6.332248461352941	2.2262257269509806	4.295278271564706
O	-6.322897231352941	5.763127286950981	2.8955509415647063
O	-6.019035911352941	2.030848646950981	-0.6739190354352942
O	-10.221613281352942	-0.03475452754901911	-3.769801048435294
O	-11.247929481352942	-2.5388693030490193	-1.1697052252352942
O	-9.548000381352942	-5.9114970230490185	-1.3998510294352942
O	-5.131239061352941	-7.376283433049019	-11.997157538435294
O	-4.059653361352941	-5.158971143049019	-9.104262018435294
O	2.184095018647059	-2.3073598630490193	-5.837130278435294
O	5.642226348647059	-2.255025213049019	-5.026889628435294
O	6.736934088647059	-5.6697906230490185	-6.343438298435294
O	4.113203648647059	-6.143177833049019	-8.833648238435295
O	0.6190717636470591	-7.435790713049019	-9.342006108435294
O	-1.841256011352941	-10.14598770304902	-8.414007898435294
O	-4.996318291352941	-11.51656520304902	-10.022871548435294
O	-4.199234841352941	-10.911950703049019	-0.3049554924352941
O	-2.849370131352941	-11.43229850304902	3.0923175315647065
O	-5.051285741352941	-8.65941964304902	4.5411302915647065
O	-8.536719801352941	-7.394151343049018	4.270918241564706
O	-8.179540971352942	-3.787562513049019	3.0698381315647065
O	-10.864753581352941	-1.1582698330490193	3.3135947915647064
O	-10.075854281352942	1.3972175769509807	0.663914741564706
