66

O	24.261233307431215	-1.7272362297861787	17.77550101404187
O	19.668254442240176	-1.698004378181921	20.98368859819068
O	24.42193213440025	-1.8966269312230257	19.181924746080767
O	21.424497528477314	-4.495322630858938	12.856010994751124
O	21.11147892043965	-6.390627829365068	13.698765726888235
O	18.56144260066866	1.6617159701657271	18.751860699021723
O	20.54245968127108	2.4715103857774556	18.453791354010637
O	20.678638177709846	-1.5980522631881515	15.481507669989753
O	21.024525805316358	-2.603211562545438	16.179437561943413
O	22.088809206318572	-1.8357253162126246	14.129664375410997
O	22.07827225990846	-1.1585446305720728	15.292859925112475
O	21.725024041268185	-4.6902527511434835	16.669603421732784
O	22.933581112590463	-2.923149118865332	16.119626050170464
O	19.924975947202398	-2.147668445607529	14.369033865795005
O	19.624015758785713	-3.2929820025077223	15.074445320364127
O	21.530796982812973	-3.2433943069496234	19.63774567166456
O	22.656696663190115	-4.38013710564466	18.056250493467907
O	19.197112978939682	-4.318913823900614	14.638359106569592
O	19.19429364114484	-5.585125302150396	15.134117850606765
O	19.37422841170997	-5.73221261747123	16.418965928064075
O	18.69587206272384	-4.693524749390734	16.83756512021821
O	22.529848780910644	-1.7071379028553113	19.808145473898684
O	19.078851991980848	-3.572381831907509	16.209894348518155
O	23.104567982359484	-1.992409185904938	18.02491587766005
O	22.07172286340283	-4.740788460767508	15.39871631212236
O	21.85108408723603	-3.388183500205268	15.624041565866438
O	21.739040263642394	-5.10452799639221	14.090288602719419
O	24.226949957478816	-3.045884015501911	19.847147666411935
O	24.42177807967898	-3.027674731318138	21.177997598328947
O	25.03939831853998	-1.933551576104824	21.625355659477165
O	25.17156873146276	-0.808073497959759	21.008203818590403
O	24.420311693959597	-0.8828508176140548	19.93835761980913
O	20.706813856374236	-3.1445591358118516	18.507447392708748
O	21.65838217068945	-3.8636452520456386	17.688649826177894
O	20.08470293826538	-4.049125954025364	19.317166406663212
O	22.30668760399563	-2.3607299729533895	18.970492691176936
O	20.690079331392667	-1.4098122929424113	21.886377130996657
O	20.239367418937547	-1.0206108820788042	16.103329982330866
O	20.546241275326697	-1.010386478447024	17.372190451898888
O	21.031855553250566	0.8708229074891192	15.677672836170993
O	21.04670596065552	-0.2915283185489099	15.198579985140846
O	21.353514528707173	0.26246118338064384	19.243218779536498
O	22.43897406474727	0.12566172441680634	17.354087813717
O	19.10744852624407	-0.21734918203575815	16.109292209684565
O	18.453777686047612	-0.8916342564197943	17.13821697769255
O	21.833500795946243	0.5464730879056396	20.793344757177845
O	23.26478729859195	0.9006322245558405	18.74807025761594
O	17.9357756678398	-1.9944845272521539	16.94182634621954
O	17.457196281574962	-2.863691275488344	17.822894957969442
O	17.648308679822318	-2.6711667109049104	19.098092911091957
O	17.932685953459572	-1.4134423829544924	19.32049160415354
O	19.791853714273703	1.2781434384735972	21.129407093136688
O	18.72947395241134	-1.121703427048534	18.317601279349134
O	20.015163497885144	-0.8160047783285117	20.243540185961923
O	20.411975594489505	0.2332470549016743	18.40282521629859
O	21.33131329468448	-0.12806485883530183	17.54896256676971
O	19.763641169223938	1.4389231944642489	18.071284338592193
O	21.974997713274746	-1.2859497484463462	21.94963037822321
O	22.737503352305723	-0.655093766771104	22.867364559705862
O	22.26389115300844	0.4834998408246376	23.400345177839817
O	20.940682589265602	0.42663184170629687	23.528818994781563
O	20.311753526838768	-0.3900907642971757	22.64091281513233
O	22.138948229582905	1.7367779342210448	20.410498663306804
O	22.232156490595155	1.2395707925183894	19.121811597716633
O	23.434322852394256	1.6524219132866664	20.858605015885068
O	20.452727230330904	0.38469370058017627	20.714788555682482
