105

O	-2.4437813415901966	-1.2428464035605886	3.3392973523784315
O	-1.6355433615901966	-1.5932779035605886	2.2823436123784315
O	-3.8642655935901966	-2.6892768535605884	-0.2460127886215688
O	-0.9545027335901966	-1.1866281235605887	-1.3639613476215688
O	-1.2698948875901968	0.47236611143941143	0.1829991483784312
O	0.0735558464098034	2.9869010464394115	2.2595625523784313
O	-2.6828403125901965	3.4347042364394116	-0.25776803662156883
O	-3.8250772735901966	-1.1439125335605884	3.672688372378431
O	-4.503719733590197	-1.7995373835605886	2.8748180323784314
O	-0.2621280235901966	-1.4529996235605886	2.5598761323784314
O	-3.5972053135901967	-4.120686433560589	0.07746305847843121
O	-1.9705900445901967	-0.2947053735605887	-1.9515520076215689
O	-2.4951535845901964	0.2810728784394114	0.0004384114084312052
O	1.5349420964098033	2.9786816964394114	2.0493759123784314
O	-3.4175720135901964	3.7227693264394115	0.9795405443784313
O	-3.3709057335901966	-0.6880416335605886	-2.1267491376215686
O	-3.838221513590197	-4.750244853560588	-1.1836328976215689
O	-0.22753626359019652	-0.5247690535605887	3.7704597523784313
O	-4.900447963590197	-4.196643453560588	0.7934287863784313
O	-3.5460202135901966	0.4953164104394113	0.8594398823784313
O	1.6905510864098034	4.187307356439412	1.2676512323784312
O	-2.3623713075901964	4.324000546439411	1.826560282378431
O	0.7857067064098033	-1.0322917335605886	1.8749975623784312
O	-4.741911433590197	-0.18602230356058858	-2.0432310976215686
O	-5.103583403590196	-4.1893476535605885	-1.6662007676215689
O	-4.8990337735901965	0.6810999674394114	0.9548990533784313
O	0.8550150764098032	5.234107786439411	1.834084142378431
O	-2.5230488265901965	4.116841396439412	3.235903002378431
O	-5.948462693590196	-1.0039941235605885	-1.897675367621569
O	-5.946405273590196	-0.29702645356058865	0.9582341433784313
O	-3.2336604235901967	5.240684816439412	3.7272321723784314
O	0.1197479764098035	6.228281796439411	1.1892110123784312
O	0.5160977064098033	5.095263916439412	3.0097609423784313
O	-3.1808845335901967	6.365636336439412	3.0700779923784314
O	-4.500246383590197	-1.8546135635605885	4.830208722378432
O	-3.4359608735901963	6.401653376439411	1.651825442378431
O	-1.9906551005901967	7.026230456439411	3.391438882378431
O	-2.2981558695901967	-2.5011643135605888	1.4510526323784312
O	-3.532968583590197	-2.1178379135605887	0.9177044443784312
O	-2.835121114590197	-3.4718135035605884	2.114436002378431
O	-2.7206422585901966	-2.5666231935605888	-1.0954510276215688
O	-1.4444563815901965	-2.1970499235605887	-0.5305772476215688
O	-2.6699408035901966	-3.1905234335605885	-2.117652517621569
O	0.1972961364098036	-0.6791178335605885	-0.7135171016215688
O	-0.13211325359019654	0.6388177974394114	-0.5511171916215688
O	-2.2487671555901967	1.3312109184394114	2.3041888523784313
O	-1.3644243525901967	1.2568671103394113	1.4552004223784312
O	-0.16280932359019662	1.6553615734394114	1.9035237123784312
O	0.012055756409803386	3.5816265264394116	-0.001249940391568795
O	-0.5736270535901966	3.5230996564394115	1.0698198723784311
O	-1.5553749185901966	2.9711213164394117	0.2253831023784312
O	-3.1222728835901967	2.4943594664394113	-2.1731750376215686
O	-3.663488113590197	2.9382408564394114	-1.1510530776215688
O	-5.042223333590197	2.9395582064394112	-1.144025857621569
O	7.567222306409803	-0.2059835235605887	10.493699462378432
O	7.451280326409803	0.024937856439411377	6.670660182378431
O	8.770768026409803	-2.631584233560589	4.355633582378432
O	5.864893536409804	-2.806798663560589	1.9259175823784311
O	6.023179526409804	-5.168318213560589	-1.0171470276215688
O	1.8235718064098032	-5.373266493560589	1.1005464223784311
O	0.016029816409803388	-8.89976454356059	5.2247952223784315
O	1.6806672864098036	-7.41417218356059	8.131218592378431
O	-0.5393350535901966	-4.909003223560589	10.023365262378432
O	-9.657234443590196	-6.90156603356059	5.620869032378431
O	-9.504598653590197	-1.0652888635605886	1.710308052378431
O	-10.066080503590197	2.0526098024394113	-0.34367009662156883
O	-6.614458733590197	1.1782967823294115	11.685011762378432
O	-3.6377906135901963	1.2440393258394113	9.470479242378431
O	-2.167215337490197	4.304189666439411	8.28658747237843
O	1.2327694564098035	2.984676016439411	9.593450472378432
O	2.9137775964098034	-0.08998248356058869	10.723196362378431
O	3.687422796409803	-2.2906113935605887	7.830894792378431
O	5.642797876409803	-5.389448043560588	7.206481982378431
O	4.036531516409804	-7.1119742635605885	4.278343652378432
O	5.182644466409803	-10.10044494356059	2.2048739423784314
O	4.276966296409803	-12.782378743560589	4.707539032378431
O	7.144758116409802	-11.701429043560589	6.856931012378431
O	9.260269526409802	-10.11293044356059	4.099120582378432
O	2.1265393764098035	-3.582114683560589	-12.766526437621568
O	2.968929026409804	-4.214337373560589	-9.034589617621569
O	6.372909316409803	-3.2340487235605884	-7.736274407621568
O	5.2599904464098035	-1.5959657935605884	-4.4790050976215685
O	7.9523627264098025	-0.45804109356058853	-2.047635517621569
O	4.007923076409803	3.0126932564394115	-2.6337879776215685
O	4.019648186409803	7.439022716439412	-5.995370357621568
O	2.9881753964098032	5.441384246439412	-9.00755026762157
O	-0.6929650335901967	5.039259326439412	-9.65519690762157
O	-4.947770773590197	15.008941956439411	-5.9505313776215685
O	-6.357977683590196	12.75315655643941	-3.263253817621569
O	-4.523722243590196	9.70828034643941	-2.2504874076215686
O	-5.584100373590196	3.7081393564394114	2.8177451923784314
O	-6.749050373590197	1.7664331424394115	5.1612402223784315
O	-10.364173113590198	2.5947134164394114	4.323063112378431
O	-9.955947903590197	6.064068056439412	3.001817362378431
O	-9.063046433590197	8.100379276439412	-0.0980980599215688
O	-9.664841413590196	8.29990263643941	-3.8369456976215686
O	-9.380639783590196	11.106875736439411	-6.308452747621569
O	-7.394975613590196	1.8802975374394113	-9.15488760762157
O	-7.759763613590197	-1.7888799435605884	-9.692071837621569
O	-3.991266893590197	-2.3573084235605886	-10.21449063762157
O	-1.1414819465901966	-0.5617023935605887	-11.789312637621569
O	1.3588887764098034	0.3871387734394114	-9.076478277621568
O	4.955963846409803	1.2098396227394115	-9.47235328762157
O	5.849007056409803	3.1936919264394112	-6.388314557621569
O	9.322549026409803	4.244376426439411	-5.2913579276215685
