80

O	0.7430652662666668	-3.7289402416486217	5.332482190133334
O	-2.416441502733333	-3.810003571648622	2.137121920133334
O	-0.46875129373333335	-3.307924811648622	3.496319120133334
O	-1.2540166747333332	-0.8793354256486219	1.586597640133334
O	1.8151565462666668	-2.8871540516486216	3.541275600133334
O	-0.3835908237333332	-1.6391342816486216	0.4344230911333341
O	-1.7769857937333333	-4.762397921648621	3.888141330133334
O	-1.6788316047333331	-3.7645450316486215	3.295573990133334
O	-5.780443333733333	0.1449798603513781	-1.691982979866666
O	-2.5794060037333333	-2.8931145516486216	-1.082310339866666
O	0.4097949062666668	-2.7504849916486216	4.167369860133334
O	-1.9692216427333333	-1.0214839736486219	2.824785010133334
O	-2.136244233733333	-3.1075727616486217	1.0853096501333341
O	-0.021060903733333136	-0.6152411703486218	2.260408560133334
O	-2.574360813733333	-2.208857501648622	0.09657615203333408
O	0.7544202862666667	-4.789651171648622	4.400060120133334
O	-0.8608831117333332	-3.5254676316486218	0.4679689731333341
O	-0.18838531373333334	-4.372514931648622	1.343267950133334
O	1.0741395862666667	-4.654786171648622	0.9956062491333341
O	-0.9275679327333333	-5.498934991648622	1.2813432901333341
O	1.5912756062666669	-5.865110211648622	1.343298990133334
O	-0.44771089373333317	-6.542336321648622	2.065104020133334
O	0.8762160862666668	-6.670570601648622	2.162237110133334
O	-1.3016600307333333	-1.6607058816486218	-0.6670223198666659
O	0.8479168862666666	-1.4736219526486218	-0.03636835886666592
O	0.9155475062666667	-1.9135914116486217	-1.4437117098666659
O	-2.241914334733333	0.08525427935137819	0.581659488133334
O	-2.2673102117333332	0.3732901953513782	-0.7877675238666659
O	-3.4073371437333333	0.42669800835137817	-1.599812509866666
O	-4.606889673733333	0.38904697835137814	-0.947715479866666
O	-4.598852393733333	0.7797575183513782	0.3874576931333341
O	-3.4674753737333335	0.26790223435137817	1.063636679133334
O	0.4939083662666668	-3.2558070116486215	-1.918698779866666
O	0.11519540626666669	-1.0004374026486218	-2.289168759866666
O	1.9987732962666669	-4.318049081648622	4.039042960133334
O	1.5269782662666669	3.4921628983513786	11.485746350133335
O	3.5389927662666674	2.6759944483513785	8.403570320133333
O	5.418737306266667	5.057474918351378	6.204224730133334
O	4.254578136266667	4.113450038351378	2.769705500133334
O	5.482192506266667	5.8514581183513785	-0.3282373878666659
O	0.23792404626666674	5.207494698351378	-0.770788796866666
O	-3.5264984637333336	8.688097248351378	0.946092044133334
O	-3.3057280737333334	8.209136118351378	4.6416674001333345
O	-5.701915243733333	5.504035288351378	5.805284420133334
O	-10.872957153733333	4.298879638351378	-2.4049797298666657
O	-8.379843593733334	-1.4822389876486217	-3.510145689866666
O	-7.716863753733333	-4.944755841648622	-4.756093889866666
O	-10.875224783733334	-1.3031201476486218	6.568552880133334
O	-7.238409773733333	-0.9723938136486219	5.944640750133334
O	-5.144663423733333	-3.884832531648622	6.853320830133334
O	-3.017798983733333	-1.3056716556486219	8.962491680133335
O	-2.4809963667333332	2.233313608351378	9.597552040133333
O	-0.6702550237333332	3.7768190783513784	6.654319240133334
O	0.8043079362666667	7.208323478351378	6.290418890133334
O	0.6783558262666667	7.9996695483513784	2.641033300133334
O	2.180281486266667	10.653741438351377	0.4942670371333341
O	1.2162304562666668	13.564370638351377	4.847594580133334
O	4.686030736266667	12.199056238351377	4.013652720133334
O	6.561718876266666	2.8672958483513784	-8.271207269866666
O	9.181960106266667	2.8836646483513784	-5.484309309866666
O	7.017669296266667	1.5617232683513782	-2.593562559866666
O	8.287660556266665	1.4571547183513784	1.018989060133334
O	5.593392396266667	-2.8641478916486216	-0.3355544628666659
O	7.7887631662666665	-7.595195721648622	-2.374381539866666
O	8.016339056266666	-6.4050472816486215	-5.922105239866666
O	-1.8689960867333333	-14.969369761648622	-3.588199509866666
O	-1.1570530507333332	-11.433364661648623	-2.6157490198666657
O	-5.013335863733333	-5.609229811648622	0.567778958133334
O	-7.676257623733333	-3.302583371648622	1.297777140133334
O	-10.167967753733334	-4.930554331648621	-0.858460255866666
O	-8.929895663733333	-8.477877641648622	-0.936430569866666
O	-6.371453823733333	-10.648247661648623	-2.814528749866666
O	-5.110795993733333	-11.392627061648623	-6.319854699866666
O	-1.6381525797333332	-5.270766901648622	-11.095970949866667
O	-2.3564775867333334	-1.8058437816486217	-12.435747549866665
O	1.0498379962666669	-0.5796839594606219	-11.369500349866666
O	5.685486726266667	-1.9205251416486218	-7.752126089866666
O	9.244724006266667	-1.973385311648622	-6.477491669866666
O	9.093615706266666	-3.2427068316486216	-2.864604439866666
O	11.675763306266665	-3.189145821648622	-0.12865014086666593
