106

O	-1.6836642733307698	-3.203322804	3.09283696273077
O	-0.9708645293307698	-3.958013224	2.01318989273077
O	-2.7899499193307697	-1.2050749339999998	0.5555003047307698
O	0.037159994669230256	-0.1413985139999998	-1.24675571726923
O	-0.35811945533076983	0.12428229800000024	1.61488384273077
O	-0.05138341533076973	3.485197706	0.3154275127307699
O	-3.0996855053307697	1.795695545	-0.3279587441692301
O	-2.9713862953307695	-3.437487494	3.51741606273077
O	-3.2155298753307697	-4.652386314	3.19322858273077
O	0.23232376466923	-3.261366154	1.64493335273077
O	-3.70710643533077	-2.0450977139999997	0.14044536373076988
O	-1.0612872883307698	0.04088187600000026	-2.14903099726923
O	-0.9959939733307698	-0.09200914399999971	2.79949476273077
O	1.2456265146692302	3.985557016	-0.10842541326923014
O	-3.71199750533077	1.1726717410000003	0.7747084327307698
O	-2.45729419633077	-0.08000154399999992	-2.0945063272692304
O	-4.32792359533077	-2.4175703239999997	1.30033545273077
O	0.43403727466923026	-2.528929754	2.85296903273077
O	-3.46579058533077	-3.001404024	-0.8415361432692301
O	-2.21621478833077	-0.18907811399999974	3.29029826273077
O	0.8991704646692302	3.648890266	-1.4624595072692301
O	-3.3773249853307696	2.2098895560000003	1.73449687273077
O	0.8031383446692304	-2.881510064	0.5760978707307698
O	-3.8280760653307695	-0.21630741399999986	-2.3874281072692303
O	-4.90975916533077	-3.7290626839999996	0.96822850273077
O	-3.37525100533077	0.13544482800000013	3.98730531273077
O	0.01868169466923031	4.860536336	-1.56387660726923
O	-2.9991588253307695	3.5401931660000003	1.33364727273077
O	-5.12014039533077	-0.3401427039999998	-1.76637998726923
O	-4.70779712533077	-0.2509033239999998	3.62845040273077
O	-3.55724056533077	4.524707676	0.6540793087307699
O	-0.8461184153307697	5.512361216	-0.7013001942692301
O	-0.2554463253307697	5.0075238760000005	-2.72968425726923
O	-3.9838840953307697	5.608385366	0.2768711697307699
O	-3.82387262533077	-3.0313600139999997	4.589912162730769
O	-5.1780491153307695	6.071081446	0.86993613273077
O	-3.94486562533077	5.939006186	-1.0802547832692302
O	-1.5388486963307697	-3.259312104	0.8144952727307699
O	-2.1424348103307698	-2.153125104	1.34872728273077
O	-2.32189655333077	-4.189912243999999	0.8207504927307698
O	-1.8327680043307697	-1.1860829739999996	-0.4452433072692301
O	-0.6641944353307698	-0.7415986539999999	-0.21965510456923013
O	-1.5950660193307697	-2.227873244	-1.1083114322692302
O	0.99111490466923	0.3041490130000002	-0.32612353296923013
O	0.88771685466923	-0.12215220399999982	1.0711875627307699
O	-0.6173680753307698	2.1185941460000004	2.4242120627307697
O	-0.4470489053307698	1.4810752630000001	1.36714788273077
O	0.3908252746692302	2.128905326	0.49217253273076983
O	-0.9000787953307698	2.5248413660000004	-1.67536354726923
O	-1.0479585083307699	2.944727406	-0.5645518822692301
O	-1.8659346608307699	2.064745426	0.10172709173076988
O	-2.67397782833077	3.333645016	-2.0203980772692303
O	-3.4503493653307697	2.740439996	-1.28172424726923
O	-4.64420707533077	2.633703886	-1.91254972726923
O	8.01997411466923	6.863039176	7.440903422730769
O	7.75274482466923	4.8893483060000005	4.174157482730769
O	9.505654384669231	1.5915749030000002	3.5405580727307697
O	6.637463384669229	-0.3729720639999998	2.0332480027307698
O	7.24086591466923	-3.9007314839999996	0.87824022273077
O	3.08991673466923	-3.2191483939999994	3.5873056327307697
O	2.1372559246692298	-4.195074364	8.88311375273077
O	3.63493572466923	-1.1671555839999996	10.24150169273077
O	0.9817840446692301	1.540011162	10.71959369273077
O	-7.45357670533077	-3.8196346439999997	9.51926059273077
O	-8.54486030533077	-1.0323757639999998	3.31019627273077
O	-9.93867353533077	0.01836958600000016	-0.020899604269230126
O	-10.83553855533077	0.1901550620000002	9.10350986273077
O	-5.98987252533077	6.634402586	9.754269192730769
O	-3.24324612533077	5.740261416	7.51263036273077
O	-2.42278705833077	7.726647296	4.69226039273077
O	1.2263641746692302	7.957200186000001	5.934553062730769
O	3.4746440446692297	6.329123496	8.32687204273077
O	4.49598712466923	3.040863986	6.90854438273077
O	7.085424264669229	0.5426376370000002	7.8269453127307695
O	5.79876182466923	-2.695687154	6.625555492730769
O	7.50526763466923	-6.152536634	6.430928582730769
O	7.140495434669231	-7.029425954000001	10.09616949273077
O	9.833300084669231	-4.527673224	10.86068529273077
O	11.532727884669232	-4.489859274	7.423834502730769
O	2.4526016446692296	-9.853986754	-9.008264247269231
O	3.5754329246692302	-8.089114314	-5.749917107269231
O	6.777320544669229	-6.098450644	-5.742520837269231
O	5.51797690466923	-3.0532042839999995	-3.82210899726923
O	7.95562596466923	-0.3830786839999998	-2.82448024726923
O	3.43800626466923	1.6058146590000002	-4.618412327269231
O	2.3860168346692303	3.259311506	-9.75750220726923
O	1.72045864466923	-0.22014740399999977	-11.10707770726923
O	-1.8497892601307697	-1.4681478639999996	-10.874783307269231
O	-7.97642021533077	8.057705036	-12.532222307269231
O	-8.74868692533077	7.535410736	-8.86816329726923
O	-6.26055784533077	5.864023036	-6.61107936726923
O	-6.13448578533077	3.343860706	0.80553989273077
O	-6.64530952533077	3.4911714860000003	4.15459855273077
O	-10.31812436533077	3.076731676	3.51971863273077
O	-10.614054765330769	5.1139894660000005	0.4530158277307698
O	-10.320459735330768	5.025574816000001	-3.32933771726923
O	-11.07023462533077	3.069451206	-6.455507567269231
O	-11.502095795330769	4.032983136	-10.05606821726923
O	-7.73501268533077	-4.698593634	-7.587515987269231
O	-7.35328088533077	-7.954085323999999	-5.8301363872692304
O	-3.61510623533077	-8.197947864	-6.58212981726923
O	-1.2913353203307698	-7.3222836739999995	-9.40622555726923
O	1.1107449246692302	-4.641615574	-8.12480798726923
O	4.4727306246692295	-3.6816195039999995	-9.451472757269231
O	5.11372839466923	-0.16668785399999986	-8.17365712726923
O	8.24929758466923	1.8915756510000001	-8.22341903726923
