95

O	-1.3870292447680004	1.6467393588599997	1.1722439451400002
O	-1.1953954587680005	1.2834651388599996	-0.08875955985999995
O	-2.8553758657680004	1.3720739688599997	3.26280436514
O	-2.4596226657680003	0.7776141188599998	1.34815670514
O	-4.134637715768	-0.32752880914000015	2.9101710451400002
O	-1.9669187427680004	-2.45854178114	2.85854153514
O	-3.1590544057680003	0.5683425988599998	2.46816894514
O	-2.9119218857680003	-0.2395800291400001	0.58269207214
O	0.5944548642319998	-0.5177346691400002	-1.58716232486
O	-5.298246135768	0.22782620885999993	3.49739507514
O	0.7293496442319995	1.0990718988599997	-0.4153755405599999
O	1.7386698742319997	3.44184929886	-2.25510428486
O	-6.197401125768	1.0162646888599998	2.5227451051400003
O	-3.4079533057680003	4.092760638860001	1.92858762514
O	-6.315778565768	-0.5216915321400002	4.24174666514
O	-4.917234045768001	1.3872734188599996	4.43650598514
O	-2.2013776557680003	-0.6785273501400002	-0.43830880195999994
O	-1.9897942827680004	0.5882789688599998	-0.95530953686
O	-3.1694699457680002	-1.39244548414	1.3740736051400002
O	-1.9160629617680003	-1.3583153981400002	2.08491071514
O	-0.8839857967680004	-0.8751384289500002	1.38284501514
O	0.22901402423199957	-1.00716980314	0.6200035851400001
O	1.4109915442319998	-0.5472525381400002	1.3367212351400002
O	0.9521551342319998	0.5097097188599998	2.14721729514
O	0.13007448423199963	0.11757001585999982	3.1696231051400003
O	-0.16969747576800032	1.0181276388599998	4.12974104514
O	0.11935485423199954	2.32552630886	3.87373699514
O	1.2226654942319997	2.5294961088599996	3.10382257514
O	1.7805409142319994	1.4450862488599996	2.52571028514
O	0.8328278342319997	-0.22031975814000015	-0.43249842125999993
O	0.9105286842319995	1.6334320788599999	-1.79781094486
O	0.6770272342319996	3.02613843886	-1.41283586486
O	1.2917545142319995	3.0676790688599995	-0.07574430685999994
O	2.419080374232	2.06162716886	-0.3937365420399999
O	3.700252484232	1.95170323886	0.13584733214000005
O	4.666313584232	2.3571384188599995	-0.71947949486
O	4.331316074232	2.7258631588599997	-1.9839106948599998
O	3.3592226042319995	1.8078165888599997	-2.44217877486
O	2.3652783242319995	1.4632886988599996	-1.6028931148599999
O	-2.2780497397680004	1.72942842886	-0.76541125486
O	-3.0712595157680003	2.4464696088599998	0.20529607014000012
O	-2.6197445057680007	3.5473585588599996	0.9586186551400002
O	-4.704322715768001	4.2639474788600005	1.56158838514
O	-5.208122505768	3.5315128688599997	0.48932792914000006
O	-4.400674345768	2.45903246886	0.10001305314000009
O	-0.8209220867680004	-0.4568121511400001	-13.06473063486
O	0.8372850042319995	-2.2179528211400004	-10.142928174860002
O	-0.060136165768000405	-5.72493898114	-8.982616124860002
O	-0.3419795057680004	-5.20728833114	-5.27618346486
O	-1.0745913317680005	-8.22689494114	-3.00561407486
O	-3.6135486957680003	-3.85288985114	-1.80810713486
O	-8.731411455768	-2.59900195114	-3.37292352486
O	-8.181735055768	-1.60577704014	-6.90269530486
O	-7.627551265768	2.17075458886	-7.2080282348599996
O	-11.069743915768	5.0468513688600005	1.7043245651400003
O	-4.785293585768001	5.93968432886	4.18125950514
O	-1.6788113263680002	6.93353200886	5.96845776514
O	-2.6402424157680002	9.14512317886	8.78387065514
O	-9.231218325768001	9.98602957886	1.9016374951400001
O	-5.561394305768	10.40643957886	-5.29428816486
O	-3.6312951957680006	7.265122808860001	-5.35487310486
O	-0.007727165768000255	7.53043563886	-5.70218992486
O	-0.12380547576800027	4.99661019886	-8.628936214860001
O	-2.6123534657680003	2.79874949886	-10.325137874860001
O	-2.9620146557680003	-0.32951678514000016	-8.269154974860001
O	-4.637733215768001	-3.63472169114	-8.879890124860001
O	-5.585475965768	-4.97949108114	-5.49961578486
O	-6.879235395768	-8.35151857114	-4.29826412486
O	-9.385848965768	-8.16628676114	-8.92388732486
O	-6.193676655768	-10.19784007114	-8.400997054860001
O	3.3667464842320003	-10.214178841139999	8.612692745139999
O	1.7320595842319995	-9.44182344114	5.20020645514
O	3.417311524232	-10.549282441139999	1.99308482514
O	3.040129294232	-7.37892391114	-0.04592740285999991
O	4.111031474232	-7.19702797114	-3.70349509486
O	5.333723354232	-2.81959642114	-0.83663173986
O	10.426008084232	-1.9577667611400003	1.31765072514
O	9.664115784232	-3.8815385911400004	4.43957007514
O	8.095085344232	-1.98709414114	7.28320936514
O	9.833246684232	9.23345717886	5.71186650514
O	7.683145954232	6.81423106886	3.8351619351400004
O	0.9041925942319995	6.60687470886	0.5277506361400002
O	-2.4570112897680003	7.52510274886	-0.16902251985999994
O	-3.0380279657680003	9.91288197886	2.70936286514
O	0.45925983423199956	10.84296627886	3.23859053514
O	3.6278635742320002	9.88447997886	5.02630178514
O	4.925018234232	8.50312006886	8.26697621514
O	8.272026324232	8.75136563886	9.99612766514
O	2.5690015942319997	0.9797380588599999	11.20328266514
O	-0.4559721757680004	-1.0622769311400002	11.963963465139999
O	0.9032235142319995	-4.06744154114	10.070060865139999
O	4.157963054232	-5.85676887114	9.62177176514
O	4.832755344232	-5.67546536114	5.86808956514
O	7.162507584231999	-7.80555668114	3.89419961514
O	8.035056804232	-5.827877551139999	0.7766678451400002
