88

O	-1.5494611464420003	-2.578574051622	-4.034290189380001
O	-0.5917265274420003	-1.764486671622	-3.3627731793800004
O	0.36342244855799977	-2.185899771622	-2.4944402793800005
O	0.9757681985579996	-1.3908353316220001	-1.5814055863800003
O	0.6590901585579998	-0.13596045712200017	-1.3286271123800004
O	-0.5705323844420003	0.09220729337799982	-1.8321629703800004
O	-1.0187027004420002	-0.47687305262200014	-3.0536381193800004
O	1.7634469285579997	0.7614412543779998	-0.4146392293800004
O	3.089973058558	1.266321238378	-0.6318247543800004
O	1.0792008085579996	1.7768734283779999	0.3577422206199997
O	2.5194545885579993	-0.31059917202200016	0.7674199406199996
O	2.8808353785580003	-1.2234903016220002	-0.22078977538000044
O	4.309821828558	-1.225049531622	-0.21491869838000044
O	5.312603808558	-0.21113793547200016	0.0005825196199995553
O	4.638294318558	-2.258709091622	0.7928800106199997
O	1.5345392485579998	-0.2680847334220002	1.6862108406199998
O	0.36775576855799974	-0.3196476606220002	0.8321773606199997
O	-0.6730210164420003	0.44066519237799984	0.9439582406199997
O	0.3226313085579997	-1.719544201622	0.7863643906199996
O	-0.8302535094420003	-2.037169191622	1.3861099606199998
O	-1.9455782944420004	-1.374225481622	0.8843664406199997
O	-2.489833331442	-0.7801099456220002	1.8046068106199997
O	-2.4113300614420003	-0.8645088936220001	-0.2856092273800004
O	-3.6469625814420006	-0.7545016256220002	-0.8351609547800004
O	-4.168595131442	-0.7935219526220002	0.6505904906199996
O	-4.189427991442	-2.219304831622	0.6075150206199996
O	-4.612575771442001	-2.643778961622	-0.6274353013800004
O	-4.204369851442	-4.002201691622	-0.6518715763800004
O	-3.0550113114420006	-3.859880041622	0.07039464161999964
O	-2.187052439442	-2.911040221622	-0.6331971223800004
O	-3.342993621442	-2.1782938916220003	-1.3522530573800005
O	1.4152495185579996	-2.350842081622	1.4836600106199995
O	1.3439427985579997	-4.184678191622	-0.05832086638000045
O	0.49335883855799967	-5.053680171622	-0.7402843713800004
O	-0.39285411044200025	-5.716627861622	0.053462722619999625
O	-0.4898369754420002	-5.427649321622001	1.37385324062
O	-0.12945076144200018	-4.150872251622	1.7118949606199996
O	1.0118503885579997	-3.694645111622	1.1425653406199996
O	4.4494319985579995	10.584709238378	-6.0109899893800005
O	3.9258132885580004	9.172892458378	-2.5200830893800004
O	1.1311994185579997	10.255950438378001	-0.15387775338000043
O	-0.23780984144200024	7.053386948378	1.0165835306199997
O	-3.0419992114420005	6.830680648377999	3.58035988062
O	-4.010834081442	3.356518788378	-0.3706645833800004
O	-6.731642921442	4.289260498378	-4.831226339380001
O	-4.325085141442	6.432159368378	-6.715055339380001
O	-2.045248558442	4.354182308377999	-8.955936769380001
O	-7.117036561442	-4.263348311622001	-8.41732800938
O	-2.3367099414420003	-6.871459831622	-4.532753269380001
O	0.0033279985579997007	-9.406204471621999	-2.9705602593800005
O	-0.8716661354420002	-12.829453661621999	-3.7252927493800003
O	-3.450922801442	-7.169208841622001	-10.860396659380001
O	2.590815378558	-1.9223557516220002	-12.47081495938
O	2.944388388558	-0.12642380552200017	-9.23195341938
O	6.263676048558	-0.06933637662200015	-7.4791478193800005
O	5.938766218558	3.794005038378	-7.2652953493800005
O	3.472322998558	6.550566438378	-8.07705060938
O	0.9790327485579999	6.748865878377999	-5.228194069380001
O	-1.6792333284420002	9.160385738378	-4.206447299380001
O	-4.329628851442	7.258782608378	-2.3348087493800005
O	-7.301651741442	8.301619418378001	-0.2817907333800004
O	-9.574397801442	9.038129398378	-3.22078608938
O	-7.529645341442	12.126175838378	-3.97529758938
O	-6.093980291442	12.719031338378	-0.4846296783800004
O	-4.861842131442001	-1.5863536516220003	12.63231824062
O	-4.456528911442001	0.7867508383779999	9.629195740619998
O	-2.4162566514420005	3.974090498378	10.065212640619999
O	-0.4627741864420003	3.7875954983780002	6.797466710619999
O	1.8591417985579997	6.605862518377999	5.673755150619999
O	3.708962918558	1.7282529883779998	4.8257194306199995
O	7.381245798558	-0.8245538686220002	8.156700320619999
O	4.732739468558	-2.1905692816220004	10.50550234062
O	3.2645439685579998	-5.556679381622001	9.571137540619999
O	8.360640778558	-7.861121421622	1.7748435706199999
O	4.280794048558	-4.5367284316220005	-3.5525259793800004
O	1.9066323185579999	-4.551884671622	-6.4370763893800005
O	1.4212852785579997	-8.195537651622	-7.07448070938
O	4.578635438558	-9.450031591622	-5.539586989380001
O	6.054430348558	-10.523884561622	-2.1993819093800004
O	5.281809908558	-12.426941161622	0.9780278606199996
O	7.464708828558001	-14.009091061622	3.6136742206199997
O	-1.3123831543420001	-10.260299961622	6.01078847062
O	-5.031757841442	-9.570514231621999	5.935673610619999
O	-4.6514315014420005	-6.257240871622001	7.79723443062
O	-2.6067667214420003	-5.000831731622	10.70789664062
O	-0.5037424934420003	-2.094178381622	9.348621140619999
O	1.0883418985579996	0.6388700453779999	11.31931414062
O	3.898288858558	2.005508188378	9.18340754062
