37

O	20.348135761303134	-1.4431487940802126	17.34431145294911
O	21.702562336555086	-0.8906347493131971	17.277919146328372
O	23.714592216127347	-1.668427185401144	17.907072880661545
O	22.570285220031113	-2.0392643285356806	17.655756225808048
O	21.440781962614306	-2.8146591137019192	15.621881841418675
O	22.819905007723612	-4.150489300300649	16.82479980839012
O	22.208911510364047	-3.1332725981683387	16.813356313896186
O	20.211798041672516	0.31193867881856874	15.98812177627201
O	20.22974216968907	-3.5588555893972034	15.841797991600338
O	20.740470841222276	-4.926005637483842	15.763395066774576
O	19.848461407625464	-5.732527901902332	16.369529560017877
O	19.801519911515417	-7.121704941246828	16.164593377817447
O	20.620282441158043	-7.684269393331074	15.191006130211012
O	21.751451567500688	-6.937307820303792	15.117780036266465
O	21.602479500658497	-5.549776348388065	14.990738337141499
O	19.72360010741561	-3.551174212221823	17.32504552371337
O	18.454004090970557	-3.5003273142700326	17.70138916981106
O	18.07031427773666	-4.316744292871046	18.795341663203693
O	18.866201427643706	-4.056715176317963	19.854125502926117
O	20.179112376846525	-4.195250001823644	19.528767904293932
O	20.57874089248231	-4.078084450694836	18.229642028787403
O	20.53087376770683	-1.8388346716171617	15.952271368600588
O	20.867038167000736	-0.6650229059122403	15.188520247054432
O	19.44685523920149	-0.3403903471242482	17.017527820112893
O	21.570238236538636	0.0297546442137524	18.302487757092397
O	20.44863063320643	0.13978783433750297	19.257667058646835
O	19.86528236064603	-0.9758376714460398	19.780010927406902
O	19.535537081563696	-1.1283980010179746	21.14531712718106
O	20.04955652017745	-0.22605399396008896	22.032796798488548
O	20.5007248193746	0.9958605711567701	21.617863335973475
O	20.814518371240034	0.9999934563778827	20.254197687174464
O	22.50808953732893	-0.6551069537487602	19.30743080046513
O	22.887575207573356	0.13217032182550548	20.302318064716356
O	23.52720817023458	-0.446980504819271	21.413984970536177
O	23.94848448711752	-1.7481427768818363	21.102949757741627
O	22.870371324839724	-2.5100850481579613	20.659962230530873
O	22.006189518274347	-1.823800659199642	19.86863878816649
