85

O	-4.367904324066666	-0.2974978352866666	-3.766688749711111
O	-5.615126864066666	-0.1270308422866666	-3.058820929711111
O	-4.591172434066666	-0.6103177002866667	-4.987214269711111
O	-3.1960967440666663	-0.7219311352866666	-3.0433448997111108
O	-2.492325884066666	-1.7935591522866667	-3.526304619711111
O	-1.6018251570666664	-2.2453809922866665	-2.483224219711111
O	-0.5932321960666663	-1.6910919522866668	-2.011458779711111
O	-1.0893702760666664	-0.3991113399366666	-1.775728545711111
O	-2.2530082670666665	0.12294126271333333	-2.4575763397111112
O	-0.03516914406666638	-2.9775571022866663	-0.9706527559711111
O	1.2335443159333337	-3.4927030522866667	-0.834412041711111
O	-0.5218548640666664	-4.254369272286667	-1.4982156727111111
O	-0.5494938300666663	-2.1963970122866665	0.46950519028888904
O	0.28684059593333355	-1.0275736982866666	0.5262175202888889
O	1.0796479659333336	-1.4124112222866667	1.6544735702888889
O	0.3054769159333337	-1.8570878722866666	2.788761400288889
O	2.0682494259333337	-2.3395055122866664	1.220455030288889
O	-1.6136007400666663	-1.4927236122866667	-0.18288187871111106
O	-2.8205092940666665	-2.1691705222866666	-0.04405118271111108
O	-2.4315744140666666	-3.5580041522866663	-0.1177330457111111
O	-2.8425015340666664	-1.9389449822866667	1.464205320288889
O	-2.510832544066666	-3.0215763622866665	2.0362368502888892
O	-1.7978168100666663	-4.198749192286667	1.928559490288889
O	-1.7109476470666665	-4.246920142286666	3.1963084402888886
O	-0.6280397110666663	-4.587097162286667	1.371141000288889
O	0.42983110593333373	-4.917996672286667	2.030751000288889
O	1.7752883159333337	-5.174261972286667	1.710098180288889
O	1.5999039259333336	-6.007287982286666	0.705695210288889
O	0.8420671259333334	-6.940094862286666	1.2780185902888892
O	0.06419947593333375	-6.208762262286666	0.28404750028888903
O	-1.1757585140666664	-6.532497032286666	0.437628430288889
O	-1.3496260755666663	-6.507680462286666	1.858685330288889
O	0.02411728593333362	-6.381840732286666	2.410865180288889
O	-2.0924149450666665	-0.7305741572866666	1.7317033202888892
O	-3.9239959340666664	0.02261978271333337	0.22047591028888902
O	-4.573653654066666	1.1284648877133334	-0.2511226107111111
O	-3.9709806640666665	2.3184805877133337	-0.5367627037111111
O	-2.8446085440666664	2.4906944477133335	0.21901174028888903
O	-2.1508511600666664	1.3930414977133334	0.651415610288889
O	-2.746651574066666	0.1975788437133334	0.824122450288889
O	8.352785755933333	-5.7394782122866665	-6.656451049711111
O	8.006618975933334	-3.8599223722866665	-3.393911229711111
O	9.403534775933334	-0.46476008338666663	-2.612626829711111
O	6.461257555933334	1.2592696177133333	-1.119142594711111
O	6.458135005933333	4.747360187713333	0.08935976028888903
O	2.061570935933334	3.8042956677133333	-2.627893039711111
O	1.3509525359333339	4.845671047713333	-7.986542009711111
O	3.162317975933333	1.8573175577133332	-9.33153358971111
O	0.8110767859333337	-1.0938071502866666	-9.79313731971111
O	-7.702651854066667	3.4478040677133337	-8.298089469711112
O	-8.762706264066667	0.32757969371333334	-2.874732009711111
O	-10.402735284066667	-0.8782400392866666	0.266815560288889
O	-5.599114174066667	-6.868371892286667	-9.31249318971111
O	-2.9583983540666665	-5.888271322286666	-6.928851949711111
O	-2.1252430780666662	-8.272439332286666	-4.342519519711111
O	1.6679680259333336	-7.6858897122866665	-5.466944149711112
O	3.8076963859333333	-5.655416182286666	-7.566329739711112
O	4.427105285933333	-2.3366694422866665	-5.950676059711111
O	6.754582215933333	0.42314328071333335	-6.887030069711112
O	5.1190638859333335	3.5461446177133333	-5.697780289711112
O	6.263457595933334	7.059240987713333	-5.323807939711111
O	8.874728975933333	5.845804317713333	-9.789036759711111
O	10.582469675933334	5.914403957713334	-6.373359759711112
O	2.0902828259333335	8.652980267713332	6.3531039402888885
O	5.4554668559333335	6.917423747713333	6.667007480288889
O	4.702842805933334	3.691974637713334	4.730891260288889
O	7.569987525933334	1.2518222677133333	3.9421461602888894
O	2.943427535933333	-1.0509485452866667	5.5444792002888885
O	1.5939247959333336	-2.5956844322866663	10.71249342028889
O	0.5314886959333336	0.8324597977133332	11.78720722028889
O	-9.813993054066666	-7.274733332286666	9.86960602028889
O	-7.237334254066667	-5.581593392286666	7.689701520288888
O	-5.631639514066666	-4.9709648622866665	0.09026089028888895
O	-6.455274924066667	-4.163343862286666	-3.345671119711111
O	-10.099689304066667	-4.066131582286666	-2.995850829711111
O	-10.553697844066667	-6.227130272286667	0.015684182288888904
O	-10.717201744066667	-5.815034772286666	3.7980438302888895
O	-11.952088824066667	-3.4765425922866666	6.544873510288888
O	-8.991023024066665	4.418369157713333	7.356487600288889
O	-8.754895224066667	7.679267677713333	5.528004200288889
O	-5.106799974066666	8.091006007713332	6.528799910288889
O	-0.3055894370666663	4.950060647713333	8.45013639028889
O	3.011264065933333	4.353452167713334	10.11635612028889
O	4.169677325933334	0.8493865977133332	9.10507802028889
O	7.536391345933334	-0.8008645892866666	9.48787432028889
