103

O	-2.7031332187222223	1.3666945862814812	-1.314478395555555
O	-2.5552253287222224	0.14061465328148115	-1.209546670555555
O	0.27144530127777755	-1.1371802967185187	0.041636292444445
O	-2.1195641077222227	2.1284993122814813	-2.244406944555555
O	-3.1733040487222226	2.8518336432814815	-2.067498744555555
O	-2.9097766187222227	-1.0932678767185189	-1.715949634555555
O	-0.4866046687222225	-1.366807306718519	1.278226935444445
O	-2.1813255787222223	-2.2803410867185185	-1.957339774555555
O	-1.9242245157222224	-0.9461142367185189	1.1331927154444452
O	-2.9920118587222224	5.287016413281481	1.201685035444445
O	-2.7310766587222224	-2.007336996718519	1.1430042254444452
O	-2.5782419287222225	-0.16873428671851887	2.107045745444445
O	-1.3195395967222225	-2.1774647567185186	-3.054320114555555
O	-2.0956767367222224	-3.380556676718519	-1.427764786555555
O	-4.0507463987222225	-1.790505496718519	0.936522465444445
O	-3.8699139487222225	0.20601456328148116	1.993413485444445
O	-4.539009608722223	-0.4790543767185189	1.042239635444445
O	-0.4944798687222225	0.6307038132814813	0.336906725444445
O	-1.1589972037222225	-0.22613178671851886	-1.2905691195555549
O	-1.5228667478222224	4.031949123281481	-3.456360344555555
O	-0.7880706447222224	0.30508867328148126	-2.360897294555555
O	-1.1455473337222224	2.951800533281481	-2.796900314555555
O	-0.4319823887222225	-1.3332205767185188	-1.0345524725555548
O	1.2297748312777776	0.42405429328148125	-1.142213090555555
O	0.20247806127777745	2.977616653281481	-2.792834554555555
O	0.5192709412777776	3.459584833281481	1.0712113654444448
O	-2.6014158587222225	4.002735713281481	1.717533205444445
O	-2.9450770887222224	2.5991645342814813	0.7945491954444451
O	0.6926194112777777	4.0878046632814815	-2.199096104555555
O	-0.10986389872222246	5.1722499032814815	-2.139087954555555
O	-0.22492143872222248	6.142828823281482	-1.2437942725555549
O	-0.8896451547222225	7.285350893281481	-1.3268311035555551
O	-1.9343253407222225	7.277148373281482	-2.205777664555555
O	-0.28725801872222245	2.623086582281481	2.079172585444445
O	-1.8351212757222224	6.323566743281481	-3.178281244555555
O	-1.1271681197222225	5.205206833281482	-2.996357324555555
O	0.7923278512777774	0.25932359328148125	0.11499806544444502
O	-3.100150458722222	5.1491928132814815	-0.25097453955555493
O	-0.8854985287222225	1.1383370592814812	1.4337176854444453
O	-0.9199733397222225	2.2466860412814813	0.6645827554444451
O	-4.376130698722223	5.943854583281482	1.1805412354444451
O	0.3146526212777776	2.502977010281481	0.06851509444444503
O	-2.4211973967222225	6.700582143281482	1.4623491154444452
O	-0.009111518722222378	4.760261003281482	0.743498305444445
O	-0.03698673872222247	5.172266783281481	2.161960805444445
O	-0.5221770787222224	4.634850133281481	3.3297012454444452
O	-0.28737078872222255	3.1569191032814814	3.290594135444445
O	0.2717821512777776	1.2096804362814813	2.222954955444445
O	-1.8590602137222225	3.176583103281481	0.853162915444445
O	10.403263261277779	-5.894950356718518	-5.089185924555555
O	8.347146011277779	-6.066546026718519	-1.9223915045555549
O	9.431051861277776	-4.576646696718519	1.3988838554444452
O	6.340587781277778	-2.716206846718519	2.4489898954444453
O	6.271125841277778	-1.0498707167185188	5.8337534754444444
O	4.1820907412777775	2.0474134572814813	1.9280590554444452
O	6.723913301277778	5.713826123281481	-1.038930470555555
O	8.663021061277778	3.525492843281481	-3.244395394555555
O	6.948047851277777	2.7744487132814815	-6.547112744555555
O	-0.23528963872222253	12.303338703281481	-8.374117004555554
O	-0.3177816987222224	9.63997759328148	-5.569003414555556
O	-4.808227268722222	5.196216573281482	-4.266689914555555
O	-7.8565903287222225	3.216396783281481	-3.6996945745555547
O	-10.875195588722221	5.183750573281481	-4.814086364555555
O	-5.524083318722222	9.564034433281481	-7.213094254555555
O	-3.1347453587222223	8.039047083281481	-9.681782744555555
O	-0.5053058087222224	9.61678829328148	-12.028554844555554
O	0.7957077412777775	1.4586225892814813	-12.317318244555555
O	1.6100991712777777	-0.3237549967185187	-9.196531464555555
O	0.42821979127777765	-3.8569742867185184	-8.689104984555554
O	3.998707811277778	-4.861189006718519	-7.711741414555555
O	7.302588161277778	-3.1847263267185184	-7.1738342645555555
O	7.291085231277777	-1.8333255067185188	-3.660171264555555
O	10.002341461277776	-0.47943397671851895	-1.462715931555555
O	8.297594671277778	1.9200563622814812	0.897172385444445
O	9.613760561277779	3.579748453281481	4.029252665444445
O	11.56098076127778	6.295304863281482	2.229033625444445
O	14.167270361277776	3.741408393281481	1.282683065444445
O	13.539728761277779	1.195277527281481	4.060094385444445
O	4.362456641277777	1.7949375550814812	12.272272755444446
O	-3.6442895387222225	-0.18038939671851884	13.608579655444446
O	-0.7087405377222225	-0.0972979967185188	11.083179255444445
O	1.7732329212777778	-2.9717907267185186	11.033169755444446
O	1.9583467712777773	-3.4553096467185185	7.273847485444445
O	4.386828691277778	-6.002232266718519	5.803930165444445
O	-0.4211544687222224	-6.048391416718519	3.3873305054444454
O	-4.361349278722223	-9.60257179671852	4.661196025444445
O	-5.663076628722222	-7.761009896718519	7.716580595444445
O	-8.296125018722222	-5.201992066718518	6.895425905444445
O	-9.464861758722222	-6.3570452967185185	-2.456007834555555
O	-4.308370608722223	-1.769247366718519	-5.092186154555555
O	-2.9290467787222223	1.291037803281481	-6.866482854555556
O	-6.1552991287222225	2.905179763281481	-7.9783794145555555
O	-8.385152388722222	0.010342253281481195	-7.824915624555556
O	-10.505109278722223	-2.114269606718519	-5.505071774555555
O	-12.936466538722222	-1.9646395167185189	-2.6919108645555547
O	-15.596139538722223	-4.398704806718518	-1.5321836155555548
O	-10.721163128722221	1.2966785362814812	4.535103025444445
O	-9.402823378722221	4.495781413281481	6.0136360654444445
O	-7.0041690987222225	2.532689418281481	8.316853125444446
O	-6.860204928722222	-0.5653746667185187	10.380837055444445
O	-4.157809108722223	-2.6551413567185183	8.700731235444445
O	-2.4294168247222223	-5.579079326718519	10.342282655444446
O	-1.1912102527222226	-7.769684206718519	7.514717185444444
