88

O	-5.859779472	1.00840699804	-0.7449780254199994
O	-4.426005402	1.0591642310399998	-0.6841682314199994
O	-3.6996252420000006	1.8611797440399998	0.15041058458000064
O	-2.4080985520000002	2.14150861404	-0.19589763941999935
O	-1.7638346410000005	1.4425590490399998	-1.1268627454199993
O	-2.5562046220000005	1.2842676810399998	-2.2032098954199992
O	-3.9207176620000004	1.0472785410399998	-1.9531225854199994
O	-0.24845853200000056	0.7601228490399998	-0.8631072824199993
O	-0.12849684200000056	-0.33353999596000017	-1.8197006154199993
O	0.8367702079999995	1.64839347404	-1.1903684554199994
O	0.1528588979999994	0.00962100903999985	0.5614953295800006
O	1.2532635579999996	0.6041389563399998	1.0067935945800006
O	1.1386539979999997	1.95931597404	1.3186214145800006
O	1.3337596179999993	1.8026872540399999	2.778773084580001
O	0.04077566799999954	2.8347341940399997	1.0625438745800007
O	0.04192221799999962	-1.33768291596	0.5464543095800006
O	-1.3876514016000006	-1.74050678596	0.5909460765800006
O	-2.0785976920000007	-0.9891802659600002	-0.26481548341999933
O	-1.8309247360000005	-1.2282335259600001	1.9020659645800007
O	-0.9847935900000004	-1.72981631596	2.896832114580001
O	0.21632412799999945	-2.36888876596	2.6266810245800007
O	0.07452709799999946	-3.4837490659600006	2.1395102445800007
O	1.3566230279999996	-1.6694387759600002	2.9268856845800006
O	2.5526431879999993	-2.16724408596	2.419964824580001
O	3.441941747999999	-1.0020673959600002	2.2371284245800007
O	3.1851421479999993	-0.3328962669600002	3.368421884580001
O	3.156360688	-1.2564236059600002	4.320006864580001
O	1.8575046679999994	-0.9872745959600002	4.830836924580001
O	1.2516812279999994	-2.13299210596	5.194903494580001
O	1.9289208079999995	-3.2044800659600003	4.445294144580001
O	3.129154178	-2.63703033596	3.803611384580001
O	-1.4651339530000005	0.17467569703999986	1.7124678945800007
O	-1.0671536120000005	0.09952144003999985	4.116155464580001
O	-0.7867180130000004	0.8354477050399998	5.225187314580001
O	-1.0519401390000005	2.17396602404	5.156284424580001
O	-1.5801779850000006	2.81435069404	4.040949754580001
O	-2.1311497750000004	1.9186704340399998	3.131337634580001
O	-1.5086124630000004	0.7307887700399999	3.0041891945800008
O	-1.7678502350000005	-5.68536550596	-11.44311934542
O	-0.22565543200000038	-2.5771668559600003	-9.92205431542
O	3.5140415579999993	-2.0198398759600003	-9.48306580542
O	3.7372989879999996	-0.8395788259600001	-5.994218395419999
O	7.033549277999999	0.21243146703999982	-4.414047915419999
O	4.171384178	-2.78906702596	-1.0434174654199995
O	4.526147708	-8.100186965959999	-0.5338243724199994
O	2.747148797999999	-9.23800609596	-3.612645345419999
O	-0.9883211000000005	-9.788626065959999	-3.0186279254199992
O	-0.8741984450000004	-9.439851515960001	6.8893986945800005
O	-3.4255921920000003	-3.51871761596	7.369938364580001
O	-5.409341282	-0.37941055996000017	8.25480586458
O	-6.762554302	-0.6061275959600001	11.66160645458
O	-6.044747322000001	-9.383957215959999	7.78567505458
O	-8.964847642	-9.260372195959999	0.19385283558000063
O	-6.790341292000001	-6.68556000596	-1.4360492954199993
O	-8.329316092000001	-3.65433151596	-3.008756085419999
O	-6.412471982000001	-4.46530447596	-6.268576145419999
O	-3.7870570720000005	-6.90617059596	-7.478872935419999
O	-0.4057131320000005	-5.59914584596	-6.341725815419999
O	3.1399892179999997	-6.49350239596	-7.206851775419999
O	5.282890477999999	-5.6157102859600005	-4.233558475419999
O	9.002974918	-5.37211874596	-3.673476465419999
O	9.553876917999998	-9.09034604596	-3.240827885419999
O	8.956598618	-9.562413165959999	-6.943915865419999
O	9.858266418	-6.0461498359600006	-8.13078247542
O	9.218374718	9.42699279404	3.878637694580001
O	8.573949527999998	6.41904841404	1.5691119445800006
O	8.491110077999998	6.81304187404	-2.191459765419999
O	5.336468108	4.83562217404	-2.995055625419999
O	4.2685936479999995	4.24485729404	-6.657837075419999
O	0.19453274799999942	5.40993180404	-3.327924955419999
O	-1.9892751550000005	10.45419935404	-2.812128735419999
O	0.5711701979999995	11.609729434039998	-0.28605781441999933
O	-0.2274500620000004	10.885330034039999	3.3220815145800007
O	-8.755194592	6.86101636404	2.643726964580001
O	-6.803166552	-0.37686147696000016	2.183375344580001
O	-6.435610442	-3.85223222596	3.058933734580001
O	-8.057617752	-3.69944796596	6.466344974580001
O	-10.140506462000001	-0.6540155459600001	5.963572944580001
O	-10.123284632	3.13717602404	6.138933944580001
O	-8.825775412	6.0313145940399995	8.16459686458
O	-9.913038832000002	9.620562764039999	8.43414114458
O	-0.49650262500000053	7.06150679404	9.61973300458
O	2.5787949579999996	5.218487974039999	10.86831315458
O	4.668774297999999	6.32844003404	7.870899434580001
O	5.077730127999999	9.373067294039998	5.736259824580001
O	4.086926827999999	8.386025114039999	2.177640924580001
O	4.976769967999999	10.172064584040001	-0.9821259294199993
O	2.3880677579999996	9.198737864039998	-3.570576675419999
