83

O	0.6301080135000003	3.1057215131208333	-0.8318114942916658
O	3.6096297355000004	0.5432558351208333	0.9804196297083342
O	1.9735272275000004	2.611812553120833	1.0342915327083342
O	0.05151836550000044	-2.1430958568791665	1.1402316727083344
O	-0.4697819944999997	3.2650637831208336	0.6848308017083342
O	0.22498940950000035	-0.5040379288791668	0.8239590457083342
O	3.6976602755000005	2.437333873120833	0.16880180900833422
O	3.0629784955000003	1.8228173831208334	1.0399312147083344
O	4.6931926155	-4.911916826879167	-0.7340004562916658
O	2.8829724855000003	-1.8506103468791668	1.7800613757083341
O	0.7633366425000003	2.6100892931208333	0.5690206037083343
O	-1.2563497244999995	-2.5710981168791665	0.9632845387083342
O	3.2798467855	-0.5071610158791666	0.08385058470833423
O	0.4430058515000004	-2.2842965468791667	2.5362779057083342
O	2.2743817655000003	-1.2420310168791666	0.8612492187083343
O	1.3794850055000003	4.257339573120833	-0.4617130762916658
O	1.9478802475000003	0.018445174120833296	-0.49616687029166573
O	2.5835197755	0.6544191241208333	-1.548824074291666
O	2.3047564155000004	1.7503292331208333	-2.269863564291666
O	2.8421655855	-0.37735163887916673	-2.459617294291666
O	3.3579817355	2.1956276431208335	-2.9925141342916657
O	3.2740869255000007	-0.0907168468791667	-3.724874604291666
O	3.9230280055	1.1493717851208334	-3.7268576342916657
O	1.3742285495000004	-0.13847106887916666	1.439893345708334
O	-0.6755250944999998	-0.11514854587916673	-0.009453677291665769
O	-0.48304511449999965	0.0331157221208333	-1.3647584442916658
O	1.0509432978000004	-3.1021964668791666	0.2572142420083342
O	1.3740282675000004	-4.324563506879167	0.7238257357083342
O	2.5746733755000006	-4.942818546879167	0.2510717092083342
O	3.5305938755	-4.121734416879167	-0.4308833822916658
O	2.7063887555000004	-3.5486753568791665	-1.441848374291666
O	1.4602969955000002	-3.007862806879167	-1.011517184291666
O	-0.1835617144999997	-0.8824625668791666	-2.4156248042916655
O	-0.8531713844999997	1.2731161341208332	-1.9343692942916655
O	0.27663055650000035	4.623850163120833	0.3540765117083342
O	-0.6313801444999996	-5.3025544268791664	11.416787635708333
O	-2.5972512644999997	-4.7406540368791665	8.239753795708333
O	-5.650658784499999	-2.4440160268791664	8.032708165708334
O	-4.908310374499999	-0.46451955987916665	4.975262265708334
O	-7.1665260845	2.1347410131208333	3.4553412157083345
O	-2.3394326544999995	3.8633314731208332	3.528973925708334
O	0.1343079675000004	6.858958173120834	7.317440445708335
O	0.7692781025000004	4.172987963120833	9.826559375708333
O	4.1754681355	2.5786235731208333	9.348605725708333
O	8.0145102555	9.030617073120833	2.8390232257083343
O	7.901845355500001	4.865817003120833	-2.0952780042916657
O	8.5057168355	2.8469894031208334	-5.2864511042916655
O	11.6303582255	-0.4114729018791667	6.321985425708334
O	8.0648070255	-1.2840336168791666	5.564656315708334
O	7.251024545500001	-4.583092446879166	4.044971385708334
O	4.6602546255	-5.176587266879166	6.832621835708334
O	3.1721871255000007	-3.3283128068791665	9.719513935708333
O	0.39275838350000036	-1.1394781668791667	8.434829685708333
O	-2.3215748944999994	0.8193903211208333	10.006176345708333
O	-3.1170280644999995	3.6690488831208334	7.713635575708334
O	-5.9289200645	6.251678123120834	7.6181918957083345
O	-5.3367511745	5.904362443120833	12.832694535708333
O	-8.1346650245	4.121864843120833	10.920102135708333
O	-9.3062660745	5.022634053120833	-8.431530364291666
O	-8.4045840545	4.327735143120833	-4.779286864291666
O	-10.2632431745	1.6187632931208333	-2.8516436342916656
O	-7.303878414499999	-0.09119479487916671	-1.1665085042916656
O	-7.8501276045	-2.8368121768791665	1.4493156657083341
O	-3.8065103144999997	-3.773529646879167	-1.9923075642916657
O	-4.278929764499999	-7.007625926879166	-6.558456674291666
O	-5.655426984499999	-4.180881616879167	-8.702400374291667
O	-3.0932631445	-2.0000223368791668	-10.451585164291666
O	6.897598575500001	-7.606261376879167	-10.615765264291667
O	5.1004740255000005	-5.968289496879167	-7.706146444291666
O	6.8348242355	-2.1329938868791665	-1.581020414291666
O	8.5643426855	0.3519880573208333	0.5367553917083343
O	11.1506042255	1.4471097331208334	-1.8785920542916656
O	11.218068625499999	-1.5747518568791665	-4.127955154291666
O	9.4657684455	-3.056107826879167	-7.189165854291666
O	7.999370775500001	-2.151187216879167	-10.566279664291667
O	7.295064565500001	-4.165592656879166	-13.670793664291667
O	1.6691625555000003	3.6435243331208333	-11.227028364291666
O	0.7177443345000003	7.147281043120834	-10.141567764291667
O	-2.6884304245	6.0089716931208335	-8.894813104291666
O	-5.793762034499999	1.0145170271208332	-7.293509634291666
O	-8.6619342245	-1.2526759968791665	-6.611536224291665
O	-7.294694514499999	-4.142751516879167	-4.529502914291665
O	-9.0519903745	-6.885535076879167	-2.6267811342916656
