105

O	-2.056017948611111	0.9359454512777778	-0.5611756515407403
O	-0.8601811526111112	0.23075020327777784	-0.31193329554074023
O	-0.3060440646111111	1.9522472642777777	1.0322623504592596
O	3.0606018413888894	1.7193188952777778	0.8984817354592597
O	1.5257818613888887	1.4724162472777778	4.18380326045926
O	-2.251137868611111	1.4215005092777777	-1.8251868995407403
O	1.340851021388889	3.489087984277778	0.7425208654592597
O	-1.4381486236111112	-0.8730747457222221	-1.1273389895407404
O	-0.5212081006111111	2.518225434277778	2.29236180045926
O	4.118420631388889	1.3579967922777778	0.17665440845925975
O	1.963028181388889	0.07609287627777783	3.89974064045926
O	-2.849946598611111	-0.6217547257222222	-0.7776372755407404
O	-1.6305434706111113	1.5680361962777778	2.37547598045926
O	3.920656741388889	-0.0060323077222221855	0.9627914724592597
O	0.9870586313888887	-0.3276044157222222	2.9658030504592596
O	4.771679541388889	0.3811597602777778	2.14878968045926
O	-3.0320933486111112	-0.6361510957222223	0.5693769144592596
O	-2.685890398611111	2.1656062842777777	1.7994103304592597
O	0.9708450413888889	-0.9364521557222223	1.8431200604592597
O	-3.990028228611111	-0.46037947572222215	-1.4168171295407403
O	-1.759955773611111	1.4027302942777777	3.6609237604592595
O	0.07479326138888887	-0.6520344157222222	3.8549026804592597
O	-4.222147228611111	-0.5924656857222221	1.1538871604592598
O	-3.8593189186111108	2.1495415442777777	2.44568727045926
O	-0.11092544861111109	-1.6242038757222221	1.5245529204592596
O	-5.075435648611111	0.10962877527777781	-0.8325941045407403
O	-2.919278058611111	0.7111791628777778	3.9528612104592598
O	-0.9322407604111111	-1.490180305722222	3.5700311304592596
O	5.876805561388889	1.2433280582777777	1.9790103804592596
O	4.775271901388889	-0.13497968972222218	3.2717863004592598
O	-5.089544758611111	0.2225947292777778	0.48861278745925973
O	-4.021296818611111	1.2107483152777778	3.4147043004592597
O	-1.2154934306111111	-1.604229685722222	2.2795032304592597
O	-0.26308688561111115	2.3375630442777777	-1.0087740195407404
O	-2.9395043086111112	3.7620640542777775	-2.6964505895407402
O	-1.1387488606111111	2.579183414277778	0.15994070945925976
O	-1.671174491611111	0.9188812022777778	-2.73565595954074
O	-5.183071468611111	2.838580684277778	-2.82907494954074
O	1.8972552113888888	1.3079043762777778	0.34180072745925977
O	-3.483372468611111	1.5730401412777777	-2.5056832495407404
O	-4.250741788611111	3.146003794277778	-0.7462985255407403
O	1.5783460413888888	1.8977667642777778	2.8415698504592597
O	3.4599725813888895	2.6276276442777777	2.7870159404592596
O	0.11256778138888879	0.9520577572777777	-0.9462936865407403
O	2.1032696913888893	3.6589609342777782	4.741221050459259
O	3.5137398613888893	1.7512551282777777	5.20603111045926
O	1.0410257913888887	2.305484024277778	0.7181014844592597
O	2.827003501388889	1.5459250302777778	2.3394652704592596
O	2.519926011388889	2.3380427942777775	4.81264211045926
O	-3.882842008611111	2.8129030042777776	-2.14696563954074
O	0.5885724313888889	0.27441281127777783	-1.9561375295407404
O	1.681564961388889	-5.3206400357222225	-11.987562079540739
O	-0.32638593661111115	-6.166178285722222	-8.893348929540739
O	0.6110648813888888	-8.881874475722222	-6.416518879540741
O	0.2854632613888888	-7.121349875722222	-3.1491282395407403
O	0.8946248113888888	-9.028368615722222	0.10090789765925974
O	3.070642051388889	-4.101826125722223	0.17304943545925974
O	8.173522481388888	-3.1173086957222225	-1.3633905595407403
O	8.070343081388888	-3.4151355357222224	-5.05105815954074
O	7.403688881388889	-0.0459273037222222	-6.77971247954074
O	11.737683531388889	8.270612704277777	1.0130612704592596
O	8.878248571388887	5.784500194277777	1.4787850304592598
O	2.540269221388889	6.878870344277778	2.3634870504592596
O	-0.7955254376111112	8.325375274277778	3.23633877045926
O	-0.3593421856111111	11.525718844277778	5.14222607045926
O	3.328624511388889	11.384060844277778	4.81456809045926
O	6.439078291388889	10.248443294277777	3.0387393304592596
O	7.10832718138889	10.282396134277777	-0.6981059565407403
O	10.400090631388888	10.527406044277777	-2.74386019954074
O	4.4923438013888894	8.055841744277778	-8.04821207954074
O	2.7491406113888885	4.897552844277778	-7.28954922954074
O	-0.7784125456111111	4.5859687442777775	-8.24383840954074
O	-0.03279482261111111	1.2103083812777777	-10.03143247954074
O	2.7953012613888886	-1.1354936257222221	-10.33258337954074
O	2.9678007213888886	-3.2417714257222228	-7.22442465954074
O	4.927182711388889	-6.336143625722222	-6.44483757954074
O	5.488727021388889	-6.308518755722222	-2.7418638395407404
O	6.789595951388889	-8.846955055722223	-0.32211620054074025
O	10.475438531388889	-8.401087395722222	-1.1142122795407403
O	9.989218631388889	-10.129630455722223	-4.45058230954074
O	6.907092601388889	-12.166965255722223	-3.5693458995407403
O	-4.907763938611111	-7.366054595722222	11.10224602045926
O	-2.914173338611111	-7.6957090157222225	7.81666762045926
O	-4.128879978611111	-10.072455355722223	5.091040640459259
O	-3.7175721886111113	-7.876773795722222	2.0543749804592597
O	-4.214358548611111	-9.056013145722222	-1.5271118295407402
O	-6.325185298611111	-4.215089415722223	-0.7684484335407403
O	-11.489294068611112	-2.9780056857222226	0.6858502574592596
O	-10.971300558611112	-3.5998817857222223	4.36176576045926
O	-9.843482358611112	-0.6766856257222222	6.40747152045926
O	-9.824882498611112	6.4840325542777775	0.35703557845925976
O	-2.253657388611111	6.062415394277777	-1.9562223795407403
O	0.9614749413888888	6.598406234277777	-2.4278351895407404
O	0.9002705313888888	10.060421814277777	-0.7614656035407403
O	-2.667659558611111	10.885096644277777	-0.9348984975407403
O	-6.0082577286111105	10.310351384277778	0.8050571024592597
O	-7.7660544386111106	9.927823774277778	4.08358581045926
O	-11.383652468611112	10.294515284277777	5.16000664045926
O	-5.133552728611111	4.016520644277778	9.65788359045926
O	-2.059141248611111	2.713732364277778	11.33627492045926
O	-2.8647882186111113	-0.9094323857222222	10.51448292045926
O	-6.012422908611111	-3.039290875722222	10.37668222045926
O	-6.197677368611111	-4.219971815722222	6.70420429045926
O	-8.196558088611111	-7.181813675722222	5.54372858045926
O	-8.894047818611112	-6.6780197657222224	1.8521443604592598
