46

O	23.06557633181458	-1.5593330277007167	21.55347873024413
O	21.77312010857887	-1.8640404366794328	21.614894627567804
O	23.239134591027362	1.255002261895397	18.971652185906485
O	23.50929896189346	-2.93511673145836	20.667252799898087
O	21.250192408918817	-2.551754948783397	20.603014543856265
O	23.84727109701132	-0.4154576583941374	21.81435146283016
O	21.576198120622617	0.7899372680493064	19.99733146950614
O	19.970117928412822	-2.5003819051965164	19.99964992624012
O	19.675224928564706	-2.753294661076925	18.648353743162343
O	20.5316878786291	-3.1383156806998365	17.696235231853336
O	21.273466202258078	-6.782991458609161	13.936169299845023
O	21.39377491738867	-3.7624937766084745	18.576930909804144
O	21.56482641474987	-5.501470195708874	13.777141881543471
O	21.892380587748132	1.488413523891194	18.820448973985904
O	21.074546281708436	-5.234630582646492	12.497269691663064
O	23.88920214801291	0.245471714283102	18.37858518770734
O	20.422068758572856	-2.5926514004544723	16.10350011241693
O	22.784861484937313	-0.30579811515758415	17.360281296602817
O	21.201601819257984	-1.8706387316089326	15.07874885967806
O	21.907657487917945	0.401292910322669	16.651429445099524
O	19.465140460124736	-1.4657250072038277	16.011988456347414
O	20.390864902938816	0.34338343858901244	19.646603983340412
O	20.108249276791963	-3.9054140876970638	15.139769310472833
O	19.033087254808688	-3.404817979758535	14.481686444090773
O	17.932922474779744	-3.61597002231338	15.395624013706895
O	17.4417982079549	-2.9281510862410247	16.522216197989824
O	18.028528466199095	-5.033649540531035	15.739163308740105
O	20.313235971209636	-5.008724079471769	15.899626725946064
O	21.668314654065885	-5.2202453854439606	16.35169032663944
O	22.468526935229704	-6.175607317964232	15.801752588328082
O	22.350366051194207	-4.104404422010041	15.742382502198643
O	23.323797688249297	-3.7422983212900087	16.460989214230725
O	23.5957436296885	-2.446419374375104	17.012717650800504
O	24.292899559336444	-2.7703199375504983	17.888808732839895
O	22.79470164385054	-1.6245821327928527	17.70851928861409
O	22.48374257704946	1.5564157722779037	22.82125910208332
O	22.20631685601093	-4.341384947960933	14.320620676023987
O	20.004520012890275	-7.216938063388438	13.797434336200691
O	19.741772766623907	-5.531737546679789	12.270747528987746
O	19.146179243562134	-6.438465779193534	13.069757776637154
O	23.58835806033658	2.119493237164174	22.034403641486435
O	22.006567340997805	-3.308060477131122	19.783933641970982
O	22.134673967834427	-0.761686531711147	18.45273759664878
O	20.769521213234082	-0.21665902639173407	18.26561360561547
O	21.020205400621634	0.9864861638757416	17.62259252978966
O	23.6488062976738	0.6927748216242477	22.664387485427728
