94

O	0.7274909772857143	-0.769935754916327	-0.4719338559387755
O	5.196104114285714	-0.36955790391632704	1.2512509450612246
O	4.5872446642857145	1.505407629083673	2.057611845061224
O	0.6304622922857144	0.323622979083673	0.5305613260612245
O	0.17319885628571435	-0.07214936336832702	-1.4674948149387754
O	5.7659511142857145	2.706652029083673	-0.34345355593877547
O	6.114345274285714	1.735259119083673	0.6445793420612245
O	-0.49587342871428564	-1.467108830916327	0.12467419906122451
O	-1.2526556657142855	-2.032177560916327	-0.7284197779387755
O	0.05420482728571438	-2.235740680916327	1.1233928150612247
O	1.3059465942857145	-1.969828600916327	-0.8192235449387755
O	1.5157805342857145	-3.279482270916327	-0.2461256089387755
O	1.5101336542857144	-4.251497310916327	-1.2135511649387754
O	1.0500084142857145	-0.30293188891632705	1.6538607650612245
O	1.8868132542857146	-5.559087950916327	-1.1144943369387756
O	2.9484896742857143	-5.713023740916327	-0.2248979307387755
O	2.832172104285714	-5.010121010916327	0.9466993050612246
O	2.1062195242857142	-3.883088330916327	0.8100413560612245
O	4.882486984285714	1.032665899083673	0.9700129050612244
O	0.8199147082857143	-0.49837719491632704	2.9252895650612243
O	1.9737692142857146	-1.233006320916327	3.5771089350612244
O	2.5454768042857143	-2.351906720916327	3.0845593050612243
O	3.848956914285714	-2.746411250916327	3.2062814850612242
O	4.738377374285714	-1.912361510916327	3.8213465450612243
O	4.263040954285715	-0.714486424916327	4.271510395061225
O	3.0137831242857143	-0.42019219091632704	3.8824938050612245
O	4.192496504285715	-1.211635340916327	0.6820895100612245
O	4.428000804285714	-1.444520990916327	-0.7271201489387755
O	3.6458095242857143	-0.790219360916327	-1.7719801449387753
O	5.709360184285715	-0.6328449959163269	-0.9168241569387755
O	2.951405674285714	-0.474690821916327	0.5733357780612245
O	3.0979563142857143	0.553816876083673	-0.1176224094387755
O	2.4246164242857144	0.12787218508367298	1.7652604350612244
O	-0.8221954257142856	-3.148237930916327	1.6593558750612245
O	-1.6197713257142856	-3.724282430916327	0.5110173120612245
O	-1.1753907757142856	-4.9578838509163266	0.1251410580612245
O	-1.9118954557142855	-6.099477330916327	0.1351373050612245
O	-3.2851607657142856	-5.814431640916327	0.0919831130612245
O	-3.788847025714286	-4.554271570916327	0.2634047360612245
O	-2.9324009957142856	-3.583555440916327	0.7769453250612245
O	-2.983559235714286	-3.167548040916327	2.2462225850612243
O	-1.7959130257142855	-2.296810920916327	2.2618196450612245
O	-2.0429490157142856	-1.169788040916327	1.5458704050612244
O	4.532870024285715	-2.845625980916327	-0.9542715469387755
O	6.609304074285714	-2.3174414209163268	3.5437219350612246
O	-10.227251465714286	6.674897029083673	3.4867266650612243
O	-8.514029665714284	5.151981739083673	0.4506688020612245
O	-6.606229875714285	7.148219899083673	-2.1180035949387754
O	-3.4871023757142856	5.190143009083673	-2.4480467649387756
O	-0.8101072397142857	6.244616719083673	-4.966683664938775
O	1.3660952842857146	5.153355469083673	-0.3785624349387755
O	2.4432647542857144	8.266229099083672	3.848575665061224
O	-0.9901148867142856	8.874507159083672	5.143915115061225
O	-1.9006946057142855	6.310191589083673	7.840703115061225
O	7.108864804285715	2.377080979083673	9.558127125061224
O	5.692914114285714	-3.611122760916327	6.864790835061225
O	5.257301104285714	-7.066804500916327	5.251939255061225
O	5.485724134285714	-1.666147370916327	12.766453945061224
O	-2.5213738757142856	-0.7471800289163271	12.808862945061223
O	-3.275688345714286	-0.09287101001632701	9.256627925061224
O	-5.682254075714285	-2.374825790916327	7.5426068850612245
O	-7.716870415714285	0.7768972910836729	6.423206575061225
O	-7.375040935714285	4.497108239083673	6.4139752350612245
O	-5.072779645714285	5.479138399083673	3.5859016550612246
O	-4.292921285714285	8.791624799083673	2.036870975061224
O	-0.8019008347142856	8.578723139083673	0.6809243400612245
O	1.2471126642857144	10.751000909083672	-1.6284556449387755
O	2.2257527342857144	13.303371509083671	1.0064717450612246
O	-1.3153631257142855	14.567730109083673	1.0195350650612247
O	-2.319513025714286	13.442851809083672	-2.4882553649387757
O	6.440356384285715	-1.0724122309163269	-12.171973254938775
O	4.480989974285714	1.174700509083673	-9.645077984938776
O	1.0398031042857145	2.388174679083673	-10.604716354938777
O	-0.7868185607142857	1.693855919083673	-7.344448374938775
O	-4.429619255714285	2.766527589083673	-6.859508704938775
O	-3.589702155714286	-2.023257970916327	-5.027132794938775
O	-4.395405395714286	-6.817236530916327	-7.649031174938775
O	-1.1305107657142854	-6.740883920916327	-9.503505994938775
O	1.8651238942857145	-8.290255810916328	-7.791607954938775
O	-1.6786051757142855	-11.754398390916327	0.3244967320612245
O	-0.6387562027142857	-5.505661590916327	4.759162655061225
O	0.4731142612857143	-3.524943600916327	7.617920115061225
O	2.7483290342857143	-6.106498790916327	9.091040715061224
O	1.2122760642857144	-9.159002580916328	7.710207435061225
O	1.0888412542857144	-11.544183690916327	4.778357535061224
O	3.226050094285714	-13.174128490916328	2.1260882650612243
O	2.713152564285714	-16.260509790916327	-0.0057996919387754975
O	7.845539244285715	-8.715114860916328	-3.4489867049387755
O	10.555466734285714	-6.090839960916327	-3.6708192749387756
O	8.566318524285714	-4.027527690916327	-6.3264477449387755
O	6.419067034285715	-4.681330410916327	-9.343067474938776
O	2.9073141042857142	-3.342117830916327	-8.590795714938777
O	0.23678693328571437	-2.531653270916327	-11.075819954938776
O	-3.0869056057142856	-2.682018710916327	-9.307410694938776
