41

O	24.765012323899438	-1.976481384688023	21.63378472412955
O	23.98378127443016	-2.727436743281693	20.89871565342721
O	25.202918188195852	-0.807572544606746	20.41135538685361
O	23.989922295967393	-2.6100103364189966	19.577518845475556
O	24.251116067538543	-1.3547688607420538	19.08110455400811
O	23.632658854354737	-1.0305610139631083	17.888010767100585
O	23.096922235430522	-1.8486600102191664	16.942974537471812
O	23.24625680275448	-3.1818312217411764	17.335412283513193
O	23.519447984556074	-3.4611394824579276	18.627231658325837
O	22.339263770248802	-1.7850225864368747	15.40835463211721
O	22.010984621454014	-0.5957009732852345	14.639974873164338
O	22.702711006422724	-2.729353140484527	14.369012130249887
O	20.775806289616742	-2.696030996724943	15.238996710161867
O	21.029088071465367	-3.5733105349813106	16.29224864737691
O	20.688224347648088	-4.849074914126275	15.833467037713266
O	21.420199699947275	-5.018031945611515	14.484290862855916
O	19.34567362947298	-5.018526085694621	15.105060312846751
O	19.996455401262462	-1.653567844627222	15.68288978320189
O	21.065595478693922	-1.3172983527325766	16.847615553126147
O	19.486654096080656	-6.357981762252707	14.33224272979412
O	21.23910126237726	-0.06543771580519153	16.52851044835634
O	20.715684542446258	-2.0462000990180402	17.905734507838353
O	20.778924668583656	-1.9748051551130175	19.232926833364218
O	20.92114998192677	-0.6793262939793635	19.742639561741484
O	21.709963924704905	-0.8279284715404741	20.60794826011088
O	20.196805385400207	0.3263866941515241	20.22927354598661
O	20.020702575394353	1.4727595000826117	19.61167563956018
O	20.407332582994442	1.7983511835549915	18.227269089957506
O	21.59172433189457	1.1417365870201954	18.65222220464234
O	22.01128414418503	2.3451751570786024	19.135951842609632
O	23.174925991651126	1.6439117525528162	19.53302304298416
O	23.207327400379818	1.9085651552223029	20.846154692195505
O	21.803490179563838	1.6262609415169234	21.258994311293986
O	21.047923050363337	2.397342075992049	20.317628057182745
O	19.603565156473646	-0.968992848264302	17.508073416928298
O	18.529139609695104	-1.9876717180077632	19.28959063176678
O	18.13813026314992	-3.1540018675587462	19.849861916726525
O	18.12931835210122	-4.225649695993226	18.97607863303506
O	17.599807882489543	-3.9502535709491555	17.717039174779146
O	18.11811470965441	-2.8202494326748506	17.20991204879555
O	18.70598354262569	-1.9091934001613622	17.97841225604906
