41

O	22.68447814473915	0.2506358099631696	21.460279630960912
O	21.40189539699242	2.4264002027171596	18.915945891271917
O	20.4418261614171	0.6899370939383558	21.578859852407465
O	20.38050828119232	3.311438818764553	19.04767849380828
O	21.580250895737816	0.8398752019068823	22.33053389222077
O	24.382117590371507	-1.013410318031292	18.667371090672386
O	17.05397866455825	-3.1760126311347365	18.80648718791041
O	23.831690385585357	-1.9757124940517357	17.897281875669137
O	25.359821486502778	-0.9654035911000575	19.594844936907954
O	25.448847149390282	-1.3867958238001625	20.90574318285895
O	23.157939252211957	-1.6698648323353946	16.717333806285243
O	18.028900393864603	-1.8966125581723836	20.547890639317515
O	22.223981355988148	-0.6897282327097467	16.86468313179137
O	18.59141466223793	-1.2518623176795705	19.50462118993945
O	22.906660408004342	0.3278007623698711	17.277478585899768
O	18.8111834786665	-1.7092122042851172	18.282384922835035
O	23.904462318436114	0.20630829917804783	18.195635193567924
O	18.056678305827546	-2.8026766553736695	17.959131279039923
O	20.922251468082955	-0.503257053300711	15.702643857892127
O	17.503871516931124	-3.1172258918411595	20.139411342396524
O	21.551442769519895	-0.6137895468559706	14.402406147465623
O	20.159120251305772	0.7180766392194244	15.739529545609551
O	20.160718585089775	-2.0283242297796766	15.585354346980449
O	19.8676996226527	-2.739902120057054	14.44734594016338
O	20.032688320504153	-4.191156149580129	14.683239526296175
O	18.992192779389367	-4.593306820273401	15.577177600143095
O	20.52368837070029	-5.174383141394768	13.788161771879444
O	21.406892504278282	-2.793754352087886	15.750268279409978
O	21.220193010707145	-3.5926849953472892	16.956397801102693
O	22.011177657439188	-4.520108538596235	16.497053490562337
O	20.762499008146225	-2.881960907118378	18.020212588083766
O	20.863088107771265	-2.436120161178599	19.254813294059616
O	21.27423397453821	-1.3287492275898507	19.971987684669052
O	22.27127646833404	-1.7380031602519164	20.524003222636715
O	21.333616466766916	0.008703853539192563	19.77383592723343
O	22.396610491293778	0.8638858617346574	20.231385028179822
O	20.36861630808222	1.877606083019206	20.810169641010802
O	19.689489121387027	1.3167155869157343	19.734623721563203
O	20.366838292885458	1.3291064313116372	18.606339306647627
O	21.816152675709045	2.1546699997415244	20.388920143272664
O	19.915867267843957	-1.8030597344140293	17.44101088615465
