99

O	1.0934722559591838	0.5394381663020411	1.3785746911163266
O	1.336459785959184	-0.8852758358979589	0.9732951901163266
O	1.8345959259591837	-0.951696285897959	-0.15658233388367337
O	1.1733561659591838	-1.700285985897959	2.004333520116327
O	2.252346695959184	-2.500552815897959	2.2635113301163265
O	2.179927985959184	-3.2023190258979586	1.0215675921163265
O	3.5921387559591835	-3.5007085058979586	0.9895988601163266
O	1.7008062459591837	-4.535081565897959	1.5177189061163268
O	4.129019585959184	-3.4116980958979592	5.351105160116327
O	4.0004765559591835	-2.8438023458979593	4.0493534401163265
O	2.844896675959184	-3.265365515897959	3.3042277001163263
O	2.952730615959184	-4.480176285897959	3.2644023801163264
O	1.1988008959591836	-3.1541108058979592	0.013034490116326625
O	0.8388985359591837	0.6903504421020411	2.7212029401163265
O	0.8533962159591838	-0.30761969489795893	3.7313952701163267
O	1.9452708559591838	-0.49340653089795894	4.4835360001163265
O	1.989689885959184	-0.8765640058979589	5.765343940116327
O	0.9549006859591839	-0.4209192738979589	6.4888725501163265
O	-0.17516537704081625	-0.13344493889795894	5.794037470116327
O	-0.07119002604081626	0.3408012811020411	4.541888380116326
O	2.152250855959184	1.209351822102041	1.0142488411163266
O	0.0261213029591838	0.7163744521020411	0.4488119116163266
O	-0.6456507940408163	-0.41485575589795887	1.2830453471163266
O	-0.8459552630408163	-1.3339693258979588	0.1790744431163266
O	-1.8815324840408163	-0.5611516458979589	-0.2946732218836734
O	-2.982946124040816	-1.1259889058979589	0.4032438501163266
O	-2.745405204040816	-1.8043610858979588	1.7163052801163268
O	-2.052492144040816	-2.9015468058979588	1.3271387781163266
O	-1.1804967270408162	-3.486376825897959	2.1201536101163265
O	-0.8982157180408162	-3.0323926958979586	3.3229341801163264
O	-1.6433463280408163	-2.057881675897959	3.7032804201163265
O	-2.4078095340408163	-1.3588496458979589	2.9013022301163267
O	-3.127261014040816	2.955496084102041	-0.7202364798836735
O	0.1043076399591838	3.252238274102041	2.4312398901163266
O	-1.1422935960408163	2.927110604102041	2.9183363401163267
O	-2.022674214040816	2.5379224141020407	1.9465089001163265
O	-2.2476066740408163	1.499477604102041	2.6406021701163267
O	-3.4127230140408162	3.0096837141020414	1.7332254601163264
O	-3.8509646840408163	2.470689374102041	0.4992350906163266
O	-3.127540874040816	1.1438519551020412	0.5836827126163266
O	-1.9612975740408163	0.7945640491020411	0.04623806911632661
O	-3.935712344040816	0.5230631358020411	1.2760331381163266
O	-3.3087893440408163	1.7528842041020412	-1.5639691098836734
O	-4.207612164040817	3.891461304102041	-0.9920508698836733
O	-1.7977171740408164	3.0311647641020407	-0.32186534188367344
O	1.2348902959591839	-4.630369065897959	6.0943196701163265
O	0.4029876959591837	-3.351539625897959	5.3724312501163265
O	-0.07870358304081626	-3.7414728558979586	4.212708010116327
O	0.029237140959183838	-5.053629845897959	4.122231410116327
O	0.6511973459591839	-5.796280725897959	5.048070030116326
O	2.935628475959184	12.54221844410204	0.3889659821163266
O	2.196043855959184	9.54702956410204	-1.8873711798836736
O	4.689822475959184	7.876124594102041	-4.139530459883673
O	4.059369615959184	4.311754024102041	-3.3970840498836736
O	6.062972325959184	1.624483294102041	-5.169818989883674
O	6.155540575959184	0.8326605431020411	-0.3209302598836734
O	9.487202315959184	2.251606794102041	3.7713635401163264
O	8.621380185959184	5.834802444102041	4.060459320116327
O	5.945563135959184	6.438792084102041	6.770933680116326
O	5.5239710459591835	-2.4574898258979587	11.757815370116326
O	-0.7218704510408163	-4.174496335897959	9.017106610116327
O	-4.086470224040816	-5.441788065897959	7.665232120116326
O	-0.9417446530408162	5.744895204102042	12.246141570116327
O	-0.5174995550408162	5.538409354102042	8.610247050116326
O	-3.532250584040816	6.279369904102041	6.658383870116326
O	-1.3428122750408162	8.999447044102041	4.816307830116327
O	2.1461705459591838	10.00662506410204	4.256576960116327
O	3.915086895959184	7.681644454102042	1.9516191501163265
O	7.173675925959184	7.731612144102042	0.22260654411632658
O	8.244704565959184	4.172612474102041	-0.13866292888367338
O	11.176402415959183	2.6587894841020407	-2.1807585898836734
O	13.590655015959184	7.022090914102042	-0.7171851998836735
O	12.069398015959184	6.468577364102042	-4.191897129883674
O	2.190442485959184	-9.74979135589796	-9.014851899883674
O	3.487953365959184	-6.436331845897959	-7.457364849883674
O	3.367246435959184	-3.233979735897959	-9.325096789883673
O	1.9232475159591838	-0.9047616358979589	-6.6986201398836736
O	1.6404351059591837	2.7961834441020414	-7.567697659883674
O	-2.5818293940408164	0.821807100102041	-5.360842379883674
O	-7.3430559840408165	-1.0019524658979588	-7.644523959883674
O	-5.9187874640408165	-4.407233435897958	-8.361883929883673
O	-6.305345044040816	-7.003650285897959	-5.631074389883674
O	-14.262747884040817	-3.8363883758979584	2.1145598901163267
O	-10.764208144040817	-2.5223757858979585	1.4484848761163267
O	-4.734837344040816	0.23018891610204112	5.266448650116327
O	-2.802327824040816	0.7281713961020411	8.273289120116328
O	-4.2187169840408165	-1.8466706158979591	10.581522870116327
O	-7.613100624040816	-1.8409317758979589	9.060309230116326
O	-9.718698964040817	-3.5532275058979588	6.431168550116326
O	-10.393558094040817	-6.857824395897959	4.737867990116326
O	-13.411389884040815	-8.26861343589796	2.9449964101163264
O	-4.544553114040816	-10.96268605589796	0.3572616641163266
O	-1.1676417560408163	-12.594057155897959	0.5978341874163267
O	0.055431528959183796	-10.86345285589796	-2.6390675398836736
O	-1.2258227250408162	-10.09220685589796	-5.988798789883673
O	-1.2752882380408161	-6.329843325897959	-6.4229490098836735
O	-1.4261850440408161	-4.529877375897959	-9.687487829883674
O	-2.850303864040816	-1.137204145897959	-8.913932149883674
O	-2.9572977140408163	1.906938604102041	-11.150072929883674
