47

O	18.39802609061088	-3.410275928022774	18.04328470966337
O	19.341182711996392	-3.7669568333897065	18.915499183115358
O	19.118264007079905	-4.316346023083076	20.11153222834984
O	17.821480716452307	-4.17901228913118	20.508585257547185
O	16.868711917902715	-4.161166463602257	19.551296930273327
O	17.37207767131406	-4.215858654330024	18.258602349782624
O	22.933434830259735	-2.1947015063049715	19.26858112767045
O	23.84956713296332	-1.7180828369523837	20.082971820941392
O	23.685028004633104	-1.545753505379158	21.4272322741514
O	22.521903521722486	-2.0159055058681044	21.898585676366174
O	21.960270837079698	-3.0590308259502264	21.232648001625314
O	22.27171330440533	-3.204235859212276	19.919002140663718
O	22.773820021257528	-1.5974968058737913	17.944044052898104
O	21.5639126816973	-2.33854672701178	17.947200119421353
O	21.142484678028474	-1.7351200799042747	16.997490520434432
O	21.905447036747766	-1.4447066644169775	15.889021876105396
O	20.820699528662853	-0.94932346612434	15.006069304230387
O	19.74208533062539	-1.8988004571573942	15.379304390516145
O	20.34662392624606	-3.1196612510483037	14.922759350669484
O	20.041617202927206	-3.6040086149969697	13.828855091020706
O	21.613625269987256	-3.4543377808670397	15.12408766101622
O	19.43841659682741	-2.3712360173495943	16.58276844901954
O	18.27354316922754	-2.7097512140892785	16.760402291025013
O	21.179553380345926	-1.166863551032892	13.692406027114849
O	20.562156559146686	-0.5034957416918749	17.42574196393953
O	20.179183133943358	0.39316606861221315	16.596623462549516
O	21.467556658781337	0.13365705704696218	18.19583516319126
O	20.812996922234287	1.2472500925623153	18.942312129775924
O	19.65368495949354	0.5041914657222166	19.37456728909361
O	20.267610404144214	-0.4650273789352184	20.11644174930383
O	18.682111077389177	-0.15442220576316812	18.67269210824449
O	17.785917916771442	-0.8924925584390311	19.42314742672769
O	18.127276385703347	-1.213927135244254	20.671909932859815
O	21.752988828856992	0.851389927279675	20.015469449699687
O	22.91824759275225	1.1769362653582696	19.555636105546434
O	19.43082285877592	-1.174474457144465	20.926954599071493
O	21.041570823297455	0.5135973792537607	21.107064303412166
O	21.99506463434807	-4.792525282695025	14.926281305325837
O	20.760458919690446	-5.519758595706442	14.747947011984103
O	20.097199722068165	-5.199830318260792	15.891142894430123
O	20.453678594569105	-6.640638835935038	14.09535609388455
O	19.92618494170813	-7.674232074108852	14.917888213232292
O	18.918035750431553	-7.146355971420293	15.725042753678517
O	22.234011914653284	-4.857264998930472	16.393425058946132
O	23.293950617145985	-4.061023439893052	16.562751132738704
O	18.812501824057783	-5.75688671940352	15.820551087923358
O	21.048827234894322	-4.978790284725234	17.049300476359125
