45

O	22.931456522294898	-3.1460875956001795	16.293694737724934
O	22.768815388866113	-1.7376822618095447	16.22912082818436
O	21.753826684942986	-5.603402258760469	16.9231427075093
O	21.700152571551687	-3.7660114644417657	16.561314796082957
O	21.15320331554425	-5.790239124769858	14.785658365271669
O	19.949408385893626	-0.4974583347001127	16.326914002891694
O	21.77042915619198	-5.035795403295371	15.850951055560556
O	20.957636092003593	-3.3391766292459506	15.402383662519725
O	20.9847374917424	-1.0903045429117642	20.522510336193076
O	21.34908856647381	-7.182382830533416	14.81860911873827
O	21.566763080252937	-0.631842253838798	18.426278404164982
O	24.13752351337125	0.6452276501362044	19.798057925864565
O	22.4511291801205	-7.98727166371067	14.2225762009652
O	22.56523200750674	-3.636898032236471	20.49248225133594
O	21.743290216730177	-7.627331664679672	16.28067522306132
O	20.305600962579092	-8.231031327878853	14.667381864780108
O	21.712422455534174	-2.735799566400719	14.480556679079953
O	22.02896051304988	-1.41726204433196	15.254069298129247
O	20.194085037671577	-2.233272692295354	15.406000112293205
O	20.526493909157356	-1.642628319517614	16.735427243448203
O	20.574991164785313	-2.76803188331516	17.6688436002176
O	20.041802298113467	-2.1201131978988785	18.737458005964477
O	19.026012615474805	-1.4582901675442181	17.904591206917807
O	18.5627107616154	-2.68543166338481	17.284866415954156
O	18.791762876871168	-3.9718824844831238	17.66917586910581
O	18.642722028991436	-5.007334566382881	16.74649141385108
O	18.182883609417818	-4.833252228253999	15.474867176347216
O	17.433540411168245	-3.713897033691312	15.518633426927305
O	17.81898648439452	-2.6617493137652355	16.26152110927057
O	20.810307484447467	-1.1500650646482393	19.361316691075483
O	22.431388743600895	0.43401985382027397	18.51581819797783
O	22.86784411798497	0.2509552480454771	19.90568537124563
O	22.19300871379424	1.0546172247909216	20.86858293609692
O	21.17963729545199	1.4479156229477275	19.85970889322552
O	20.03488847726746	1.964667598376596	20.358792315906737
O	18.96466494473772	1.309728952488234	19.709749215779343
O	19.063127508719287	1.6213934765916644	18.388808007632893
O	20.2964415224974	1.679180101315006	17.829415814394977
O	21.340866432941766	1.3415980014630187	18.58580028451476
O	23.47969314687086	-1.7345738551398537	17.358694075750392
O	23.503535091776214	-2.5837186348641117	18.524751592067553
O	22.93858722272135	-3.6423451723547977	19.161765620727913
O	23.332100766220428	-2.9675622566732125	21.391047798070264
O	24.468937306838505	-2.445064370565502	20.848667881344856
O	24.467273213844646	-2.208926796248369	19.46690848419843
