101

O	1.858886633352941	3.5318952310823524	4.165469782245099
O	2.0384247033529412	2.907209991082352	3.0182316122450983
O	2.9923426833529407	3.9576323910823525	2.273666032245098
O	3.653855883352941	4.968629561082352	3.591767492245098
O	2.817175443352941	4.4934395710823525	4.490839642245098
O	0.7716689383529409	2.620237761082352	2.337401432245098
O	1.1813401403529409	2.572174341082352	1.0914648522450983
O	1.963166443352941	1.8293495810823523	0.3107707676770982
O	2.027391473352941	0.7105286050823524	-0.4970826637549018
O	1.299288453352941	0.13119436108235227	-1.3718397777549018
O	0.020607139352940923	0.9994004630823523	-1.301794197754902
O	-0.22991921164705909	0.7731125570823524	0.12671424324509822
O	0.3416320573529409	-0.42182383891764763	0.5315517992450982
O	1.358401423352941	-0.32192737891764756	2.550078632245098
O	0.834132916352941	-0.050390968917647605	3.9321919622450983
O	2.0534075133529406	0.3005920870823523	4.2791145322450985
O	2.6056389933529407	0.5979618510823523	5.421948952245098
O	2.950608383352941	1.4618867410823524	0.9063815002450981
O	-0.0778016396470591	-0.43669921891764774	-1.6825674377549018
O	-0.013948393647059076	-0.41063114891764774	-3.1190056677549016
O	1.1604320413529408	-0.9121129789176479	-3.520302107754902
O	1.397481603352941	-0.8213626989176475	-4.8475335077549015
O	0.7484033443529409	0.1021340510823523	-5.585062897754901
O	-0.09360512364705909	0.9273303140823523	-4.958539967754901
O	-0.17490296664705907	0.8497123220823524	-3.6045863377549017
O	0.6529195083529409	2.2076958010823526	-1.423720297754902
O	0.15627260845294091	-1.8124489389176475	0.3852997750450982
O	1.597771863352941	-2.0948581889176476	0.3293505711450982
O	1.6531717133529409	-2.8080698589176474	-0.8170869577549018
O	2.724020883352941	-2.9463259689176478	-1.6135384977549019
O	3.731416123352941	-2.1081101489176475	-1.2678552277549018
O	3.9328606833529407	-1.8201263789176476	0.03587519524509819
O	2.799517593352941	-1.8263524989176476	0.7630399912450982
O	0.2041713648529409	-0.30912731891764755	1.8790773422450981
O	2.283780313352941	-1.0235965989176474	2.457318852245098
O	0.4616178533529409	-1.4452269889176477	4.244923692245099
O	-0.47758029564705906	-1.9082056189176475	3.172008752245098
O	1.533153593352941	-2.3661151089176475	3.761238412245098
O	3.562835973352941	-0.3170872489176477	5.910040302245099
O	4.403364273352941	-0.9529337289176478	4.888751222245099
O	1.806440983352941	1.2411452706823523	6.070493802245099
O	4.446329813352941	0.04654148108235234	3.7715383122450983
O	5.067565333352941	0.060534911082352316	2.5795808122450983
O	5.410409743352941	1.7798213180823523	2.5371827422450983
O	5.106304643352941	2.206088901082352	4.168099492245099
O	4.21442282335294	1.2984369353823524	4.083761002245098
O	5.485849863352941	2.8499148910823524	5.418871182245098
O	4.578201683352941	3.1408503610823524	6.517843492245099
O	6.754730483352941	2.3027818310823527	6.010195532245098
O	4.227153293352941	0.15306552108235238	7.052860862245098
O	-9.330581976647059	8.382831551082353	-4.691354327754901
O	-8.754538096647059	4.665858701082352	-4.150438047754902
O	-10.41577279664706	2.5514141110823525	-1.4937755377549018
O	-7.602376526647059	0.6443922500823523	-0.07619897075490178
O	-8.27158330664706	-1.9226741489176478	2.738365762245098
O	-4.020072076647059	1.1295741978823524	3.6271925222450982
O	-3.985537006647059	5.570266881082352	6.586153572245099
O	-5.542257206647059	7.963204291082352	4.237215632245098
O	-3.048629836647059	9.898744341082352	2.103339922245098
O	5.205623333352941	7.505160151082352	7.456081352245098
O	7.657725423352941	3.0668019010823526	2.712973252245098
O	9.237992113352941	0.6726757310823523	0.3804439977450982
O	12.70976200335294	0.6098637080823524	1.4186301022450982
O	8.886929583352941	9.147624421082352	3.936362162245098
O	7.9044107433529405	12.649375061082353	5.193491572245098
O	4.254198553352941	11.831981061082352	-2.083652347754902
O	1.773084943352941	9.115608731082352	-2.5438127877549017
O	1.546921573352941	7.448851011082352	-5.8109004977549015
O	-2.291034366647059	8.118486171082353	-5.751763067754902
O	-4.956466156647059	9.371451441082353	-3.4999512477549017
O	-5.895171246647059	6.623668931082353	-1.0917018077549019
O	-8.65184384664706	6.190421611082352	1.4098664622450983
O	-7.352006346647059	3.8681073910823525	4.084384842245099
O	-9.013505846647059	2.108293903082352	6.986081692245099
O	-9.18773010664706	5.124164731082352	9.247361022245098
O	-13.16339219664706	3.3121478610823525	5.5462464122450985
O	-2.242156346647059	-12.907141538917648	4.542002842245099
O	-3.890239466647059	-9.425674138917648	4.253460842245098
O	-6.9007739466470595	-8.840148138917646	2.0914353722450985
O	-5.847326186647059	-5.673691448917648	0.2825926065450982
O	-8.19100742664706	-3.8943474089176475	-2.1153333077549017
O	-3.214422026647059	-4.119362758917648	-3.869982777754902
O	-1.4081969866470592	-7.9067512089176475	-7.515222007754901
O	-0.7273309976470591	-10.547291538917648	-4.8709536177549015
O	2.689598453352941	-10.390537638917648	-3.263129417754902
O	6.853109083352941	-3.2663494789176473	-8.024055187754902
O	4.855979183352941	2.5501263210823524	-3.3953102577549017
O	5.491387103352941	5.402408011082352	-1.3974514577549018
O	9.177017273352941	5.122626591082352	-0.8532177677549018
O	9.92853643335294	3.2554417110823524	-3.891670987754902
O	10.16731063335294	-0.1407628989176477	-5.521571677754902
O	11.33212620335294	-3.665456498917648	-4.853522927754901
O	12.378310603352942	-6.502878998917648	-7.120426647754901
O	11.08601740335294	-9.205162338917647	0.2699349169450982
O	7.800807973352941	-8.131473638917647	1.490049002245098
O	7.057375853352941	-8.015747048917648	5.132467902245098
O	3.4440636133529408	-9.116987938917648	4.663214322245099
O	1.632890263352941	-11.604151938917648	2.537774602245098
O	-0.788812106647059	-9.515534338917647	0.43890830624509825
O	-3.821461016647059	-10.773318438917647	-1.3434355177549018
O	-4.556952896647059	-8.336129248917647	-4.137198797754901
