49

O	21.208125711639294	0.14256939405688007	20.957420894061766
O	20.825192715619725	1.1180932559397516	20.189747380178105
O	19.855297071274865	-0.8410823795604478	17.524852792560974
O	20.78642036676423	-1.2318542490539308	20.646968150651137
O	20.26623909580518	-1.3347753618792866	21.77117943386522
O	21.989547386220615	0.5580874680168806	19.479314415166286
O	18.906813408476214	-1.3746038816242532	16.65974453196165
O	23.077943354085203	1.1969760953120252	19.86081220816193
O	18.738882371030016	-2.6700417301957398	16.61557608456847
O	21.2233339386202	-5.784565888694646	15.671730578583192
O	18.621866741912395	-2.6116515974391494	18.081772175725057
O	18.53443359236771	-4.014074124410296	16.297264996121257
O	24.031353283331736	1.1764489231126805	18.822158530189697
O	22.84834440618692	2.456855531839607	20.122005846037435
O	19.41840694184418	-3.2592800373582045	18.91306640976352
O	18.73642049689591	-4.886154280270029	17.38208416385598
O	19.791462021375004	-4.458449942796154	18.29360999405931
O	20.410961737346863	-0.17236093775980715	15.772751120540615
O	19.859534410811996	0.5889282762697501	19.193570077944326
O	22.44678893368176	-1.8388579236104516	21.881896484270037
O	19.068981936443116	-0.13628024389443993	19.90482042440774
O	21.759510193148298	-2.233667942432186	20.776978254709633
O	20.455259091959004	-0.6425166123103989	18.61453941263916
O	20.96920671008809	1.3871793609973082	17.404371520136365
O	22.288197177232284	-3.330309850768679	20.44976063783954
O	23.16592117979199	-1.7230369168092918	17.999237425317414
O	20.952798558426576	-4.552906080548135	15.322640977088232
O	20.81055694314324	-2.8393622254059823	14.65872515302706
O	23.665874254484592	-3.0879435805003452	20.374551879200204
O	24.197873964887293	-1.8814979219957741	20.695049448249318
O	25.29962734077298	-1.3049013400994867	20.44584825598083
O	25.717484416689196	-0.2599824584598348	21.17476248500754
O	24.946262920034467	0.3067561831402015	22.135130064424235
O	23.0373663837674	-1.1722328649892604	16.85419292087323
O	23.93622663367058	-0.4140399124665543	22.646994857351316
O	23.722082696680786	-1.5742150548095817	21.900060328920855
O	20.14301198120036	0.499179380587617	16.989814283785908
O	21.675606205992228	-6.258826823849644	17.059476821923525
O	21.264002939265474	-1.0001109435732565	16.065272618296095
O	21.27424313148246	-2.191555398672267	16.498761400287492
O	20.352063573390364	-7.041147003278416	15.587062601018634
O	21.865292667720176	-2.206098643988047	17.661909747306836
O	22.40090689027276	-6.58253985689962	15.121637622556172
O	24.032856149641482	-3.0035143918360387	18.050206844177087
O	23.039391583763155	-3.9179418563157284	17.398727240219777
O	23.543536629345397	-3.647355339196254	16.105470984515975
O	23.353553400848504	-2.1627028411589952	15.803263822418232
O	22.209604587844826	-0.12201424449402376	16.52576273934009
O	21.176177951137717	-3.2154694844984384	15.674863203342447
