45

O	21.49378419873033	-1.0306864195159506	19.066136367152414
O	22.72100397612798	-0.7475433098243327	18.39351863863486
O	20.17800948759789	-0.16121847171746007	21.07848624464814
O	21.27139541574172	0.15060340227920888	19.444804835564838
O	20.29940187688371	1.9495688083106328	20.876439190676262
O	19.521537788635406	1.8304692794936623	17.127327004927427
O	20.74974232062046	0.6905000730926933	20.50521982169525
O	21.668319921291467	1.1848057135435526	18.522755874071564
O	21.873478358520643	-1.799041738694609	15.880853337821014
O	20.6799546845117	2.1790711054519294	22.28761926538196
O	20.693056792693902	-2.9348108713666017	17.27672248221731
O	22.66217459770395	-4.09640356861782	16.5146021931642
O	20.235065231105207	3.3163802514724763	23.146971301703957
O	25.520325938837118	-1.7720815630965063	22.105292186527045
O	23.95748950144854	-2.0118661738753074	17.73768140697534
O	22.10831369481588	2.513918145194004	22.593713058755647
O	20.477830386450435	0.9777621036003139	23.23603421841255
O	22.739324556868215	1.3952909600318915	19.497746818752237
O	23.486761586666972	0.29071494299488676	18.947362102123204
O	20.819518032794324	2.322559037406598	18.817835368723255
O	19.836181306564903	1.3176682691645794	18.423217038619764
O	20.119773103181338	-0.031306728869098466	17.918381257803457
O	20.17714069651878	-0.4844511221223926	16.575363210190982
O	18.85133202194984	-1.1772899286066216	16.549062602616257
O	18.582607489282793	-1.7093804195414892	17.875945592788646
O	18.627286024606036	-2.799935046015458	18.616660346150585
O	18.849801849828232	-2.787024149380586	19.9457301141084
O	17.89792333467533	-1.9562906183403004	20.521754416077385
O	17.600929721308454	-0.7931310864009127	19.86355711865532
O	18.095873702059457	-0.6570006167372624	18.636172477608643
O	20.819332633925406	-1.8470720737881705	16.43924411317074
O	20.47243425504364	-4.158749164960971	16.625086420234798
O	21.645864888014337	-4.258306676946817	15.788232515303818
O	20.99227023833228	-3.8635575076781112	14.409917556278963
O	19.855313316271896	-4.88147390922031	14.540771957091788
O	22.90946908022493	-3.0278265128584265	19.548449441795047
O	22.26612152216194	-2.217033718934086	20.590060981250293
O	23.377924445760886	-1.3885764332163948	21.16621915820878
O	17.975374157393944	-4.188791137238041	15.731057884212603
O	19.400724651937047	-3.960711137149616	15.636796106693408
O	23.34557176530636	-1.9257636934123679	18.73915703595504
O	23.096323274377937	-0.6770741079913418	22.277591174776738
O	24.11159649368507	-0.12276846083997572	23.00038655451803
O	25.20295346797224	-0.9364423626399201	23.087382795785174
O	24.708977941450016	-1.7543461212760754	21.031364607523688
