41

O	22.716262098347787	-1.4001099848083607	23.114016699927966
O	22.98114619182891	0.4042621782588012	19.799855659946083
O	25.77795603560452	-2.036950159593682	20.954507388098442
O	24.270687222348815	0.10480576202067837	22.63518491016589
O	23.073630844940837	-3.550265718070694	18.709695040239396
O	24.230047723778483	-3.4521760833912456	21.482582405141425
O	23.92483300718422	-2.625596124411434	19.307713736504198
O	21.281970769279557	0.8459244290338708	21.08477583705297
O	22.532142528608297	0.14900901352069096	21.09692886080685
O	24.18187659052586	-1.838670358278595	18.185282521082016
O	23.216200203913022	-0.4669958378028194	22.19210014576528
O	24.717525560759963	-2.8675552065765118	20.46528816518781
O	19.995684600046093	0.7087731540294433	17.406277276115798
O	18.997621393038	-3.6414434021517694	19.551373574668013
O	21.52993113565496	-2.811776577962389	15.281159825467828
O	20.951704393632486	-2.3551460820829524	20.44961683560826
O	20.3940710584513	0.7343502470508767	16.018421680445307
O	18.918997312077074	-5.322355143050414	15.075843561970238
O	21.18435854238214	-1.709683809265623	14.40045307923615
O	20.69081612691613	-6.5639877549566314	13.91025488528356
O	21.997520032663303	0.04335026969978362	18.730000186385425
O	22.258931629972317	-3.330621160399737	17.597828425229263
O	20.491344288238952	0.9262350582732339	19.839904305329572
O	23.20161825381837	-1.5204020469838304	17.141636195114916
O	19.08544247994347	-1.5084580759799988	15.900919449198016
O	20.072852745812693	-2.888412577979497	17.260208111402836
O	20.57863326918497	-1.6171116408265214	17.74730518961153
O	20.3770503787017	-1.1710368598582237	16.39597727802257
O	18.721434305228804	-2.5540298345463577	16.820853516784105
O	21.105596384233504	0.9683170553388969	18.655369852977437
O	22.533859680772157	-2.481255721016458	16.617776405570222
O	19.483617191751858	-0.7555498824276884	17.82155386219221
O	18.47356343366597	-1.145224227612846	18.519362056847704
O	19.109940798305978	-1.3582632249556956	19.81443612075437
O	19.818957601043863	-2.44832797882792	19.736245052833812
O	20.141266535438398	-3.440035768603338	15.956769036671357
O	20.621149978652134	-4.509599767944699	16.77459528160219
O	21.313850663026464	-5.258250287591881	15.749622332272649
O	20.327294742038475	-5.730491617334077	15.025632628465766
O	19.315050786621253	1.934921579993361	17.535658208387954
O	21.896573046837947	-3.7712455001706693	14.243612109984642
