95

O	-2.7405090218679997	0.2690195945439994	-1.2743750961199998
O	-4.469516001868	-5.158464162456001	0.3600044488800004
O	-4.803574451868	-2.3799776824560004	-1.0315599491199996
O	-1.6726459828679998	-4.534036342456001	2.26564263888
O	-5.935493921868	-0.8883024624560006	0.11154445488000031
O	-5.230089001868	-3.939534812456001	2.0600140688800006
O	-2.986095661868	-0.048451588456000616	0.8355647388800004
O	-3.465169151868	-0.4751954234560005	-0.40143104811999974
O	-2.7720404218679997	-2.7080816924560005	2.6616217288800006
O	-2.9495128618679995	-3.960764512456	2.0726826388800004
O	-0.2599844518679999	1.1400808675439993	-2.53004335112
O	-4.160014031868	-4.2820082224560005	1.4298224488800004
O	0.7380087281320002	1.3265908975439993	-0.26924542211999974
O	-4.691565481868	-1.1909888324560007	-0.5738875821199998
O	0.6887456281320001	-1.5820851024560008	1.4977002988800003
O	1.8933950281320002	1.1795940875439994	0.5106270388800002
O	1.9412545981320002	-2.1616383724560007	1.4817129688800006
O	-0.28262285186799985	0.38877494654399936	-3.7390027511199997
O	-0.22702563186799973	-0.9373918824560005	-3.8492917611199995
O	0.5995237981320001	1.1149476705439993	-4.48336346112
O	-1.509689850868	0.8918080875439994	-0.9308841331199997
O	-0.4109910208679999	-3.7624982924560006	2.0638830188800004
O	-1.6026434618679999	0.38510148254399945	1.0384778688800003
O	-1.4574221188679999	-2.0777088124560006	2.56174322888
O	1.399175438132	-0.5101941184560006	-1.7704625311199997
O	1.5913404181320003	-1.1036815824560007	-0.5748534811199997
O	-0.029593471867999765	-0.4694438844560006	-1.7438615641199997
O	-0.35720316586799983	-1.4488630324560008	-1.0334060981199997
O	0.7666154981320004	-2.3331095224560006	-0.9202354261199998
O	-0.8287440508679998	0.9171317455439995	0.19439643788000027
O	-0.2861350558679998	-2.5742276924560006	2.6393607988800003
O	0.8772244581320003	0.6982309605439995	-1.8198036411199996
O	0.7024011381320001	-1.7104410724560006	-4.54434594112
O	1.124254958132	0.3698277305439994	-5.53099094112
O	1.6715520481320003	-0.8407055214560005	-5.04302520112
O	-0.25320720186799983	-1.6277074524560007	0.23835575888000038
O	-1.2288867861679997	-2.6472553824560006	0.29607725888000036
O	-1.6745248058679998	-3.3320212524560007	-0.8589590818199997
O	-1.4867391098679998	-4.663448032456001	-0.8563867948199997
O	-0.8403933388679998	-5.228317602456001	-1.9163385711199998
O	-0.4591736138679998	-4.416911792456001	-2.99117164112
O	-1.8308202718679998	-2.7947609224560006	-2.07624272112
O	-1.5674628428679998	-3.5708121624560003	-3.1669600011199996
O	1.007787078132	-0.5000202214560006	2.3958322988800003
O	0.9909257881320004	2.7175440675439995	-0.8369025598199997
O	-0.7836006018679998	12.795378917544	2.3336458988800004
O	1.815439428132	10.037879237543999	2.1272135388800004
O	3.6517334881320003	8.616350277543999	5.16508867888
O	3.378652768132	4.953631747543999	4.53478853888
O	4.982489458132001	2.3736828175439997	6.83887421888
O	-0.021011501867999716	0.8879572335439995	5.46805742888
O	-4.472671611868	1.9242885975439994	7.99621876888
O	-4.952691251868	5.548152367543999	7.29976560888
O	-7.186314341868	6.073252497543999	4.23091942888
O	-10.328757781868001	-3.5882789724560005	3.3751148088800007
O	-6.781367621868	-4.747082202456001	-1.9354918411199997
O	-5.428918681868	-5.959722542456001	-5.2819248211200005
O	-7.354529181867999	-8.732628122456001	-6.53088957112
O	-12.798839861868	-2.9241834824560007	-1.2795409241199998
O	-15.571873561868001	-1.0398213224560007	0.5649808488800002
O	-11.162437131868	4.746058017543999	-3.21187279112
O	-7.573533921868	5.147757697543999	-2.4933310611199997
O	-5.010377441868	6.078485587543999	-5.07120046112
O	-3.626787631868	8.711063947544	-2.6529765511199996
O	-4.181003051868	10.019388197543998	0.8373524288800002
O	-2.156056934868	7.850165887543999	3.1671906788800004
O	-1.1121303208679998	7.976913097543999	6.73927487888
O	-0.6618368218679999	4.469527997543999	7.984037278880001
O	0.7910384081320001	2.8654644375439995	11.07495394888
O	-1.4790013188679998	7.109459807543999	13.23716564888
O	2.282380968132	6.951312987543999	12.51079714888
O	10.260053138132	-8.639102252456	3.6764829888800006
O	8.324537858132	-5.471007852456001	4.69431214888
O	10.119812638132	-2.1169722024560005	4.80474944888
O	7.602399268132	0.08146000374399939	3.0322649388800005
O	8.031287568131999	3.8612829975439995	2.6860963788800003
O	6.019500858132	1.3659133775439993	-1.5691150551199997
O	9.281482338132	0.0980000291439994	-5.97141464112
O	10.313887738132	-3.2464151424560006	-4.55390829112
O	8.097649748132	-6.200458132456001	-5.33153460112
O	1.501816118132	-2.3704021524560006	-11.21315225112
O	-3.580103191868	0.2573411745439994	-6.09426791112
O	-6.691563041867999	0.023524280543999396	-4.02168627112
O	-8.499423361868	-2.7526663724560003	-5.72769010112
O	-6.697201111867999	-2.6509395724560005	-9.02369781112
O	-3.604579031868	-3.9689936124560004	-10.85413265112
O	-1.3805730294679999	-7.029718092456001	-11.18846545112
O	1.0928964781320003	-8.200995332456001	-13.78493655112
O	2.377121668132	-10.776565582456001	-4.44973920112
O	1.543862398132	-12.153973282456	-0.9907466831199997
O	4.378780168132	-10.216178882456001	0.6889643688800003
O	7.938968758131999	-9.299823092456	-0.1682664911199997
O	8.002902508132	-5.457261252456001	-0.2325388681199997
O	11.053723838131999	-3.3134063824560003	0.05696700888000028
O	10.254765738131999	0.0329026165439994	-1.4927562091199997
