54

O	23.12422181630732	0.607206703027551	20.6552504383941
O	22.5661373809308	1.1690613705340351	19.55608932401346
O	20.360324807855605	-1.3749480469571984	19.48079347967107
O	19.870817224140463	-1.5025515868544013	16.01899753338332
O	22.588295202911365	-1.406848244619106	17.40172454428325
O	21.669070512488386	-4.380356915300468	15.691383178706133
O	20.187558035144654	-4.57093706022907	18.89211635870499
O	22.463548765886596	0.6056813780004586	21.930600578856946
O	22.213405691303134	1.8063908402722446	22.30605985568286
O	22.067337865397704	2.170483854830334	18.760139730317647
O	19.45983352651574	-0.9189620792789981	20.42741958260885
O	18.70371423487577	-2.1672867877681528	16.508123868629735
O	23.80212253137966	-1.1397602364117567	18.098461604703378
O	21.953368809753915	-5.7294106171744446	15.359420890595167
O	20.144025988763396	-4.038676018188109	20.17520141676959
O	18.14984840649217	-2.450090624111769	17.785310189547083
O	18.998241756544264	0.4236625347365752	19.983671757070727
O	21.476612757461357	3.051509014927134	19.81546976369502
O	19.632500982476415	-0.6706635792398208	21.783104031011817
O	23.70426425328752	-1.9456693436982029	19.24903346981558
O	20.741762613537723	-5.4034129821801296	14.424315632867373
O	21.48280188873558	-3.861728027322116	20.58036916975425
O	21.31094943495465	1.7805985855394622	17.716524103153425
O	17.563334482729836	-2.828402262483926	18.98430182911359
O	17.69744196305206	0.11815046411532149	20.45578727391065
O	24.214702327003092	-2.745977188997859	20.296005182614962
O	20.323844122908042	-6.81408102089801	14.366394117725076
O	21.553385312183767	-3.097736477027273	21.790319680527183
O	17.404198787299578	-3.413798913094565	20.25573473802769
O	24.47530466547569	-2.3758624163480175	21.67047149404247
O	20.79835113629037	-3.4007480877595597	22.911730848256532
O	20.37457178813226	-7.855650003305177	15.374172185881717
O	21.078355613188844	-7.27695076867578	13.439694688957399
O	19.652359288686643	-4.001664912663497	22.74840571217787
O	22.614772302160723	-0.194484294020848	23.144147412242997
O	19.699198668694443	-5.407002103143925	22.582567133728418
O	18.537910429463395	-3.3622344491648324	23.331083385033974
O	21.1354318054308	0.7060467137983775	19.67452958675691
O	21.314130270712678	-0.6266709861304366	19.93245395492216
O	20.69103500400381	1.3106545481331349	20.70944859647979
O	19.865389144187844	-1.0499981339664801	18.268832450610525
O	20.454385642285537	-0.858579039716518	17.119082509381098
O	19.12224300380993	-0.06463967378466484	18.153501887751645
O	21.189859359164306	-1.60414745280369	15.485095608046242
O	22.204786280789822	-0.8123176988008657	16.23306173097278
O	23.120059063373212	-3.6048529788941908	18.008001777386838
O	22.41423479491053	-2.834436417162644	17.34989043436456
O	22.399122141836045	-3.3227231581231242	16.02474088492093
O	19.633452250707624	-5.125870945310618	16.315366592200157
O	20.59797848687654	-4.490968001592668	16.61619284706375
O	20.717871219882316	-3.944553463062462	17.852375299070207
O	18.21871129486384	-5.453560809505529	18.104038775465977
O	19.331155821061262	-5.628592385710197	18.59774855336228
O	19.72698759912179	-6.911819401859782	18.181013890802117
