96

O	-1.7171738458999997	-1.3666330604999992	0.03429862337200014
O	-2.7148472588999994	-2.138747100499999	-0.16124249352799985
O	-2.7086538789	-0.3451541504999993	-1.6389436746279997
O	-1.3215460391999996	-0.8066096704999992	-1.1549747846279999
O	-0.3983778658999996	0.2562487555000007	-1.0025001596279999
O	0.7138476911000005	0.3080256295000007	-0.14546987062799988
O	1.8715103111000004	0.5903650995000007	-0.7920911686279998
O	1.0044679311000004	-0.9915156204999993	0.46451046337200014
O	0.7723433211000004	-1.8480083304999992	-0.5548447226279999
O	0.02365628110000051	-1.0047108404999994	1.6318611453720002
O	-2.1421417988999996	-2.315233500499999	1.9988419753720004
O	-0.9779323648999996	-1.7782269504999995	1.0960119353720001
O	-2.7017260288999996	0.7872950745000007	-0.7783074436279999
O	-1.7815815028999995	1.7679893645000007	-0.8394037966279998
O	-1.6593174858999995	2.6941742995000006	0.07319489137200015
O	-2.3101712289	2.4426670395000007	1.2314455553720003
O	-2.6299855888999994	3.496592949500001	2.007009095372
O	-3.1140697988999992	3.2343776995000004	3.245058935372
O	-4.0764854689	2.2998570795000006	3.245497155372
O	-4.021368088899999	1.2945437375000006	2.356215315372
O	-3.2445434188999993	1.4625060765000006	1.2759895653720001
O	-2.9210660888999995	0.42699359050000074	0.48627555037200015
O	0.23259138110000044	-0.4439717304999993	-2.2257907946280002
O	-0.7522497518999995	-0.15558904049999933	-3.257310154628
O	-1.6869939928999995	-1.0520489904999992	-3.549185654628
O	-2.4419627188999993	-0.7265965804999992	-4.672172414627999
O	-2.9136206088999996	0.5182415835000007	-4.697854604628
O	-2.1962750698999995	1.5015105665000008	-4.109290554627999
O	-1.1251018888999995	1.1231989942000007	-3.383119964628
O	-0.1371918788999995	0.32690248350000073	1.5882038853720002
O	0.8094253211000006	1.0814876565000007	2.300608575372
O	0.2162854711000004	2.2186330295000007	2.647716755372
O	-0.08076061889999964	2.6468039895000004	3.897034395372
O	0.5692020211000004	2.098390431500001	4.9419154453720004
O	1.3759484411000005	1.0686262437000007	4.669733965372
O	1.2765272211000005	0.5198200365000007	3.427520285372
O	-1.8931387758999996	-1.3799630604999995	3.000496175372
O	-1.8746553558999994	-0.1261062604999994	3.381374155372
O	-1.9604007158999996	0.09303911950000066	4.701976665372
O	-2.5213587988999997	1.0762436062000007	5.419830795372
O	-2.5259461188999994	1.0618854995000007	6.761505595372
O	-1.3300167164999996	0.6327801605000007	7.289202755372
O	-0.7280820888999996	-0.3777375804999994	6.6341601053720005
O	-1.0639610948999996	-0.6715394104999992	5.373882835372
O	-0.4760225968999995	-1.6826132104999993	4.774485475372001
O	-0.7390744298999995	-1.9021171004999993	3.499014515372
O	2.6752734511000007	-11.4531383505	-5.737069174628
O	3.8831293911000007	-7.8559817305	-5.537866474627999
O	7.133243921100001	-6.7950844104999994	-3.923738704628
O	6.0237565611	-3.8805962705	-1.9063165746279997
O	8.584728291100001	-1.868040580499999	0.11480902837200015
O	4.1823757311000005	-2.8040542004999995	2.853088325372
O	3.2709723411000002	-6.9238488605	6.117862005372
O	2.7991469611	-9.7459893505	3.770410205372
O	-0.8902062548999996	-10.2569423505	2.885029275372
O	-5.023267498899999	-4.4680652604999995	10.078224175372
O	-6.6800686589	0.3498310685000007	5.758627195372
O	-8.205211758899999	3.2256324895000006	3.741344485372
O	-10.777136858899999	4.8108295295	5.781207955372
O	-9.9843229289	-4.4434096305	8.160113755372
O	-9.324648308899999	-8.8812140005	1.386762135372
O	-6.2335456489	-7.4285297405	-0.09564720122799986
O	-6.469623298899999	-6.011795290499999	-3.533852274628
O	-3.408959018899999	-8.104038470499999	-4.501197664627999
O	-0.9854273358999995	-10.5129746505	-3.080483984628
O	1.7789106511000006	-8.5298635905	-1.5124613146279997
O	5.1482620711000004	-9.3768454505	-0.10453640462799986
O	5.9373724411	-6.781934500499999	2.523291865372
O	9.109700701100001	-5.944379060499999	4.480309685372
O	9.6525695011	-11.1399670505	4.319129885372001
O	11.5396075011	-8.786309920499999	1.9609165453720003
O	8.526461151100001	10.5251514595	2.282816835372
O	8.399455511100001	6.7011432095000005	1.891568115372
O	10.024738601100001	4.9880350595000005	-1.034823137628
O	7.275038341100001	2.6108465695000005	-2.040560724628
O	7.7363619711	-0.0023400704999994026	-4.749044164628
O	2.9668375811	2.410112829500001	-4.915378524627999
O	1.7386703211000005	6.7381846995000005	-8.228824394627999
O	3.1156355711000003	9.307230499500001	-5.8168065146279995
O	0.7179154311000004	10.5803864595	-3.188717014628
O	-10.0117341989	8.3438960995	-6.549401404628
O	-7.2958593289	6.069362299500001	-5.296101744627999
O	-6.7129558789	-0.23716783049999934	-1.4865614446279998
O	-7.4015902589	-2.5006668204999993	1.534404475372
O	-10.3476756689	-0.7791001504999993	3.114063695372
O	-11.3111812989	1.3262651755000008	0.2505285823720001
O	-10.587971398899999	4.6126163795	-1.5339877646279998
O	-9.843157698899999	8.2629493995	-0.9664976686279998
O	-10.354996418899999	11.3502805495	-3.089747994628
O	-2.8848396488999994	10.673372759500001	3.244550445372
O	-1.0399306008999996	10.072875469500001	6.474070435372
O	2.2593807611	9.4931968495	4.667527925372
O	4.0657375011	11.0801209095	1.7745791353720002
O	4.5277665811	8.2274649595	-0.7398455396279998
O	7.002078911100001	8.0997792895	-3.521993484628
O	5.6991822211	5.6527135795	-6.073774874628
