41

O	21.415851791219545	-6.585423129863573	13.77170501759436
O	20.626020740289295	-5.478592417011284	13.540326016069587
O	21.10927807594139	-4.247439856270179	13.30293946862799
O	22.37403625437225	-4.122618025979667	12.990551230150169
O	23.163393137152497	-4.934449367053312	13.708889740654218
O	22.703252996793093	-6.188228258081125	13.696040320474825
O	22.990808725871545	-2.5740031547081372	13.63623922120155
O	22.53628750298182	-1.8056470547359544	12.574337886494908
O	24.266156153209106	-2.3355534791535475	14.137828913797206
O	22.14173026683672	-2.6097922094543504	15.116973254226352
O	21.14531668734382	-2.104301270261648	14.3340050013093
O	20.226153130240885	-1.1433441343619313	14.480967493039946
O	19.380259862203644	-0.569348466081939	15.48283888520783
O	19.069099412859813	-2.0738942596153382	14.090639170894175
O	22.649368903903127	-3.8354369269837507	15.494761479636432
O	22.463534078039466	-4.876628138865666	16.373728416143834
O	22.80160965802737	-6.063753238918716	16.62464340057874
O	21.057436206103304	-5.043999793776582	16.607921840191683
O	20.91564973951672	-4.431015185845828	17.878052732979803
O	21.919210628936913	-3.5690321850068774	18.42700372930131
O	23.054434005086186	-3.847726650312709	17.999959819486765
O	21.813750190386486	-2.234614532626961	18.723562235990126
O	21.59347725782561	-1.5336321620896758	17.57542634585347
O	22.824658724377166	-1.6686770660548729	16.90045088045985
O	22.96656573093231	-0.3959892075852691	16.304887732390615
O	21.918141306866463	0.27212521777057574	16.972307871566375
O	22.637958625299202	0.1662909946813551	18.36426768548948
O	21.949446279030308	-0.270738377608009	19.458509739951527
O	20.70128847996921	-0.3210684717583081	19.089405687235175
O	20.86052484788844	-0.3553080452694719	17.536635381373358
O	20.682126758864584	-4.023900962707426	15.642212327354848
O	18.54629124172947	-4.595311386802851	16.066897760389995
O	17.38804033937197	-4.118627247163472	16.69728189539723
O	17.618095008359465	-3.6122659923803266	17.98464617108602
O	18.43404471752644	-2.524598277314033	17.98662203827231
O	19.459635049982996	-2.9213710257597825	17.23885318246655
O	19.522365566216912	-3.704072091573176	16.199933762171092
O	21.079779299455947	-7.548120924498467	14.67804523736058
O	19.76943916192801	-7.580895863553452	15.119805415025667
O	23.974407336550666	-1.7520042407557266	17.823877826670525
O	23.57517360893943	-0.8040196046843913	18.669442537406482
