64

O	-1.5951491161707319	1.7115084530243911	-3.5477458723170736
O	-2.465045032170732	2.556465282024391	-4.260510472317074
O	-1.4739619501707317	0.2216591570243911	-5.416751832317074
O	-1.0777506732707318	-0.29645935797560896	-3.583427412317074
O	-2.618807452170732	1.0796115701243911	-4.977660302317074
O	-3.1719022421707317	2.546433032024391	-1.7164904933170742
O	-3.422318562170732	2.800116952024391	-3.2295215923170737
O	-4.086301632170732	1.5714228590243913	-2.604032082317074
O	-1.851933421170732	-1.007806487975609	-5.401682272317074
O	-0.33357547017073175	-0.6502172979756089	-5.219671812317074
O	0.07504368782926818	-0.8192444479756089	-3.7679161323170742
O	-1.8281176641707317	-1.5168288179756086	-3.164005242317074
O	-2.849116222170732	-1.915690967975609	-4.503043482317074
O	-1.5640991741707317	-2.592613817975609	-5.4308335823170735
O	-0.024151752170731733	-2.2023660979756086	-4.863227932317074
O	-0.5004779131707318	-2.3898523779756085	-3.274027242317074
O	-1.8340077781707318	-3.037713547975609	-3.885327972317074
O	-1.8526434521707318	0.41504824302439114	-2.748870392317074
O	-1.4109010911707318	2.265454392024391	-2.129907324317074
O	-2.209421532170732	3.3405727220243913	-2.743321872317074
O	-4.0631923621707315	0.3196611180243911	-3.444138502317074
O	-3.221968912170732	0.15339373202439122	-2.058388388317074
O	-1.4514088271707317	0.7949041180243912	-1.717867057317074
O	-9.00814391217073	-3.1742378379756087	2.9771093276829266
O	-9.87046429217073	-6.659332997975609	1.811517127682926
O	-4.511948522170732	-5.551653467975609	1.2850736076829261
O	-0.9152801761707318	-6.861074417975608	5.289749557682926
O	-1.6856410401707318	-4.143232087975609	7.761093117682925
O	0.2964732878292682	-0.9802197579756087	6.841641417682926
O	0.24544361782926827	2.2174585420243913	8.978854987682926
O	1.6490924478292683	5.681509622024391	8.465486107682926
O	10.816128517829267	-5.461456497975609	4.995250947682926
O	10.107667917829268	-4.746882837975609	1.3246533576829258
O	6.522529607829268	-4.854192627975609	0.18254055768292599
O	4.2791945578292685	-0.9954165579756087	-4.494091932317074
O	3.046867537829268	0.7498681090243912	-7.606199412317074
O	5.997831407829268	0.5867409460243911	-9.929275732317073
O	8.057453777829267	-1.382977567975609	-7.495472612317074
O	8.79389962782927	-2.4231366879756084	-3.9489694423170736
O	8.846545117829269	-0.12405695797560878	-0.918922341317074
O	10.74370311782927	-0.32251975797560894	2.4022068276829263
O	8.694242837829268	-0.5795434579756089	5.5372055776829265
O	4.1106051478292684	-2.6766341879756093	8.960064187682926
O	5.740631897829268	2.9765177720243914	6.097024467682926
O	4.659531757829268	5.309183662024391	3.301797887682926
O	1.2020363078292684	4.116924172024391	2.730126387682926
O	-1.3046662201707317	6.555362442024391	1.217335217682926
O	-3.6500038421707317	5.631857272024391	4.000705297682926
O	-3.629050372170732	3.507253152024391	7.150294347682927
O	-4.8214033921707315	0.09883326202439124	6.020993447682926
O	-6.037284992170732	-2.906625657975609	7.980732097682926
O	-5.307298272170732	-5.837098717975609	5.700128787682926
O	-13.257401282170733	-7.857942667975609	-4.260699972317074
O	-11.430128682170732	-4.8065915979756095	-2.771510232317074
O	-10.214320872170731	0.3668990280243911	-3.948707922317074
O	-12.437874582170732	2.425515472024391	-8.394709052317074
O	-4.127595052170731	6.559336472024391	-10.165607692317074
O	-0.34388899317073174	4.168443662024391	-4.431608592317074
O	2.3141181578292684	2.818083502024391	-2.124092398317074
O	5.053971587829269	3.3373862020243914	-4.5137390423170745
O	3.482979797829268	5.828978332024391	-6.782413882317074
O	1.2122061278292682	6.2293684320243905	-9.807858712317074
O	0.33871211782926824	4.697299802024391	-13.143696512317074
O	-13.659471782170733	-1.517993507975609	-6.274009162317074
