95

O	0.8345964775199998	0.022181173300000023	2.14300809722
O	-0.7239536474800002	0.4220777333	2.0550195272200003
O	0.013091364519999801	1.8687901803	1.5789422772200001
O	0.4782178515199998	1.9480080693	0.2601231802200002
O	-0.39787950348000023	0.9256362335	-0.3272520077799998
O	0.08741386441999979	-0.38283678069999993	0.025239455220000193
O	0.8504310075199998	-0.9179182707	1.1397120372200003
O	1.7447464675199997	0.1127890883	3.15897347722
O	3.02079337752	-0.5082249307	2.6852634172200003
O	2.91869468752	-1.6066367007000002	1.9012178672200002
O	3.3536744875199997	-1.8965063907	0.6589994192200002
O	4.373001847519999	-1.0901686407	0.2799651382200002
O	4.51139196752	0.06441179929999996	1.0123948472200002
O	4.246536507519999	-0.07342617569999998	2.3882711972200004
O	-1.72706723248	-0.10022497870000002	1.09375611722
O	1.8830582675199996	0.45380138029999995	-0.7904816917799998
O	1.5477319375199996	1.3009774143	-1.80019969278
O	1.4249098575199999	2.6375015693	-1.7874007027799999
O	2.2810543275199997	3.2818216693	-2.67258611278
O	2.0786234475199996	2.8867293393	-3.9534358727799996
O	1.8182606575199998	1.5621890093	-4.07965036278
O	1.5471768175199996	0.7648892853	-3.0109890827799997
O	1.1331812775199999	2.1348651293	2.42687419722
O	2.3550271075199998	2.5531122592999997	1.8028395272200002
O	3.35738495752	2.7467399393000003	2.68567862722
O	4.52876616752	3.1850079593	2.17839421722
O	4.505198207519999	3.3523168893	0.7891840602200002
O	3.39217351752	4.0057274693	0.35710987622000023
O	2.23082569752	3.6301137793	0.9699210272200001
O	-1.1227133824800002	0.9617171833	-1.38779405278
O	-0.011493739480000209	-1.2227716606999999	-0.9255766267799999
O	0.30014082151999977	-1.8541922107	2.12425872722
O	0.26355161951999984	-1.5532258607	3.49228556722
O	0.9916937745199998	-2.2336814807	4.440560777220001
O	1.7749641675199999	-1.7043399707	5.425574687220001
O	3.11365300752	-1.8956786807000001	5.61640406722
O	3.71560598752	-2.9113789207	4.9271026872200006
O	2.86770231752	-3.8576469207	4.382052967220001
O	1.5892434275199996	-3.4130707606999997	4.0648201772200006
O	-1.45570752248	0.14821168429999998	3.25410208722
O	1.7636126775199998	1.0840460553	0.3853735652200002
O	3.07092364752	-3.2570934907000004	0.1655812772200002
O	2.5899468675199997	-3.8508746807	1.1823761172200002
O	4.27228543752	-3.9664330607000005	-0.22151179077999983
O	4.466707587519999	-5.3841490407000006	0.0643652322200002
O	-4.2939857024800006	-6.096409420700001	-10.54425773278
O	-5.321396072480001	-3.3707318507	-8.10854255278
O	-7.94059150248	-3.7656593406999996	-5.39553168278
O	-6.200960212480001	-2.4118646607	-2.37235134278
O	-7.9499429924800005	-2.1439968407	0.9871789472200001
O	-2.98396454248	-4.031434130699999	1.79193491722
O	-1.4837569524800003	-9.0383324007	1.5646395972200002
O	-1.8224607924800003	-10.000032690700001	-2.0325057627799996
O	1.48668622752	-9.4239769907	-3.9055773127799998
O	7.303501967519999	-7.8356218807	4.16661915722
O	8.13647109752	-1.6842401706999999	3.16815646722
O	9.249273217519999	1.9576162193	2.88987127722
O	12.356241237519999	2.4616376992999998	4.718451877220001
O	11.715120837519999	-6.537721600699999	1.4811027172200002
O	9.17788054752	-6.4640732507	-6.214052102779999
O	5.8821234775199995	-4.716197770700001	-5.908360622779999
O	5.26701221752	-1.6320249307	-7.851251382779999
O	2.01356787752	-3.2073174006999996	-9.17236838278
O	-0.012511339480000189	-6.3154525507	-8.77275300278
O	-2.15777900248	-5.8647242107	-5.7115020227799995
O	-5.082939282480001	-7.771299600700001	-4.29717612278
O	-5.04983688248	-7.2454471707	-0.5501641267799998
O	-7.49872725248	-7.975957340700001	2.23163952722
O	-6.65365420248	-11.6599184907	2.5109035372200004
O	-8.38152813248	-12.2493606907	-0.7950237867799999
O	-10.70361336248	-9.212584490700001	-0.7929511987799999
O	-6.86952796248	6.7887330292999994	9.71352844722
O	-6.912338092480001	3.8609360293	7.196148717220001
O	-9.34761218248	3.9447651693	4.268747587220001
O	-7.04910310248	2.8984191993	1.41758722722
O	-8.33053878248	2.2691639893	-2.13368807278
O	-3.61545612248	4.817636569299999	-2.0174569427799995
O	-3.06637169248	10.2005053393	-2.3927327627799997
O	-3.79980945248	10.955179809299999	1.2674251972200001
O	-0.8049634074800002	10.931013009299999	3.56586932722
O	6.21163315752	9.2460028893	-2.75209846278
O	6.56945584752	1.7637223743	-2.8307135827799996
O	7.75029815752	-1.5441241906999998	-2.12881037278
O	11.03358193752	-0.6717917607000001	-0.45618446977999977
O	11.38864793752	2.7497026392999997	-1.81673801278
O	10.442320237519999	6.402991159300001	-1.3216863927799998
O	9.90777724752	9.0121284593	1.3773395272200002
O	9.92851429752	12.7936115093	1.2936470672200002
O	4.4335842975199995	7.757585329299999	7.88773714722
O	3.47876358752	5.199532639299999	10.54138866722
O	-0.2227061364800002	5.425028429299999	9.63116786722
O	-2.69399262248	8.1669736993	8.59762223722
O	-3.9463833424800003	7.1688383793	5.083282537220001
O	-7.043691762480001	8.2723928093	3.33307861722
O	-6.492312522480001	7.8261794493	-0.4105899827799998
