40

O	20.524771232509064	1.1760939113123379	18.343003314349104
O	21.972545441784533	1.3609755664165384	18.788955168359145
O	22.45168752747214	2.3020699141490804	19.739984200302217
O	21.567264947579318	3.5177417437448457	19.72687457081014
O	20.228362544807023	3.115898394245702	19.38986661949598
O	20.299321633371367	2.5736719734021833	17.98993387885781
O	20.41309384215906	-0.7726372277893822	17.55648621761645
O	21.283932186304902	-0.6634164442133706	18.560949461100435
O	22.52474986433484	0.07708741390710938	18.380932291547886
O	20.637894213117423	0.5396769801855656	16.910474633111487
O	20.736137653776684	-0.2378463453282409	19.824332583228603
O	21.257811356061712	0.48829357538442153	20.89388436517451
O	21.20889621069516	1.0497726668563478	22.097892995180572
O	20.40866566986761	0.47178992755751703	23.253363920324638
O	22.654718657732797	0.8671387048152739	22.7355783163653
O	21.110083781144073	2.4702129881500605	22.65580944196383
O	19.66982536209038	-0.7215767673730936	20.14449220086711
O	19.90019612101925	-1.5976062408102258	16.654384421928956
O	21.04336706430098	-1.854561562261371	15.70200561781187
O	21.12803971421604	-3.181260382858186	16.369706864935633
O	22.230793657938456	-1.2423290832691951	16.01714585042909
O	21.60395184564469	-2.9490650627344985	17.625128424010253
O	22.371141153954177	-3.763138176574262	15.871519232185406
O	20.953477964565167	-3.4768879472642547	18.711334240136882
O	19.71832918829341	-3.5119840938212046	18.73712413626944
O	21.752895294689978	-3.1860556521205288	19.896697385530864
O	21.095796017838897	-3.2986391883935178	21.086810303195197
O	21.524529165905594	-2.4611843891163803	22.09208850254882
O	22.92455735556903	-2.384549981047519	22.189756037358997
O	23.428847248687415	-1.949511502014664	20.95927196876945
O	23.083705610033796	-2.78576127489384	19.92352041135609
O	24.35951724517278	-1.005887735672683	20.718757070141997
O	23.824238625575592	-2.7803963993593923	18.649393611932023
O	21.56520321364038	-4.3776972130252005	14.446694021015853
O	20.59663424083073	-5.649818006398755	15.161506956698712
O	19.997589395527577	-5.62530589475565	16.379226916588998
O	19.38557727912285	-6.788759932570288	16.734581480246295
O	20.090080534191703	-7.968471358944901	16.42020633240961
O	20.890051208811254	-8.010234418887222	15.338935177032226
O	21.098417182266196	-6.828901029497835	14.718947882509166
