98

O	6.8034877753	-2.28563647384	1.6086536002319989
O	5.2498832653	-5.218955853840001	-2.206681979768001
O	-2.2054461847000004	1.65198798616	-2.812280139768001
O	-0.24441137670000018	2.05646087616	-2.067698389768001
O	4.6533181953	0.19101724315999988	2.3406403602319994
O	4.1951213853	-0.9604821178400001	2.870612700231999
O	3.7471447753	0.95330207616	1.670040180231999
O	2.8714067852999996	-1.1823874338400002	2.741334530231999
O	2.5503972752999995	0.4306976591599999	1.332618670231999
O	-0.057810338700000186	-0.8687431168400002	-2.934580879768001
O	1.0644296802999997	-0.9356486008400001	-3.704123239768001
O	0.37748706529999987	-2.86400347384	-2.183231999768001
O	3.9070400053	-2.10538104384	-0.3061226177680011
O	2.1620318252999997	-5.2660233538400005	-0.12728557876800106
O	2.7313700453	-4.54389370384	2.9128572702319993
O	0.5809028562999998	-0.6870529718400001	1.655361470231999
O	-1.6236943647000002	1.26058174616	-0.35227457476800106
O	0.3168845860999998	0.7788757931599999	-0.27520511376800105
O	3.4862850952999995	-1.9366956638400001	-3.3119298997680007
O	4.9872641853	-0.7539702298400002	-0.31231646276800107
O	0.6559898372999998	-3.35285528384	2.477133220231999
O	-1.8623135747000001	-2.09686649384	0.383237940231999
O	-2.4126711847	-0.8419549248400001	-1.4113346987680009
O	2.2360717252999995	0.28926694215999993	-1.1391311967680011
O	5.3894787953000005	-1.8983261238400002	-0.45272547776800104
O	1.2407926953	-3.14832853384	1.471916700231999
O	2.1114616052999997	-0.8512394788400002	1.677827260231999
O	-0.17148418370000018	-1.60341559384	-1.839172726768001
O	3.8170203753	-3.24799101384	-3.215453409768001
O	2.1828417153	-1.74758945384	-3.4508384797680014
O	1.6731507353	-2.78806536384	-2.683402229768001
O	-1.3477736047000002	1.12401345616	-1.7905638307680012
O	1.2560077452999998	-0.2627277508400001	-0.559679963768001
O	0.8109144292999999	-1.22604044384	0.3148665902319989
O	3.1292434052999996	-4.33889373384	-0.12402880876800104
O	3.5196166152999995	-3.90055727384	1.9419973202319991
O	3.3979248952999996	-6.04248913384	1.451284290231999
O	4.2385960453000004	-4.86524531384	0.885697400231999
O	5.8237242253	-2.62941596384	0.642776820231999
O	5.0054862953	-3.93873590384	-2.7880610397680012
O	0.7980307202999999	-2.53676732384	0.418642260231999
O	-0.8722807347000001	0.2148052631599999	0.242067640231999
O	3.4141327652999998	-3.13833245384	-0.23135327176800102
O	2.1056588353	-5.65581615384	1.1593574802319988
O	3.5336342152999998	-5.62741719384	2.723875560231999
O	2.3868222052999997	-3.64662824384	1.385303440231999
O	2.6105145153	-3.62348148384	-2.7183012297680014
O	-1.2504509547	-1.1983582838400002	-0.615282658768001
O	-1.6246455547	12.20931463616	5.271098250231999
O	-3.6022325447000005	9.14777599616	4.199425720231999
O	-5.2681157547	6.7946397761599995	6.694351830231999
O	-4.2122926846999995	3.47144682616	5.355681820231999
O	-5.5646396347	0.2579855341599999	6.988557950231999
O	-0.46323083670000015	-0.17776988084000012	5.8758744802319995
O	3.6607284152999995	1.1274105161599999	9.263313100231999
O	3.4951403752999997	4.92613502616	9.199288700231998
O	11.2870532353	-1.6993991438400002	4.039054170231999
O	8.1900248253	-2.30058549384	-2.123911629768001
O	6.9402867953000005	-3.14095360384	-5.684992209768001
O	9.3747412053	-5.26125448384	-7.309997059768
O	13.5183998353	0.27848855515999993	-0.39334719276800106
O	15.7083847353	2.26582962616	2.044490990231999
O	10.2794161353	7.74385229616	-0.8690483123680011
O	6.6518440153	7.12359395616	-0.28471233876800106
O	4.0262887353	7.926278616159999	-2.825600619768001
O	2.1663580753	9.89965236616	-0.15115351476800098
O	2.2821443152999996	10.45009243616	3.5881954102319993
O	0.5949003222999998	7.468459956159999	5.180087910231999
O	-0.6502656857000002	6.66360610616	8.620467270231998
O	-0.5301302837000001	2.91721597616	9.075686490231998
O	-1.8803424447	0.4948162521599999	11.656651400231999
O	0.8116026552999998	1.1235710661599998	14.226727400231999
O	-4.1970750647	3.86507389616	13.675677000231998
O	-9.0047888247	-10.32335356384	1.056541640231999
O	-7.5928975347	-7.28618026384	2.953676480231999
O	-9.7407256147	-4.317890873840001	3.613012370231999
O	-7.4170317547	-1.5363299238400001	2.5966736802319987
O	-8.4035349647	2.1114493261600003	2.892460910231999
O	-5.5845175746999995	0.6396836351599998	-1.424271044768001
O	-8.424223294699999	0.3917608091599999	-6.337601939768001
O	-9.2311237147	-3.27665161384	-5.786249299768
O	-6.5969366347	-5.66864090384	-6.966968619768001
O	-0.34551571770000017	0.47745387815999984	-10.729957149768001
O	3.6702699952999995	2.37094811616	-4.816394349768001
O	6.8783776953	2.46440534616	-2.901190179768001
O	9.2372875953	0.5922026151599998	-5.033906309768001
O	7.4850210753	0.9407902661599998	-8.203269499768002
O	4.7820779553	-0.5170283278400001	-10.385456599768002
O	3.2750746253	-3.6828157838399997	-11.685724399768002
O	1.2401725753	-4.40018730384	-14.789495099768002
O	0.8731581362999998	-10.448229463839999	-9.716001789768002
O	-0.2831293487000001	-9.25626635384	-6.517396089768001
O	0.4108052912999999	-11.32243966384	-3.4871198697680015
O	-2.8335610247000003	-10.29086346384	-1.7099177797680012
O	-6.3925487847	-9.77482727384	-2.632593979768001
O	-6.9753012347	-6.11955653384	-1.813042471768001
O	-10.2807605647	-4.50024963384	-1.370254614768001
O	-9.7399915447	-0.8424598568400001	-2.117421009768001
