81

O	3.2192027592708334	3.406762602083334	3.4012161281333335
O	3.1785339492708333	4.134807682083333	2.1228873181333334
O	3.817644839270833	2.8836772520833334	-2.5592832418666664
O	4.555514319270833	1.5124430880833335	-0.9464604078666665
O	1.7735064392708333	-1.0761381879166663	-0.05328494886666646
O	1.4191597992708334	0.15859394208333355	0.5659563681333336
O	2.2339150592708332	-1.3215957879166667	2.263741618133334
O	2.7860419192708332	-1.5078316479166662	0.9699542981333334
O	1.0218180892708333	2.6287648920833337	-0.3145334078666665
O	3.194502409270833	0.9601551920833336	1.4782707981333338
O	2.1136043792708334	-0.8728336379166663	-1.4288763888666665
O	1.920226439270833	0.11915344208333356	-2.4355620918666663
O	-0.13091796572916675	3.5001013020833334	2.429508518133334
O	-0.5243239857291667	1.3076988864833337	-0.17828041886666646
O	2.8778513492708333	0.046207482083333584	-3.4589791218666663
O	2.833554689270833	0.6222302950833336	-4.674482081866667
O	1.6562123592708333	1.2361758780833336	-4.973303591866666
O	1.0342717592708333	1.8647450450833336	-3.8760412918666662
O	0.9764594392708332	1.6483903560833335	3.477556198133334
O	0.8934290892708332	0.8600168000833336	-2.9237338018666663
O	1.8469970192708334	3.6158612320833337	3.7272472181333334
O	2.304881549270833	2.1768371540833336	-0.4623220559666665
O	2.532923629270833	1.0844174240833335	0.46190630813333355
O	3.368180229270833	2.2388073660833334	-1.3592724718666664
O	2.0674382492708334	4.738545592083334	1.6881944681333336
O	1.9322699592708332	5.208491412083333	0.4452343181333335
O	3.0581120192708333	5.136724732083334	-0.3009159558666665
O	4.286892559270833	4.716744512083333	0.20888271413333348
O	4.127381399270833	3.9690839320833335	1.2554142081333337
O	-0.7369754327291668	2.5245610120833337	1.6185075181333337
O	0.16663264227083324	2.0221918010833333	0.6207732981333335
O	-0.9638329257291668	1.3862548938833337	2.6022300781333336
O	1.0480551292708333	2.8230890420833337	2.991268148133334
O	-2.8166017007291666	-6.646175047916667	-1.2875918348666664
O	-1.0711542927291666	-7.798246597916666	1.8710625681333335
O	-1.5111585007291668	-2.4345318079166667	1.8800464981333338
O	-5.862489920729167	0.3008130220833336	3.8241741681333337
O	-8.408192130729168	-0.4054136979166665	1.1965062281333334
O	-8.296781250729167	2.2223949920833337	-1.5938833918666666
O	-7.5206019707291665	11.991724402083333	4.648011378133333
O	-3.880559370729167	12.129247502083334	3.5679575881333334
O	-2.2748065007291665	8.934445312083334	2.9371940381333337
O	2.5607673592708333	7.999311572083334	-1.6123949218666667
O	5.756294539270833	7.805848012083334	-3.5821194418666664
O	7.4747842992708335	11.037135722083335	-3.0636063218666663
O	4.8488609792708335	12.452060002083334	-0.7407377178666665
O	1.3189986092708332	12.269305402083333	0.6963526181333336
O	-1.8914530307291668	12.053092402083333	-1.3374287448666666
O	-5.452284110729167	13.229064802083334	-0.6029024732666665
O	-8.717433900729167	8.358535442083333	-4.485742301866667
O	-6.101663050729167	8.234484772083333	-7.256124941866667
O	-4.916422180729167	4.736233702083333	-6.895522321866666
O	-3.197207700729167	2.8144744420833336	-9.660506601866667
O	-5.675004500729167	-0.007852117916666401	-9.083336511866666
O	-8.498860440729167	-0.9078864779166664	-6.680804941866667
O	-6.866627980729167	-2.4924218779166667	-3.6306376018666664
O	-8.168325510729167	-4.485748687916666	-0.7074659768666665
O	-5.7111993207291665	-3.8850631379166662	2.1236930981333337
O	-5.220454220729167	-5.491503147916666	5.525170468133333
O	-8.058019430729168	-3.675494017916666	7.248022888133333
O	-10.537462550729167	-5.743549577916666	5.263293518133334
O	-8.326395630729166	-9.450091797916667	8.273639638133334
O	-2.3587071707291667	-9.687182897916665	8.667492248133334
O	2.297380869270833	-5.883421457916667	8.415669158133333
O	3.5083593892708334	-9.367874197916667	7.2792309881333335
O	7.1578376192708335	-8.798070097916666	8.145246798133334
O	9.560827229270833	-11.722574397916667	8.098247298133334
O	7.318095429270834	-7.519393287916666	3.849938918133333
O	5.5501169492708335	-10.357262397916665	2.0411709981333335
O	3.4988799692708334	-8.373741537916667	-0.5150136036666665
O	3.787727219270833	-6.0551962179166665	-5.499349731866666
O	8.328908699270833	-6.713859297916667	-8.122168331866666
O	10.715561849270832	-7.221494927916666	-5.213259941866667
O	2.3450417992708332	3.973344782083333	-7.365081071866666
O	-0.016452823729166732	6.164862572083334	-5.334195751866667
O	1.9280294792708332	9.409926402083334	-5.528245301866667
O	12.411659349270833	2.5195861720833337	-0.5771730440666665
O	11.799908449270832	2.6427244620833337	3.1423635281333335
O	10.822446949270834	-1.0785740379166666	3.3474432481333336
O	9.321405969270833	-5.735895747916667	-0.27045671886666645
O	9.044426189270833	-9.340097397916667	-1.3961783328666666
