44

O	17.461163425041264	-5.170527307341757	15.586207652191767
O	20.870184794645276	-4.122069536619662	11.915620892874994
O	20.872665851680107	-3.5268613808006855	13.326400415408061
O	22.026733292289606	-2.536537030675862	13.137620605039153
O	21.35438430631249	-4.614473093255176	14.194062101146223
O	20.67082768925988	-5.56566666532512	15.04625033295856
O	20.144205602136044	-6.887661183169029	14.941348143878391
O	19.493143288865387	-7.180338622477024	13.886739935112407
O	20.50027899669608	-8.17801881142768	15.45288243663936
O	19.74933813981686	-4.7710799282507566	15.758407766208325
O	19.341469559129024	-5.343820626298836	16.90931826169969
O	18.943453863503446	-6.536750440257625	16.711532924317304
O	18.431334037156056	-4.7579219434968945	17.9721762205055
O	17.152617328082037	-4.626778218641057	17.264670145477837
O	19.09342150941026	-3.5383668136147253	18.055743073112197
O	19.636863877642586	-3.031431012206424	19.1909077973527
O	18.784229194499968	-2.6857150468220476	20.00270956085639
O	21.026531485583096	-3.2280131771938723	19.71339690807774
O	21.8082290298351	-3.1422864586352137	18.35700790736256
O	21.83748079813789	-4.4604494913269	18.064795599558487
O	21.032968839373975	-2.4832170305388432	17.403776644022685
O	21.36440079831338	-1.933686531145547	16.13453624382944
O	20.0548383141579	-1.3514425038007405	15.794183938837534
O	19.647811990726026	-0.06503463142442545	16.02725650347283
O	18.425051767949718	0.2086348745154023	16.647685119361128
O	17.62052647431385	-0.9070108348182555	16.85722533603207
O	17.65225169381806	-1.755062486178364	15.746731970030584
O	18.933188559531505	-2.0055649800656266	15.347256882314742
O	20.484460076892304	-1.3832463476364638	18.12752865571064
O	21.20953050861082	-0.8260719281612952	19.151538463814617
O	22.40129672241784	-1.0671796828577338	19.30069901288358
O	20.37057443317361	0.3689622310630081	19.29645846678527
O	21.06072258741791	1.3546552237670086	18.543894462970428
O	22.211081535302387	0.8305641896796461	17.779351940067624
O	20.22547679103488	2.4204604035387485	18.084522260263224
O	20.02970049576911	0.33856756712986247	20.65337391110113
O	20.315023372654146	-0.5379477134111212	21.713329973178695
O	21.522613732862194	-0.9394990220405304	21.616623437234857
O	20.137595114417653	-0.003770294288411691	23.102300363119245
O	20.90801020816223	1.1190192493989386	23.236400874100305
O	20.85409907925396	1.819170422667563	24.393166668695702
O	20.583306650141974	1.14647849639295	25.554211598407427
O	19.77450594761888	0.06531335862729737	25.3608391880384
O	20.139451603511322	-0.6742707490662467	24.264185905326737
