49

O	20.839419088897326	-2.3384507146294435	19.68781390274114
O	20.59645361809401	-2.898820796638137	18.609336937698348
O	21.521748530665022	-1.5033127552831294	15.713707088609333
O	22.043022465362828	-2.2861002729038864	20.265970280831436
O	21.33364848852264	-2.221473421341093	21.341836843156038
O	20.389720149380857	-4.1096201127806165	17.980176412895194
O	20.11363942993757	-1.1184656606592136	15.553562737158062
O	20.800663100255644	-4.628042748966631	16.731009976953903
O	19.26901150899407	-1.6196689364592176	16.693811552152113
O	19.88266421160277	1.5038597664023319	22.158587623568074
O	18.43808314101681	-2.577345407687777	16.281847698786244
O	18.338498959884483	-0.7959283669812587	17.354149312207607
O	22.16311949034169	-4.942509577472637	16.692961543667327
O	20.263765895028104	-4.851304278400854	15.65390486740157
O	17.6719599488111	-3.184567918887079	17.217537238929747
O	17.56796218658061	-1.2365801554848865	18.3709406775402
O	17.55137334740248	-2.581851565315448	18.479152469941013
O	21.181594823160125	-0.6334000166838532	17.424492727877855
O	21.57155380027421	-2.5413717471308104	17.603389435462717
O	23.70218427622655	-1.7719625307117421	21.82508683628972
O	22.660991643191036	-2.8121361309417	18.155834841247998
O	23.295053787814428	-1.7641124174056717	20.568837820755878
O	21.674263127227523	-2.6714912653177674	16.264636150179033
O	23.344706690698786	-1.0035994130977577	16.80203535577886
O	24.269664399154763	-1.145694516440013	19.87202441384612
O	22.07957161026968	1.937547488114039	18.891915111448213
O	19.532322470284758	1.3021588089305023	20.778508323619683
O	19.567189779133436	-0.2880572914477971	20.138186839432617
O	24.488609203652945	0.11534070344793657	20.304615045184097
O	24.11951317335768	0.41706716371243546	21.56807504971537
O	23.67303391033108	1.5369291185568625	22.118872584448035
O	23.51012281057118	1.8344171161869312	23.39913438548465
O	23.330685984081665	0.757325440841156	24.21867509688908
O	20.647129789647277	1.7971085926273525	18.349152312948647
O	23.820164428359323	-0.41321483749344146	23.713532647591173
O	23.95504539993086	-0.6094009935851041	22.398868816903025
O	22.168988799498504	-0.4246211795746355	16.51646995167241
O	20.723844097779843	0.3743376753786445	22.555457107588587
O	20.298330847590435	0.2387263137213238	17.6943478745096
O	21.030743197670763	0.32406588782179147	18.824606174891503
O	19.049606071184755	1.2466047830392524	23.41854889809538
O	22.36918832915921	0.6090079894582257	18.5550591297101
O	20.44721519840098	2.74382761443779	22.89050626987005
O	22.211260678181	2.217042078549105	20.30006394457853
O	21.35726240426697	3.4185830017034533	20.20235001165721
O	20.120318906498404	3.7021255609169224	19.67564472653024
O	19.97654028616964	2.9375326980406946	18.396711987216687
O	20.63207870697324	1.3400682169995972	16.892511047879104
O	20.443667013756915	0.5655769094421943	19.998986505235116
