79

O	-0.23586926252272727	2.2076325911136365	-1.9180094020522724
O	-1.0290627045227272	2.6899413611136365	1.9231414179477275
O	-1.9075894445227273	2.6530632611136364	-0.30177701305227245
O	0.4191217254772728	-1.6191827088863637	2.7655293179477276
O	-1.9609836145227273	1.5768108701136363	-2.4868695620522723
O	0.01160012147727274	-0.5950705488863638	1.5924130679477275
O	-2.944373514522727	1.8354869361136363	1.3876156079477275
O	-2.050334264522727	2.5893665211136363	1.0340597389477275
O	1.6212474554772727	1.5226160861136364	6.958763957947727
O	-0.4796891085227273	0.4523256941136363	4.135770897947728
O	-1.4400295395227274	1.6368760931136364	-1.1169528920522724
O	-0.8494766355227272	-1.8748963588863634	3.4578200379477275
O	-0.35372504452272724	1.9775653311136363	2.8837385479477273
O	1.0789913154772728	-2.8799832288863634	2.6161812379477274
O	-1.217456097522727	0.8141723191136363	3.0647987379477275
O	-0.8488949525227273	3.4947440511136363	-2.0053081420522725
O	0.7079185254772729	1.1590533531136362	2.2656989479477274
O	1.2532160854772727	2.0396613211136363	1.3887616479477276
O	0.7630407654772728	3.1038739511136364	0.8177116309477276
O	2.5491300154772727	2.088996501113636	1.7538573479477275
O	1.4931757754772725	3.9905707111136364	0.1448759824477275
O	3.3467418154772726	2.7438180611136365	0.8724204449477275
O	2.7894730354772728	3.6489044811136364	0.03796971894772749
O	-1.1615446785227272	0.1160992661136363	1.7850579079477276
O	0.15637316447727279	-0.7411758388863637	0.23729706334772752
O	1.5192882154772729	-0.6896021188863638	-0.1725449550522725
O	1.5679245454772728	-1.2271900888863634	3.9847845779477273
O	2.636679425477273	-0.4233051688863637	3.9066693879477277
O	2.6683134854772725	0.6442911231136363	4.830781987947727
O	1.7893684054772727	0.6157816251136363	5.916666987947727
O	1.6985470054772729	-0.7566021088863636	6.277160307947727
O	1.3861436154772728	-1.6900874788863636	5.244450677947727
O	1.8706172054772727	0.45015825611363636	-0.9769973420522724
O	2.2965569454772727	-1.1031832688863634	0.9894232359477275
O	-2.0574731745227273	3.0985754511136365	-2.6089838920522723
O	-5.922895624522727	-8.930047358886364	5.643850847947727
O	-3.0000122345227274	-8.371364728886364	3.3346643979477277
O	-2.9118803345227273	-9.517906548886364	-0.3286197270522725
O	-1.6412464735227272	-6.446805008886364	-2.0355676120522723
O	-0.8845109865227272	-6.160256138886363	-5.700924062052273
O	-3.4332637045227274	-1.7805727388863635	-4.118928282052273
O	-8.764970084522728	-1.0011974488863635	-4.021649652052273
O	-9.673981954522727	-3.0856631188863632	-1.0923739320522725
O	-9.742955384522729	-1.0662054488863637	2.0986608879477275
O	-8.795235164522728	7.954577761113637	-1.6522198120522724
O	-2.793050374522727	8.814333821113635	0.2536061262477275
O	0.4967999954772728	10.178257571113637	1.4877696979477275
O	-8.514589424522727	4.811319111113636	8.243298587947727
O	-6.279481514522727	2.2829636511136364	6.692527237947727
O	-3.2448110245227273	1.1721588171136363	8.497603117947728
O	-4.228612664522727	-2.5218596188863636	7.884974537947727
O	-6.801819004522727	-4.426865398886363	6.0599500179477275
O	-5.886362484522728	-4.806495188886363	2.4342062079477276
O	-7.189956774522727	-6.8211161788863635	-0.3924427890522725
O	-6.391597764522727	-4.860388908886364	-3.4918311120522723
O	-6.615209524522728	-5.740304538886363	-7.180035782052273
O	-10.881770954522727	-8.358715228886364	-5.535037122052273
O	5.153325435477273	-1.5044902688863635	-9.726256622052272
O	5.559823025477273	-5.052732748886363	-8.395797152052273
O	3.981771695477273	-4.618984148886364	-4.943650302052273
O	3.3827302054772725	-7.6290177888863635	-2.6500918620522724
O	5.299904365477273	-3.2322468788863636	0.11371598994772751
O	10.535726645477272	-2.2236945588863635	1.1587957799477275
O	11.446970645477272	-0.9057219188863638	-2.3035898720522723
O	10.322862445477272	7.849658851113636	7.563478147947727
O	7.873720155477272	5.624604191113637	5.883502767947727
O	0.5023394254772728	5.020136721113636	5.159996687947727
O	-3.0827186745227273	6.072220381113636	4.705094237947727
O	-2.5654017845227273	9.765362911113636	4.880486167947727
O	0.6723495154772727	9.880518701113637	6.835636747947727
O	4.461953885477273	9.680253611113637	6.307862377947727
O	7.243522815477272	10.873890641113636	4.022605077947727
O	7.068756745477273	9.014009391113637	-4.368935662052273
O	4.896631525477273	9.214092271113637	-7.4869682420522725
O	5.616466075477273	5.5917159611136364	-8.375296552052273
O	7.695598175477272	0.4238424861136363	-6.027491662052273
O	9.371905145477273	-2.9672954588863636	-5.948464292052273
O	8.615562435477273	-4.363000878886363	-2.4610317820522725
O	9.047613555477271	-7.830968598886363	-1.0250817620522725
