85

O	-3.1468543669361697	5.85584585526383	-0.07245295274468055
O	-3.5315448669361698	4.573363025263831	0.3321512062553196
O	-4.325030696936169	3.66011625526383	-0.35333835474468056
O	-4.216322936936169	2.25789785926383	0.030367814255319536
O	-3.12644170693617	1.83529336126383	0.7021324162553195
O	-3.2278790569361697	2.61775426526383	1.7624188562553194
O	-3.39773622693617	4.02195327526383	1.6043088162553194
O	-2.9254373269361698	0.2294196052638302	0.6575157762553194
O	-3.5729697869361696	-0.43377079473617	-0.5073678347446805
O	-3.4585599569361696	-0.2802861347361698	1.8323557062553193
O	-1.5433908629361697	-0.08235097473616992	-0.1464698247446805
O	-1.2471751979361696	-1.1395160547361698	0.6117086562553196
O	-0.8361176969361697	-0.4338923647361699	1.7907521062553196
O	-1.4388313039361695	0.5789525982638302	2.5664682262553193
O	0.5404497730638304	0.02666767526383018	1.9446763062553196
O	-1.6218672819361697	0.34734429526383015	-1.4204180817446805
O	-2.1216339369361696	1.68787568126383	-1.4199908137446804
O	-2.66999320693617	2.08491734626383	-2.5082889837446807
O	-1.2112336479361696	2.69920936526383	-1.1026780147446804
O	0.011078713063830459	2.38491946926383	-1.7259877367446805
O	0.14185593306383038	1.4227379896638301	-2.6544500837446803
O	-0.7492744389361696	1.1416899652638302	-3.4436411737446804
O	0.8049711330638304	0.2959786852638302	-2.48611759374468
O	0.5730926930638304	-0.9830401147361698	-2.106515603744681
O	0.8402658030638303	-1.4785099847361698	-0.7857573151446805
O	1.37528220306383	-0.1512314047361698	-0.4538312097446805
O	2.42684415306383	-0.54270356473617	-1.0673400257446806
O	2.58192638306383	0.7081851132638302	-1.5842458577446805
O	2.8135995430638303	0.6435522602638302	-2.8854872237446805
O	2.64960401306383	-0.74408679473617	-3.3152264137446803
O	2.06735325306383	-1.32272862473617	-2.2637162937446806
O	-0.8591393979361697	1.85489539026383	0.08413594525531953
O	1.3251317630638302	2.67139335526383	0.09541968325531947
O	2.1867271430638304	3.70043788526383	0.1752507362553195
O	1.54480240306383	4.89704272526383	0.09685210925531951
O	0.36649392306383033	5.0409295952638296	0.7615354862553194
O	-0.34755637893616964	3.90142598526383	0.9503697662553194
O	0.09679544306383037	2.70193398526383	0.5830672162553194
O	-3.49819490693617	-9.48998067473617	-8.38298850374468
O	-2.2336876669361696	-8.74338147473617	-4.885559983744681
O	-4.16986558693617	-9.56332537473617	-1.7701355387446807
O	-3.82415336693617	-6.47987847473617	0.19989929625531944
O	-5.26086949693617	-6.17067114473617	3.7231725762553194
O	-5.618165866936169	-2.0533631447361698	0.31731066625531956
O	-10.55077993693617	-0.7676813447361699	-2.2583563237446804
O	-9.92768936693617	-3.00997758473617	-5.17775907374468
O	-8.013182236936169	-1.22752757473617	-7.999052593744681
O	-8.75643881693617	8.429314835263831	-4.577706793744681
O	-2.1722352769361697	8.50332656526383	-2.9990069837446804
O	1.4221548430638302	9.54646020526383	-2.3010255237446806
O	-2.77218966693617	3.97338291526383	-12.574930133744681
O	-2.0819077269361697	1.5120120078638302	-9.855526293744681
O	1.34363134306383	0.029773965263830027	-9.47586314374468
O	-0.2699071689361696	-3.4170257447361703	-9.398513983744682
O	-3.6346925969361696	-5.02336756473617	-9.464614363744682
O	-4.87568762693617	-5.10410140473617	-5.91558967374468
O	-7.67891063693617	-6.848210654736169	-4.183501863744681
O	-8.594591846936169	-4.71363177473617	-1.2323462677446806
O	-10.81533657693617	-5.29378108473617	1.7929521662553194
O	-0.0741352779361697	0.10482696526383006	13.421705366255319
O	-1.8394850719361697	-1.5203295547361697	10.41033656625532
O	-1.1984925459361697	-5.1449225047361695	9.48906776625532
O	-0.6736126709361696	-4.88284525473617	5.77475860625532
O	-0.2165619589361697	-7.9510902747361705	3.5477211462553195
O	3.0937829530638306	-3.85040474473617	2.1846746862553195
O	8.27020834306383	-3.4562546947361703	4.00210886625532
O	7.412177313063831	-1.9257682947361698	7.337897366255319
O	7.162859793063831	1.83838085526383	7.420343436255319
O	12.66790050306383	6.13388565526383	-1.6442047067446806
O	9.36471290306383	4.23589277526383	-1.3808247137446805
O	2.7872613130638304	3.88399437526383	-4.784797813744681
O	-0.2008971179361696	5.25607574526383	-6.584935603744681
O	0.7208265630638303	8.83523811526383	-6.71383486374468
O	4.45460591306383	8.52462620526383	-6.5080657037446805
O	7.2600966430638305	8.30711371526383	-3.9394379637446804
O	8.44570666306383	9.56693799526383	-0.5581926057446804
O	11.85404760306383	9.73192127526383	1.0679585362553194
O	3.8486550730638305	8.41904149526383	6.545130076255319
O	0.35976172306383025	8.96491956526383	7.873345246255319
O	0.11336685306383043	5.414345215263831	9.197096866255318
O	2.3926765930638303	2.95224540526383	10.871960066255319
O	2.5450994630638304	-0.0915004647361699	8.60527862625532
O	3.55195068306383	-3.56898224473617	9.42878786625532
O	4.55954994306383	-5.1446511247361695	6.117519426255319
O	5.32063799306383	-8.72106167473617	5.23774579625532
