101

O	0.4889251687083336	1.0483382491458348	-0.8290575516875002
O	-0.7116209942916665	1.3552112591458347	-0.8907851016875
O	1.3229039297083336	0.3259629691458348	0.24585874831249988
O	1.8692399157083335	-0.4643640508541651	-0.7130887016875002
O	2.2674781357083336	0.5013388091458348	-1.7666504416875002
O	1.6313937877083335	1.6544097011458347	-1.2917128716875
O	1.0798597287083336	2.8626588431458346	-1.8080129516875
O	2.3036676557083338	3.566348594145835	-1.6689399216875
O	2.9465450057083338	3.196233786145835	-2.7742852816875
O	2.3487940957083335	2.0919526241458346	-3.4841545316875
O	1.0071615507083336	2.5282646041458348	-3.1451004916875
O	0.11405012370833356	1.4478691991458348	-3.3256446216874997
O	3.8534244657083336	3.983784949145835	-3.4503929516875
O	4.445278115708334	4.8586167891458345	-2.5798864716875
O	3.5147807357083334	5.631585379145834	-1.9514253216875002
O	2.533226215708334	4.879638909145835	-1.3746554216875002
O	0.7719324193083336	-1.2387724708541654	-0.9278659116875002
O	0.4057927627083336	0.20986796914583472	0.9711909633124999
O	-0.8252508842916664	-0.4288180608541654	0.13911366031249983
O	2.5597193357083334	0.9031128591458348	0.6435534043124999
O	3.7189317157083335	0.9531091691458349	-0.10360968468750009
O	4.574580095708334	0.6860742991458348	0.8959784874124999
O	5.872376835708334	0.9731956991458348	0.7662544822124999
O	6.335231705708333	1.8525049981458348	-0.1433195516875001
O	5.5316696957083344	2.114772564145835	-1.1911111316875003
O	4.402945565708333	1.4378688091458347	-1.1051889716875003
O	3.0541585557083337	4.149153069145835	1.6212500203125
O	1.9983781057083336	3.1404589451458347	1.4684108013125
O	0.7963093943083336	3.4926667831458347	1.1413435663125
O	-0.24782085429166645	2.895635407145835	1.6993730033124999
O	-0.10834202929166648	1.8497111631458347	2.5461508183125
O	1.0119713417083336	1.8755458321458347	3.1366389883125
O	2.1221770757083336	2.2831060331458346	2.5006066283124997
O	-1.2403873642916663	0.9609323691458347	2.2395123183125
O	-0.9263155542916663	0.010669499145834926	1.3865144383124999
O	-0.12128085329166638	-0.8885957408541652	2.0584240583124997
O	-0.42016840429166646	-1.1029253508541652	3.3234590583125
O	-0.1658119542916665	-2.469838770854165	3.7746781283125
O	1.2176019347083336	-2.5513452008541653	3.6652157583125
O	1.7624110527083334	-1.8655867808541653	2.5071786383125
O	2.982607485708334	-1.784580490854165	1.9496606483124999
O	3.2730812757083334	-2.279543690854165	0.7429648819124999
O	2.1913125857083333	-0.8409951008541654	3.1455098283125
O	-0.8618563942916664	-3.2142528208541656	2.6099803583125
O	0.025609469708333554	-3.0579491008541653	1.5580553543124998
O	-2.0460539242916664	-2.3431710708541655	2.4618565583125
O	-1.2709063542916663	-4.177558430854166	3.6240864383124998
O	-0.007843508291666468	-0.3613547408541651	4.1983504483125
O	4.247422785708334	3.8785295091458347	1.1902609613125
O	5.079975015708333	4.838068919145835	0.7112052294124999
O	4.675755775708334	6.119797929145834	0.9309136603124999
O	3.5480360157083335	6.435569989145835	1.5595763413125
O	2.655074505708334	5.403244679145835	1.8174903583125
O	4.197199905708334	-12.382688820854165	-1.1942816116875
O	1.1897263807083336	-10.050033320854165	-1.6578739516874998
O	-0.3842108842916665	-9.136165120854164	-4.9578495716875
O	-0.7621758442916664	-5.500975610854164	-4.5251017216875
O	-2.3097728742916663	-3.501083830854165	-7.3939333616875
O	2.0760772957083335	-1.2586162008541653	-5.6375949616875
O	7.175689035708334	-1.9036837008541654	-7.6004207816875
O	7.931929585708334	-5.1490989808541645	-6.133786531687501
O	9.625875395708333	-4.932561830854166	-2.7187987616875002
O	11.894614435708332	4.9839122891458345	-2.0605231916875
O	6.983673365708334	5.998188699145835	2.6196881783125
O	4.527540465708333	7.280589269145835	5.318951178312499
O	12.081482535708334	-2.558174460854165	5.4039097483125
O	8.874037405708334	-3.3099823808541653	3.8054173683125
O	6.242551025708334	-4.395843420854165	6.1009500383125
O	5.883136505708334	-7.535317920854165	3.7674034183125
O	6.853755585708333	-8.914941120854165	0.4942967573124999
O	4.845278665708333	-7.347412280854165	-2.2208411016875
O	4.418703845708333	-7.979177520854165	-5.8386891316875005
O	3.6209067757083337	-4.686550790854165	-7.375037131687501
O	2.4599209657083336	-3.9061482408541655	-10.9722770716875
O	5.696679885708333	-7.752564020854164	-12.2088131716875
O	-9.422957164291667	6.884793639145835	-6.5575930416875
O	-6.945419854291666	3.9520117991458346	-6.807469661687501
O	-8.055866554291667	0.39915470914583473	-6.8631999416875
O	-5.732826604291667	-1.1932150208541654	-4.3820799416875005
O	-5.763721994291666	-4.929816910854166	-3.8948284516875
O	-5.557405964291666	-2.029578910854165	0.4707269503124999
O	-9.755564064291667	-0.6769925708541651	4.0527865383125
O	-10.622327264291666	2.349481882145835	2.0016083483125
O	-8.816495664291667	5.572699539145835	2.8844790783125
O	-3.833738354291666	5.025862109145835	13.279727228312499
O	-2.9574418942916663	3.3114402851458347	10.0416173383125
O	3.2607429157083336	1.0697209091458348	6.220761038312499
O	6.708467545708334	1.3667489191458349	5.1269427483125
O	7.859406655708334	4.491922989145834	6.810716728312499
O	5.328177775708333	4.423433809145835	9.5508724083125
O	1.7939174767083337	5.495045959145835	10.4871618083125
O	-0.7110932842916664	8.290852679145834	10.0547355783125
O	-3.698157184291666	9.454467359145834	12.0685346283125
O	-3.4086347442916662	10.662461569145835	2.4651001583125
O	-2.2789243042916665	11.961471239145835	-0.8603242316875
O	-4.483565354291667	9.446799969145834	-2.7053951116875
O	-7.9348871142916675	8.135894229145835	-2.4373515416875002
O	-7.6940337742916665	4.397421259145835	-1.9826001616875
O	-10.290596164291667	1.858632821145835	-2.6574940816875
O	-9.336026264291666	-1.1441231908541654	-0.5919764516875
O	-10.773648264291667	-4.638261750854165	-0.7902525916875002
