31

O	9.287400504464818	10.144881601686478	21.696687153731574
O	9.52794067029455	9.500447555102346	22.64236974502677
O	9.668282058616903	10.083403185928427	16.94964650491375
O	10.212570511921928	12.221114253250068	20.958967741356524
O	9.976730238829829	12.776780787612081	13.959240848836458
O	10.118547602530573	14.04484724071632	16.090652960407606
O	9.513154094845762	11.062465942483353	20.60206567474003
O	8.509707657235538	11.649736731173173	14.649206950400378
O	8.452307964773134	12.057534886588831	12.482881431547316
O	8.98005068264727	11.004891074325071	19.350878884823217
O	6.44006014825503	7.878390838710249	13.214479154509643
O	9.331857732717815	11.830281502032499	18.161654600222626
O	7.670991385650421	8.789050299987984	14.976315856612006
O	9.069436600665922	13.04157175757815	18.891871408811504
O	9.901084252636497	13.246586604552718	19.99438445120712
O	8.691352044541622	11.159165173600046	17.037806110727995
O	9.213802625567666	11.559549591309253	15.75185347717457
O	10.640826565377738	14.458997857148749	20.465172108255793
O	10.49850293870253	12.09934466070015	15.937606241654217
O	10.219365615521879	13.244286578530179	15.143661980426629
O	9.148877255268967	11.833002413828567	13.516516716930486
O	11.425490980991547	12.135567582811342	17.058672081525003
O	11.860775790006764	11.310799699522818	18.14316191209459
O	11.885775033790171	13.52071944113342	17.546139159830762
O	7.1831236683272275	12.245600460726006	14.946724593181298
O	6.615684116848823	10.933789225521362	15.145454913777552
O	6.556159670253681	10.238523887530103	13.922660185702384
O	6.894011603514894	8.934606818447193	13.97050193527333
O	6.901393834853804	8.849645984500125	16.161759419287876
O	6.358426693524979	10.131587884438625	16.2492234960017
O	7.737379695789454	8.2096633728885	17.021036222248863
