23

O	10.06047406644165	14.720525158007069	15.583311048475128
O	11.51793915306826	12.269390016951343	14.198181748495326
O	12.17514857749466	13.061574010123856	14.955389607287417
O	11.414253923711273	14.915876757483225	15.797164564409218
O	11.16186847723955	16.0650977836142	15.268301464777883
O	10.310597235809205	13.950417066293474	13.449312665051425
O	10.595043762503277	12.589780882006648	13.265274691473431
O	9.310933585869977	10.412001175647466	18.60668747412429
O	9.962536111514241	12.027255666066212	17.007282085855127
O	10.064469182432811	11.885901757144119	18.325458260311798
O	10.420397096623114	13.040254552383391	18.946652937131198
O	10.191573317900565	14.19276736206474	18.158009903491678
O	9.798011894410113	14.338936425817584	16.948776866419372
O	9.314226925083457	13.194528623141293	16.55461662551179
O	9.572535959994521	11.097592289081916	16.03199694429728
O	10.507640698180655	10.526588928488104	15.720752008560831
O	8.233093150716062	12.499892136232724	15.661041507138977
O	8.876270797478469	11.49209767400301	14.973402649383146
O	7.395680657958263	12.965535226218833	14.437924862981712
O	7.058387236511969	11.727588956312976	16.330315238976823
O	12.395065766258549	14.397449893221179	14.785945252149224
O	12.58477637156797	12.74025968533158	16.303701977439754
O	11.869830366814998	14.726246643130448	13.053402927188923
