28

O	8.317098011436256	11.8592376500362	18.701040551691023
O	8.96495495538673	12.507352056661334	16.542909035903538
O	8.60987116767355	10.538073167306866	19.031972646432667
O	11.475908087533893	13.784643696086103	14.728856712836421
O	9.639970518108864	10.064825488935154	18.08898881290934
O	9.80494971893605	12.128753686866597	14.984025443545486
O	9.46411529908184	10.123298239586218	16.727499696149568
O	9.744281475234324	14.24914664485804	15.770244077139878
O	8.478361639917011	11.153377340685136	16.62752471432621
O	11.734246171347586	14.10256997203285	21.158141011057094
O	9.131069548697248	12.034154769668438	17.600508325902467
O	9.652466929639846	11.753740483605753	21.296648301306217
O	7.06023885772276	12.27754873434429	18.141137045241187
O	7.398543639792257	10.282498318058723	17.097374510114335
O	12.21635942950015	13.367929957663582	15.824501702813622
O	11.575135282589049	12.198957874548034	16.470860236360508
O	10.287441493261797	12.161647840414062	16.230630260960982
O	10.153351302202129	13.416280159270272	14.763722047286764
O	9.902323542441032	13.940487196884238	19.87581324308299
O	9.169676897139182	14.471596828443685	18.85091605951868
O	9.288608187567197	14.670485458319217	17.552035645837204
O	10.487682163364948	14.300708836654788	16.843685415451866
O	11.321080306918981	14.302438903789053	17.871559051990307
O	11.072134180371284	13.689083793221739	19.0247778735924
O	10.489778944386046	14.727593945266563	20.914055421029474
O	10.823686130581573	11.524001011310032	19.44435798036104
O	10.746148867994602	10.896459123508714	18.289391916661806
O	10.229375286673534	10.808628330386297	20.514699795119178
