83

O	0.6509756090499998	3.1643168541483337	2.7780673448
O	-3.9836518409500004	0.533489178148334	1.3738296448
O	-4.06028336095	0.47912291114833394	2.7346123948
O	-2.9721819509500005	0.807228761348334	3.4829223048
O	-1.7575006589500002	0.673832814148334	2.7752238048
O	-1.7987749799500001	1.0465462671483339	1.4857372448
O	-2.73922276095	0.45805605214833395	0.7266693447999999
O	-1.13963932195	2.130622014148334	1.0428935948
O	0.06685609905	1.661056916148334	0.7569806848
O	1.1285096790499998	2.442670414148334	1.2398874748
O	2.05551184905	1.3652591301483339	1.2987576248
O	2.43384085905	0.860473180148334	0.03458815779999991
O	1.5433231990499998	1.158212579148334	-0.9478613192
O	0.20742989904999987	1.296875568148334	-0.5056270386
O	1.4075993390500001	0.659273056548334	-2.3465897352000002
O	0.37283012905	-0.4561184758516661	-1.7350150952
O	0.55351472905	-0.925455475851666	-0.39403330850000007
O	1.4044383090499999	-2.0158990258516662	-0.19644880620000008
O	2.23384041905	-2.199610045851666	-1.2610080312
O	1.7018212590500001	-2.278766535851666	-2.4587411052
O	0.67872097905	-1.435766785851666	-2.6201617152
O	3.48015712905	-1.9019498358516662	-1.2533760672
O	-0.95478996643	1.0019034951483339	-1.1948313692
O	-0.19330494495000006	-1.6759043758516659	12.818444404800001
O	1.5782512490499998	-2.140508735851666	9.443268314800001
O	1.49479287905	-5.567878185851666	7.9758241248
O	0.79819063905	-5.778532415851666	4.2501082248
O	3.7920074790500005	-8.171471095851667	3.9658332047999996
O	5.97482119905	-5.243087265851666	4.925848224799999
O	4.86583193905	-2.839328545851666	2.1230249948
O	7.19919280905	-2.070846115851666	-0.6985094472000001
O	5.42844677905	-2.568867235851666	-4.0490647952000005
O	4.3505673090500006	0.776798575248334	-5.5594197552
O	3.7591999190500003	1.9659898441483339	-9.122486175199999
O	0.84990219905	4.179825354148334	-7.997616195200001
O	-1.23700065395	4.643768424148334	-4.838069245200001
O	-3.9068368409500005	7.059663384148334	-3.7460345752
O	-6.18628348095	6.801303254148334	-0.7395232962
O	-7.5401534109499995	10.037492004148334	0.6321052547999999
O	-9.53060939095	10.511611514148335	3.8465696448
O	10.36871977905	9.520028724148334	-2.8008853352
O	6.76356709905	9.490282714148334	-1.6628181852
O	5.287308969050001	7.267506034148334	0.9970366948
O	2.4333341290500003	8.318086954148335	3.2283568848
O	0.95973001905	6.078641994148334	5.861822494799999
O	-1.20718064895	7.600550224148334	8.571714804800001
O	-4.03511524095	5.447948434148334	9.8563128048
O	-7.13914126095	8.138738284148335	6.3973817448
O	-4.0384014309500005	8.752252854148335	4.353391094799999
O	-2.44177134095	6.315527874148334	1.9970690547999999
O	0.04019045804999999	7.648929884148334	-0.5380834392
O	2.3050787990500003	5.843700774148334	-2.9780404052
O	5.24303585905	6.491066334148334	-5.2566158852000004
O	6.97662722905	5.119554114148334	-8.3293777952
O	6.1041841990500005	7.896976614148334	-10.7789742952
O	1.6287146990499999	11.142182964148335	-9.538479235199999
O	-1.2490201599500002	14.211691464148334	-5.203468075200001
O	-11.50217802095	4.906336274148334	-4.0143956752
O	-9.86464286095	2.303573264148334	-6.2816517452000005
O	-7.92163532095	-0.9546360458516661	-5.6820116152
O	-8.46067271095	-3.501172755851666	-4.3085059652
O	-8.42785446095	-1.8216549158516662	-0.9435501082
O	-9.87003031095	-3.6410988758516663	2.0458044248
O	-8.48955107095	-2.762976055851666	5.500628604799999
O	-6.91340937095	-7.798869995851666	4.3351345947999995
O	-7.334004580949999	-7.331792165851667	0.6201569447999999
O	-4.55614098095	-5.176700285851666	-0.6647949742000001
O	-3.9863688909499997	-5.344399935851666	-4.3759081352
O	-1.43732617295	-3.5634080658516663	-6.6792851652000005
O	1.27820314905	-6.235285065851666	-6.310557425200001
O	-0.1868109669500001	-8.919131245851666	-4.0828620952
O	-2.1538502409499998	-9.024986295851667	-0.8332872352
O	-4.24808582095	-11.607107535851666	0.9900327748
O	-6.64338856095	-11.917093435851665	3.8747865748000003
O	3.7515354090500006	-10.724332635851667	-2.4063436352000003
O	5.36807181905	-7.513518545851666	-1.3226344992
O	8.73392942905	-6.7682089958516665	0.18654846279999998
O	11.86730767905	-6.038737885851666	-1.7960909252
O	12.47353777905	-13.867856435851666	-0.7866591982000001
O	5.69997053905	-12.717132835851666	1.8834786548000002
O	3.73964765905	-14.353934935851665	4.659628554799999
O	4.72949704905	2.902018064148334	8.5788173648
O	4.85737299905	6.268412724148334	10.4068756048
