21

O	11.475113719743991	11.737239091516285	15.058137086050108
O	11.970128602633267	12.762214995713272	14.430504155765751
O	13.368844834139086	15.05454068964593	14.547333049413847
O	13.268507673178206	14.544837627723878	15.88457335213307
O	9.00397249363294	15.131612264016926	14.686836219888992
O	8.575822060211152	13.945210704664431	14.350090277709278
O	10.60779706555578	16.080322577319894	15.537267338893438
O	9.616854920161773	13.064634676733473	14.689689281841714
O	10.25296491754252	13.096570461421456	15.986526271650618
O	10.71543058747961	11.845483475354747	16.291877441676
O	10.086296659143377	14.251169095284029	16.642268339018457
O	9.825331859340828	15.190182404264341	15.737649274293513
O	9.288373675948543	11.951391077489824	14.06006356950832
O	8.134877275980358	11.310940294816314	14.521313376975453
O	7.06126008527062	12.115555972700102	14.909853563771955
O	7.339236253545307	13.362394792192514	14.542275672040226
O	10.338370457067112	13.857590377927394	18.00541194573841
O	11.641178179034826	13.048635642583088	18.255549571584115
O	9.447670393951752	12.657783188795246	18.4484355748572
O	12.467279130454486	14.025248063870793	14.77458641904455
O	7.9848376171867805	10.24178887023908	15.455562453402148
