22

O	10.807618388729953	13.698150542365518	13.40548931926742
O	8.235569742811276	13.79365398312643	16.47988514941058
O	11.139582842117237	14.388019401633594	14.534229439689291
O	9.892043648839156	10.47931157845809	16.723333086489244
O	11.486097127041356	11.298254032461646	17.910903518302717
O	9.202812804781772	11.903811240429313	18.028754839516605
O	10.367694092880775	11.980663963464485	18.502476177047647
O	8.237284916324736	9.346550143618797	14.81268460705127
O	9.979090319602918	12.986884018885934	14.234582540731868
O	10.553555819673953	11.988107247132817	15.044351031295383
O	9.66068582874507	11.349468027612533	15.764716385573077
O	8.432630788351979	11.024230382508803	15.195485724501761
O	8.244920688699816	11.760452082053202	14.066132159785699
O	8.681417665828766	13.088920737531666	13.980262389710887
O	9.709826707091281	14.67492818459559	17.307687903670793
O	9.57879002100852	14.40755780254633	16.053076439589905
O	10.881885422278609	13.745512684137863	15.8410505017027
O	11.719953694112998	14.156037463894016	16.747150693439288
O	10.884975666526666	15.089819441245183	17.39823040131354
O	8.827254350283734	10.523762213829844	17.69808790619437
O	10.68086864814321	12.871597175121725	19.546928164673293
O	11.737294337135292	15.503383202382263	13.596050822532272
