30

O	10.79331965502783	12.430815596038297	22.07635441849041
O	10.28754385328487	15.40551020242541	20.304607001250055
O	11.06699789021179	13.713811041998227	14.646581301676628
O	10.493164757946678	14.578057894589318	17.404997697239033
O	10.44262357090802	11.117881010919582	18.413841196473225
O	10.852790206164775	11.650853568312353	19.526013435463273
O	10.099899712160386	11.970044628310077	20.588688947729295
O	9.021128358597739	12.627971329181218	20.094143161218554
O	8.76628970888205	12.69650606589881	18.816045362408957
O	9.325145548079544	11.716689478467899	18.20474824456823
O	7.588382335350792	12.977726307609743	17.939474821131874
O	9.75363511467865	14.251144164376964	14.889248291363568
O	9.334672761482423	12.129967598716828	13.728300724957183
O	8.786192529230773	10.79260518279456	15.506573354397183
O	10.03062525772198	10.64736141515981	15.77091733345183
O	10.777273918361882	11.687291627370627	15.213865287505103
O	10.592448029256332	12.408206287025598	14.18466790235036
O	8.510006028481232	11.277291354135894	14.324243522502002
O	11.24856660421004	11.37948918452735	17.229732720168666
O	9.264327777539076	13.201645821020215	15.747481851041604
O	10.73646564267256	14.765138906809218	18.766767430490173
O	11.865448502968187	14.097311436122625	19.057793423826894
O	12.042077892467152	13.02165367747745	18.24516979315753
O	11.337156065145905	12.779264857716752	17.004547904555945
O	10.207474514444824	13.42072677722643	16.842306215602434
O	9.261629345544586	12.693142403308983	12.618829177028822
O	8.539730964654938	9.791167409325386	16.137926327112016
O	7.008686727243205	12.04393914216859	17.368833107634412
O	6.3678234277606	10.859703146802167	17.75147465772972
O	6.178968240431595	9.77166743262146	18.053923941736617
