93

O	-0.7913185063789472	3.6472155927614036	0.8106942168532109
O	-0.6467724883789472	-1.1798474972385962	-2.1973165931467893
O	0.9770271026210527	1.3696327547614038	-1.1239483601467892
O	-0.5563176383789472	2.916983972761404	-0.25953571414678905
O	-1.9776962673789473	-2.3108907772385963	-0.7675380441467891
O	-1.0139212627789471	2.6051806827614037	-1.551858119146789
O	0.7068190426210529	2.3299179927614038	-0.1471897281467891
O	-2.945014757378947	0.6331965967614037	-0.15304562214678907
O	-2.5789352073789473	-2.0138123872385965	-2.787222343146789
O	1.4633464726210526	2.323416462761404	0.950830206853211
O	3.1638939626210525	0.9150778217614037	3.252899096853211
O	-1.0194603079789473	-3.272100387238596	0.9394649868532109
O	1.1349724826210528	3.171883362761404	1.9484791368532108
O	-3.3362680673789473	1.8896897287614038	-1.516720088146789
O	-0.15005380237894717	3.4922476127614037	1.987024936853211
O	-0.6704107453789472	1.5384701697614038	-2.3976814731467893
O	-0.5441406373789472	0.12715929976140372	-2.647118793146789
O	-1.8029847393789473	-1.6380393072385964	-1.8361352131467892
O	-0.9084303290789472	-2.7687319272385964	-0.17556732714678908
O	0.3142305226210528	-2.533343397238596	-0.5716738206467891
O	0.3811222426210529	-2.0245988572385962	-1.869827743146789
O	0.29009514262105285	0.45420601876140376	-0.5482742727467891
O	1.0944785026210528	-0.13572950723859623	0.2418003638532109
O	0.21224112262105288	-0.6161224072385962	1.1012049768532108
O	-0.9797067138789473	-0.22289134723859627	1.179296466853211
O	-1.8982759853789473	0.37613602876140373	0.45833003685321094
O	-0.9533703736789472	1.0273350114614037	-0.14216215214678907
O	0.8402844726210529	-1.1192367372385963	2.2872649168532107
O	0.8561437526210528	-0.002412947238596308	3.179059376853211
O	-0.3811200133789472	0.4934080397614038	3.388627246853211
O	-1.3540524143789472	0.3671000637614037	2.352063916853211
O	2.0793366926210526	0.6583836087614037	3.6290876568532107
O	2.480124782621053	-0.3925761572385962	0.3386677298532109
O	-3.3131244573789473	0.6978686787614037	-1.465522419146789
O	-3.4783378373789473	0.15365289976140373	-2.775178283146789
O	-2.987433857378947	0.4569424447614038	-3.9530087831467893
O	-1.6162347673789472	-12.227452967238595	-0.11935634314678911
O	-3.604704287378947	-9.054881067238597	-0.572381316646789
O	-5.846695907378947	-7.931535837238596	2.2417903168532107
O	-5.696224827378947	-4.261301917238597	3.2710392568532107
O	-9.545031197378947	-4.187342047238596	3.082008746853211
O	-9.229841347378947	-4.760334247238596	-0.6228171309797891
O	-7.020085007378947	-1.7072274072385962	-1.335824928146789
O	-8.613968157378947	1.3587741587614037	-3.125595233146789
O	-7.720358947378947	4.557619062761404	-1.225575568146789
O	-4.764298237378947	6.381565982761404	-2.928307383146789
O	-3.8576738973789473	10.147634782761404	-3.057544863146789
O	-0.08169879637894717	9.313070302761403	-2.818247723146789
O	2.0993441626210525	6.238380672761404	-2.122956983146789
O	5.823163512621053	5.289576222761403	-2.210216143146789
O	7.671275452621053	2.210947902761404	-0.901889148146789
O	10.821453852621053	1.1251495933614037	-2.514672713146789
O	12.674790652621054	-2.1107915172385963	-1.7760535731467892
O	-0.34150660937894717	3.872398742761404	-11.403299163146789
O	-0.5575227253789472	0.8976875957614038	-9.085884613146789
O	2.3474964126210525	-1.3193262672385964	-8.21120067314679
O	2.082986852621053	-4.266892707238596	-5.948394743146789
O	4.850722622621053	-6.802977367238596	-5.904165903146788
O	5.501122662621053	-8.378061617238597	-2.5655077331467893
O	8.722053132621053	-10.204852567238596	-2.216922123146789
O	11.508332452621053	-7.796548877238597	-3.007412653146789
O	9.436999552621053	-4.7879955072385965	-2.015799403146789
O	7.525814172621054	-2.6059682272385962	-4.464972573146789
O	4.605028452621053	-0.5329175972385962	-3.480205163146789
O	3.468501432621053	2.2664996327614038	-5.590075053146789
O	0.40781827262105275	4.525527602761404	-5.4846798831467884
O	-1.5041082313789471	7.032844962761404	-7.790869063146789
O	3.989970522621053	11.657348032761405	-8.177999943146789
O	6.577137762621053	9.371321492761403	-11.768830663146788
O	8.479758082621053	7.684218102761403	-8.979835773146789
O	10.046888852621054	4.992163512761404	4.573460956853212
O	6.905068962621053	6.890037022761404	5.684727176853211
O	3.2363534626210524	6.016042302761404	6.705888466853211
O	1.9651874126210527	4.414226932761403	8.875520166853212
O	3.4088891426210526	1.2332612257614037	7.408344716853211
O	3.496918892621053	-2.1301868572385962	9.143960076853212
O	3.262147102621053	-5.327107847238596	6.987665256853211
O	1.9725536926210525	-8.854157427238597	7.283542296853211
O	0.6768423526210529	-7.968498577238596	10.772312336853211
O	-1.3063986323789472	-4.837494397238596	9.850285136853211
O	-1.0085692857789472	-1.0999428472385961	10.297547336853212
O	-1.7619923663789472	0.5757426167614037	6.9181353268532115
O	-2.636343267378947	4.278755382761403	7.102356336853211
O	-3.5089128773789473	6.7957596427614035	4.294908376853211
O	-7.231616187378947	6.1521455827614036	4.451555676853212
O	-7.756397077378947	3.5834730227614036	7.195929476853212
O	-6.129282367378947	0.30156172876140375	8.289042556853211
O	-11.749348547378947	1.7631853547614038	5.726922106853212
O	-10.613341487378946	1.1588451607614036	2.174583616853211
O	-12.660661747378947	-0.15496221723859627	-0.7207884974467891
O	-14.147668447378948	-2.726716807238596	5.422793836853211
O	-2.6547065873789473	-7.393189177238596	-6.399472223146788
O	-0.3994280713789472	-8.657100437238597	-9.20656466314679
