29

O	8.514763332538257	12.086553207941048	15.43037972560356
O	8.500572387605676	9.776925551339406	18.20317482256672
O	11.357049200748493	12.25016659282292	16.651488413047097
O	9.778286366898922	10.180709169787242	14.873574270483537
O	10.036285000519834	11.307272870887035	14.074018643590133
O	9.443816677650682	13.55531626532153	14.15586373375675
O	8.483683721062665	13.765303427452526	16.314744892185846
O	8.077803909656787	12.558368813693793	16.59267224933349
O	10.754284691581063	13.014326086778764	17.349803192362888
O	11.66189408024556	14.787892318584975	16.27466227431116
O	12.507014248333764	14.022973326886161	15.545811423040067
O	12.133414659854978	12.732574722779797	15.644923413812451
O	9.2462903000399	12.320082637968156	14.389314700437188
O	9.016759038306603	14.261759858259108	15.17133632901449
O	10.988924468924939	14.258817731532382	17.297113360402193
O	11.003787250834652	11.010970379105386	16.53581468585013
O	8.692147700523691	10.051333635573455	15.73210730963503
O	10.218360274282393	13.923645293205917	13.249932260752816
O	8.074114320525311	14.410745130938627	17.26105185096208
O	8.606895140766536	10.466888518166476	19.407218625590264
O	9.866376103804692	10.22756504030093	19.859762648626337
O	10.804834688967766	10.287464819794069	18.82504288169679
O	10.237441984757806	10.655062198175125	17.588708859363944
O	9.140930188396458	10.022225889801042	17.071547404965514
O	10.728981056445683	12.773900012718716	18.68903026820785
O	10.568108737247533	14.538228807024755	18.52951821737871
O	9.901102800718261	13.601061654367344	19.250847034666442
O	9.793952501417378	13.42748282880149	20.70891965997365
O	9.576890630234068	12.857282293221338	21.721095103273093
