25

O	10.984992819021947	12.061687926896008	28.41625183181541
O	10.67868542577703	11.812276321434098	31.038998244036325
O	7.747066649154974	10.567580921474033	28.630530439962527
O	8.996903267735966	10.904909924554937	28.086999598988108
O	9.879931759746812	11.399973493051553	28.97700003464961
O	9.496120806381693	11.54596599994723	30.31454639636167
O	8.569834290252913	10.571866050306795	30.67686603936729
O	7.466757758020369	10.204600711684677	29.949380091676506
O	8.762907329341948	7.0067985956991485	29.342609090369493
O	8.075227379573413	7.850646365286414	30.113545152456688
O	7.023395549523124	8.791209397098925	30.079782775581474
O	5.9789416840161795	8.22539034201355	29.815161124884085
O	6.618820095882283	4.803479543454831	26.74511707349864
O	9.581334685362798	7.567553190844706	28.219147938352805
O	8.51930380799274	7.665190147031371	27.14689557096313
O	7.329289168737024	7.039675616984878	27.29296329718486
O	7.290310530474604	5.702035442197847	27.643670909198995
O	6.167356868577878	7.497054073981133	26.670742841573933
O	6.338068572821834	8.797470905340063	26.284834868409284
O	7.756820764017521	10.210162535782013	24.882155222875312
O	8.830334103446946	10.230965281797483	24.03906901275002
O	9.485986605415674	9.044247958561925	24.044876702128523
O	9.859120161144354	8.633125258551727	25.372436551882867
O	7.575283414142618	9.137288400914036	25.70202835594641
O	8.67707943598124	8.405405733341327	26.021293822567934
