81

O	-2.4197333317192986	4.292687438840351	-0.7574105398596489
O	0.47530507828070134	1.248471410840351	-0.014832781859649008
O	1.8500739182807013	2.075410948840351	1.314797146140351
O	2.3175262382807014	-3.4945270611596486	1.186499510140351
O	-2.877907891719299	2.758237618840351	1.2330865761403509
O	2.3957893982807015	-2.261117971159649	0.847700894140351
O	2.1320784582807013	-1.1120127011596492	0.396867303140351
O	2.5249926182807014	-0.08112394115964916	1.396561416140351
O	-0.5036989037192987	1.874711091840351	0.9455575511403509
O	1.4452545082807013	0.731703216840351	1.815346416140351
O	-0.5006593137192986	-2.240042041159649	1.557446496140351
O	0.21757333828070147	-1.345192941159649	2.372514516140351
O	-1.0111149715192986	2.726771098840351	0.116517810140351
O	0.33642814828070144	-0.121383231159649	1.763029486140351
O	-2.3301559017192988	3.0185823388403508	0.022821637140350987
O	0.10873338828070134	0.005964008840350976	0.5201083031403511
O	-1.1577903837192987	-0.534681921159649	0.11265247114035098
O	-2.3626884917192985	1.8883215378403508	2.177204166140351
O	-0.8015758697192986	-1.9081588811596493	0.417725095140351
O	-1.0510231294192987	1.702053188840351	2.170710646140351
O	-0.33531588771929866	-2.9739864011596486	-0.48749279585964905
O	0.9791566182807014	-1.5354517211596492	3.269597826140351
O	-0.9919517159192986	-0.335836671159649	-1.4066736538596492
O	-2.1749099217192986	0.39022527184035094	-1.921138013859649
O	-9.055005991719298	-4.144486521159648	-11.904737763859648
O	-9.705781771719298	-1.791142781159649	-4.585636983859649
O	-7.666491161719298	-2.7707177811596493	-1.583491793859649
O	-8.861970671719298	-1.7587880311596489	1.8175721861403509
O	-6.478552261719299	-0.21623281115964899	4.276359116140351
O	-7.461739031719299	-2.621679561159649	6.958176096140351
O	-6.145268821719299	-5.449499691159649	4.836674216140351
O	-2.5438395717192988	-4.141977201159649	4.664315426140351
O	0.2931228182807013	-5.854263411159649	6.670453776140351
O	2.314141608280701	-3.190837671159649	8.56913018614035
O	5.6772887282807005	-2.425941771159649	6.846723726140351
O	9.073932358280702	-1.2437554311596493	8.118094366140351
O	9.592905258280702	0.9800022249403509	5.028529406140351
O	7.479114268280702	2.232635928840351	2.112330116140351
O	8.055741438280702	4.213596688840351	-1.095577203859649
O	5.522877298280701	5.755566328840351	-3.450055223859649
O	6.576594338280701	6.252561928840351	-6.992353913859649
O	4.405957818280701	7.3767632288403515	-9.91281166385965
O	5.036432998280702	6.6176718288403515	-13.577263263859649
O	9.100346758280702	-11.826263871159648	-2.987311723859649
O	8.854318358280702	-6.923000831159649	-1.348396573859649
O	5.277200928280701	-5.705259641159649	-1.807854713859649
O	4.164859818280702	-3.666880791159649	-4.741475683859649
O	0.6973368382807013	-2.573835461159649	-5.391452363859649
O	-0.3293089207192986	-1.3638983211596492	-8.894883473859649
O	-2.9672227717192987	1.3884712738403509	-8.88201807385965
O	-3.4449598117192988	3.4150761388403508	-11.985968763859649
O	-0.06674557771929868	4.837146658840351	-12.897443963859649
O	1.1347515282807015	4.828205928840351	-9.30458789385965
O	3.3058935582807014	2.195440878840351	-7.6630893438596495
O	3.564942938280701	1.5806212058403508	-4.035506173859649
O	6.397895348280702	-0.37303663115964913	-2.553732323859649
O	7.191322538280701	-1.7821410211596491	0.9375624461403509
O	9.478184958280702	-4.231052851159649	2.734072136140351
O	10.821359858280703	-5.033929811159648	6.173697506140351
O	3.763038718280701	9.810446008840351	4.893856226140351
O	0.9731919382807013	10.34241387884035	5.699897326140351
O	-0.3315066947192986	9.257403128840352	2.299226816140351
O	-3.8475536517192985	10.332011818840352	1.2413733561403508
O	-5.777224801719299	8.14040045884035	-1.290421663859649
O	-9.244743431719298	6.799082898840351	-2.174833293859649
O	-8.220207301719299	7.602041808840351	3.573783876140351
O	-5.153457231719299	8.73216894884035	5.477124486140351
O	-2.5588888417192983	5.9885823188403515	5.540656096140351
O	0.08723448828070146	6.259044878840351	8.23425763614035
O	3.1363668682807018	4.088364128840351	9.06246443614035
O	1.2171819982807013	1.850916766840351	11.476411336140352
O	-4.921511551719298	4.344207288840351	9.03265639614035
O	-2.9947735417192987	-2.9451983611596493	10.226835136140352
O	-3.429096591719299	-6.668239861159649	9.740208096140352
O	-1.2982350657192987	-9.378198071159648	11.312818636140351
O	-6.545681191719298	-11.178764571159649	-1.4791870238596492
O	-7.446313411719299	-7.526147701159649	-0.842559173859649
O	-6.951033861719299	-6.837094881159649	-4.528293663859649
O	-3.2715809817192985	-6.3948058311596485	-3.828158223859649
O	-2.2241481017192983	-7.396051631159649	-7.338955173859649
O	-4.250693751719298	-7.807721771159649	-10.477203463859649
