94

O	2.5737903941551723	0.4285565418103452	-3.7610598808103446
O	-1.2734758818448277	1.3852663628103452	-1.7700490598103444
O	1.1562513241551722	1.7765141358103451	-0.9448901135103444
O	1.5916565841551722	0.8195719588103452	-2.9748477808103444
O	-2.9618143058448276	0.2068822148103452	-1.8418167928103444
O	0.3660320641551722	0.9430647811103452	-3.5107500108103444
O	1.7461583641551721	0.8275082688103451	-1.7016676388103442
O	-2.428047245844828	0.022608463810345203	0.8149946291896556
O	-3.088084185844828	2.496281792810345	-2.166180770810344
O	3.049191464155172	0.6609995568103452	-1.2924703968103444
O	2.941939314155172	-2.362377337189655	-2.3636825908103445
O	-2.867741655844828	-1.7033511471896547	-0.8755414509103443
O	4.048966354155172	0.2956231458103452	-2.0659266708103443
O	-2.4313676358448277	2.1128427428103453	0.8081164891896556
O	3.8387438741551723	0.5237668328103451	-3.3532413008103443
O	-0.0777448488448278	2.219480742810345	-3.4168883408103445
O	-0.5949643848448278	2.514674082810345	-2.1342287208103445
O	-2.449579395844828	1.3943513868103452	-2.1371289408103444
O	-2.2336109758448277	-0.8440659971896548	-1.5112563758103443
O	-1.0995099888448279	-0.9218703771896549	-2.2274595808103443
O	-0.7091117798448279	0.22210139681034513	-1.8987990408103443
O	0.7249680141551722	1.0298384681103452	0.05720922818965568
O	1.490961384155172	0.1566715588103451	0.6188099991896557
O	0.7939715441551722	-0.9437332271896549	0.39826506918965576
O	-0.37604771684482785	-1.1345287071896548	0.9160885191896556
O	-1.0767216108448279	-0.04470823718965489	0.9593689791896557
O	-0.5059272958448278	1.0480204048103452	0.4178537391896556
O	1.5993285541551723	-2.112209767189655	0.37866965918965556
O	1.1386727241551724	-2.645868367189655	-0.8495931763103444
O	-0.024870036844827803	-3.1561370271896547	-0.44559448681034436
O	-0.7604237908448278	-2.302175787189655	0.4387254891896556
O	1.8336521141551723	-2.404590187189655	-2.0983908708103445
O	2.873040174155172	0.018602052810345104	0.8700363591896557
O	-3.195511095844828	1.120850798810345	0.6530367991896556
O	-4.508510345844828	1.5614948868103453	0.2815552791896557
O	-2.798224535844828	-0.5480919771896547	2.1152693591896554
O	-8.248304405844827	-6.416088087189655	6.108548849189656
O	-7.809651385844828	-4.558214647189654	2.8136401991896554
O	-7.324509685844828	-6.635985707189654	-0.2672008268103443
O	-4.566354635844828	-5.671316507189655	-2.6766692808103443
O	-7.099019255844828	-5.873490547189655	-5.525017040810344
O	-8.926711105844827	-2.9928567471896548	-3.9524029508103444
O	-5.974240825844828	-0.5807922571896548	-4.0307534408103445
O	-5.988779425844828	2.348064332810345	-6.469912300810344
O	-2.654864915844828	2.4842240428103453	-8.300942970810345
O	-0.3419623558448278	5.2852708728103455	-6.853356620810344
O	2.494401424155172	7.494876882810345	-8.383667370810345
O	4.517418764155172	7.280508592810346	-5.034494810810344
O	4.299550864155172	5.250819102810346	-1.7141687238103445
O	6.096217904155172	5.364343572810346	1.6538597191896556
O	5.936687924155172	2.800570422810345	4.483801619189656
O	6.647437064155172	4.017926142810345	7.922463409189657
O	6.284044154155172	1.9599228628103451	11.069041289189656
O	-3.029017435844828	11.606330232810345	0.2499053091896556
O	-3.8782765958448278	8.090358672810344	1.3137255291896555
O	-2.8907271958448275	6.727134722810345	4.705911749189656
O	-3.7930996358448277	3.218179272810345	5.768253349189656
O	-3.5000815558448277	2.042764992810345	9.277424089189656
O	-2.450015135844828	-1.5195427671896549	9.945966989189657
O	-1.1681177788448278	-2.425630967189655	13.381816189189657
O	1.7063988341551721	-0.10814243718965477	14.104118789189656
O	2.463347144155172	0.34801912881034514	10.356658689189656
O	1.434746114155172	3.3533305428103453	8.328272199189655
O	1.165628084155172	3.174788202810345	4.533011979189656
O	1.133563124155172	6.291469092810345	2.5219806291896556
O	0.5906419441551722	6.980826292810345	-1.0892201988103443
O	-0.1497036048448278	10.025798582810346	-3.4054684408103446
O	6.025888364155172	13.459481432810346	-2.0118399408103445
O	4.5931514941551725	15.613628832810345	2.2287353491896558
O	6.1038678641551725	12.609146432810345	3.941185979189656
O	11.772216204155171	-0.030509562189654837	3.2172616791896558
O	11.54401290415517	-0.35718374718965473	-0.5723396508103443
O	9.233177804155172	-2.182835897189655	-3.1425415308103446
O	8.285444814155174	-4.966987737189655	-3.5868376508103443
O	6.499346594155172	-4.982235957189655	-0.21405732181034431
O	5.404278704155172	-8.209960987189655	1.3909131791896554
O	2.407014424155172	-8.253662237189655	3.745435209189656
O	-0.4489646848448278	-10.498667267189655	4.824744659189656
O	0.8841286141551721	-13.153270967189654	2.4035629191896555
O	1.0390062441551722	-10.978219367189654	-0.7340799258103443
O	3.6810915941551725	-9.345712467189655	-2.8734253608103444
O	2.568507864155172	-5.730166137189655	-3.5575999008103443
O	4.314985594155172	-4.079805957189654	-6.479168530810344
O	4.084277614155172	-0.5731398971896547	-8.141692940810344
O	1.273876904155172	-1.504904497189655	-10.481057450810344
O	0.6120248141551723	-5.183290737189655	-9.920601550810344
O	0.19305151415517208	-7.575502917189654	-7.003107050810344
O	-3.735840265844828	-5.327706077189655	-11.437078010810344
O	-4.959178185844828	-2.4709671971896547	-9.289823810810343
O	-8.419565245844828	-0.9341039671896548	-9.273240510810345
O	-8.144780045844827	-7.666532417189655	-10.476398380810345
O	-11.234373995844827	-1.5846201571896548	5.132127249189656
O	-9.005484715844826	1.2954533288103451	4.141881419189656
O	-9.547809195844827	3.248810232810345	7.333916279189657
