31

O	13.45559897627675	14.658484333604545	18.335527332523913
O	12.471378434853502	15.263766279759672	17.595411877187658
O	12.661133404868822	14.411394687048706	16.688512421106818
O	12.766175969970002	14.901753113870937	15.31775290011864
O	11.961161153892698	14.13929156679181	14.428471785757031
O	13.266331047152072	13.123826057122326	16.646969050138
O	12.485206598194587	12.356340595292382	15.743903160377446
O	11.397529459140424	13.167543853906935	15.25073672074311
O	10.815961154976465	14.259885760609023	15.94375144161501
O	10.565216972953468	13.868863068518154	17.216942165173496
O	11.038978040083926	12.524232126755242	17.089103451659767
O	10.155614185122488	11.927972101488603	16.231227131516437
O	9.19452149091145	11.993609273317647	17.216864301556377
O	10.013422796260448	12.211306190960787	18.305570693755975
O	9.180852235617646	12.201931059037097	19.424567322228196
O	8.584297652313282	10.876611991090511	19.115005420912674
O	9.892964198704188	12.333021548566906	20.6050524495273
O	11.230980865254566	11.790888268788468	20.197324599604606
O	11.751281291764823	12.774360552781275	19.469792482080997
O	11.52125037800632	13.973354031349954	20.001797749698056
O	10.34630555476269	14.576978206656392	20.510638754899848
O	10.627853553255257	15.851950252143347	19.915273761562876
O	10.73260402518621	10.61233970642002	19.549001959768347
O	10.781527193975803	10.984016216434974	18.17767473631446
O	10.007405981426285	9.94286689953909	17.52123926458883
O	9.481536816671307	12.7804475067348	15.425761757721983
O	8.873225603718295	13.739775272559076	16.169158517941153
O	9.414509908943574	14.368301913088054	17.38553319101238
O	8.465983269150586	14.919538593084628	18.13370048378136
O	7.483844637966929	14.043661705115344	17.77980711591708
O	7.726974538647133	13.159712686121832	16.742971950004314
