25

O	9.618247343234524	12.965286115957609	16.513849404558144
O	9.70701197038797	13.332588301368014	13.469966209496974
O	8.712114085052857	13.844959403000898	17.26428167691972
O	9.031269631824006	14.03630686806365	18.70047127457565
O	10.72691255018419	15.551058932546836	12.692355928102165
O	9.58849051639187	12.871596404329468	19.150399197975947
O	9.365578714207103	11.647554015919132	18.460760385785857
O	11.572162762497387	13.846344740579012	13.18240999083486
O	10.073258196306119	11.902123797844073	17.12734937492311
O	12.130313902587044	16.871414669730495	17.88151176466669
O	8.579101784527989	15.090190531845886	13.874864872544165
O	8.935052907165513	13.018331143350215	15.380462639322113
O	9.120560040787874	13.992556824368208	14.51580924347801
O	10.342182269534852	14.18351994369505	12.553485422626567
O	9.512710640040552	16.09976977302198	13.176266219871849
O	11.463313157994232	14.115322927310636	14.522871532636703
O	11.60913567730269	15.51341534322356	14.785693626192032
O	10.981821728762757	15.855578637879454	16.028027679522282
O	11.29906833946212	14.785899312398925	16.971744354740025
O	12.552642469603123	14.220162777204227	16.5758151311378
O	12.322791139744645	13.409126651320333	15.387537365365674
O	11.433880292301478	15.663723423602015	18.15919842417574
O	7.788704692042618	12.70417843023863	17.577886847960816
O	10.91745957889043	12.983562982575316	19.74471708784266
O	11.36073954614173	11.607048606072167	17.892852025128942
