83

O	-1.1526652029203697	-1.9789894889259263	2.0192658905555554
O	-0.29608888037036973	-2.0515095189259265	0.8647135905555551
O	-0.16882678637036974	-0.43749987792592626	1.5301597505555553
O	-1.5952139673703698	-0.36256741592592634	1.1413572405555552
O	-2.0496345573703696	-0.7675127989259263	2.4182788405555553
O	0.5846379536296302	-1.0616109689259263	0.7488676705555551
O	0.02331768362963027	1.0369524140740736	-0.3625875054444449
O	-2.03920830637037	-2.490494158925926	-1.361119945444445
O	-2.1893276363703698	-1.3906388389259263	0.44822516055555506
O	-1.9958671033703697	1.7462841310740738	0.6101902705555552
O	-0.8019344963703697	-1.1408473689259262	-2.646545289444445
O	-2.0384886553703696	-0.0607202259259263	-1.006831006444445
O	-2.3976286763703696	-1.2894505089259263	-0.7696846085444449
O	-0.032442656370369694	0.7572282070740737	-1.656065249444445
O	-0.3941504493703697	3.612408621074074	-0.8076601300444449
O	0.2801809236296302	-0.1387259199259263	2.8087105805555552
O	-1.7729111213703699	0.24973619007407372	3.374604400555555
O	-1.9947279833703697	-1.8080015989259262	-2.570327659444445
O	0.019318333629630313	-2.971202818925926	-0.16724471144444486
O	1.6327094636296304	-1.5820135689259263	0.22028410055555503
O	-1.1115752555703697	0.01603041707407371	-1.9740684994444448
O	-1.4080588083703698	2.7943080310740736	1.4072982605555553
O	1.0995021436296302	-2.294635738925926	-0.9556396104444449
O	-1.2389489237703697	1.5561456410740737	-0.4948634874444449
O	0.9161439936296301	-0.9066586689259264	-1.297027406444445
O	0.7207912236296303	1.9325944410740736	0.28249835055555506
O	-0.013298106370369656	2.273843241074074	1.464539360555555
O	-1.0735128130703697	3.7905528110740736	0.3729290605555552
O	2.06594419362963	-0.6724325889259264	-2.051889259444445
O	10.14604053362963	8.615111921074075	-8.125441749444445
O	2.55095468362963	7.285292611074073	-7.746527959444445
O	0.7341840536296302	4.044995801074074	-7.4873757194444455
O	-2.9934382563703696	4.011683031074074	-8.119127949444445
O	-5.34860375637037	2.328856621074074	-5.682063839444445
O	-6.96469074637037	0.3107001630740737	-8.388220939444444
O	-3.6510284563703697	-1.3396741589259262	-9.154870169444445
O	-3.12490092637037	-2.955511008925926	-5.687156799444446
O	-3.6105886463703696	-6.727646948925926	-5.037969979444445
O	-5.92249101637037	-7.348376548925927	-2.026010039444445
O	-3.93350478637037	-8.276160878925927	1.132731350555555
O	-4.74964766637037	-10.468004758925925	4.157154050555555
O	-2.72303720637037	-8.130158348925926	6.4376553905555545
O	-1.0361511623703696	-4.756301148925926	6.252617210555555
O	1.1919979936296303	-2.5471492989259263	8.408607680555555
O	2.1561647936296304	1.0949416770740736	8.054583390555555
O	5.35125223362963	2.2367530410740737	9.587592300555556
O	7.00743927362963	5.643833441074074	9.198612100555556
O	9.38396303362963	-12.189365158925925	-1.743222824444445
O	5.91374748362963	-9.744045258925926	1.294677390555555
O	5.14705890362963	-6.404371158925926	-0.3315979584444449
O	6.78419374362963	-3.132040088925926	0.7135629405555551
O	6.0719806236296305	0.1942400480740737	-0.9145674944444449
O	8.493180943629632	3.132027481074074	-0.3998342034444449
O	6.75646999362963	6.5312064010740745	-0.3403468704444449
O	8.63709896362963	9.432869901074074	1.1209440305555551
O	9.63273143362963	8.425119361074074	4.611852820555555
O	6.80209457362963	6.004310781074073	5.038569680555555
O	6.85001595362963	2.2590274910740735	4.538736300555555
O	3.84360981362963	0.14827582907407372	3.7602043805555554
O	3.93218654362963	-3.5840902389259264	4.259654590555555
O	1.42701467362963	-6.331936988925927	3.3031252205555552
O	1.3022022336296302	-10.169970358925926	3.0223410305555554
O	7.52888932362963	-10.691425358925926	9.940851000555556
O	-7.33345761637037	1.1227722100740736	8.539434380555555
O	-8.89579375637037	2.958199871074074	6.841153840555555
O	-5.74966245637037	4.6340368210740746	5.5635142605555545
O	-5.97355092637037	8.044354891074073	3.931402380555555
O	-3.3622871663703697	9.208579181074073	1.4195550205555554
O	-2.8550015063703698	11.131797341074074	-1.8374606694444449
O	-7.98881415637037	8.369455871074074	-1.302355045444445
O	-9.470291326370369	6.191060931074073	1.3902115305555554
O	-8.00657881637037	2.7821668310740737	1.3377463605555553
O	-9.95045699637037	0.013087000074073707	3.093608090555555
O	-9.05579946637037	-3.7039891189259264	3.601487820555555
O	-10.80082804637037	-4.832151558925926	0.3862068005555551
O	-11.045309706370368	1.9022030310740736	-1.940841819444445
O	-8.688987396370369	-4.3037272489259255	-5.7844294494444455
O	-6.8977597763703695	-6.0433686389259265	-8.619210869444444
O	1.9737987136296304	0.6952429120740737	-10.679335869444444
O	5.08217592362963	2.390368801074074	-9.371311819444445
O	5.1412115336296305	-0.12470216592592631	-6.583603509444445
O	8.90649693362963	0.09760765807407373	-6.145043349444445
O	11.38450683362963	2.563987491074074	-7.490466449444445
