22

O	11.415589974987068	14.580545268512958	17.111375786573078
O	10.634300920662984	13.383917376884897	17.184550228982296
O	11.101867064545957	11.22586702345114	16.23615785239404
O	12.767694197496528	15.485876697241785	15.034433847644614
O	11.483843040739623	14.911447879662049	15.692248329721973
O	10.24410305833835	15.206127371952954	15.17928140019918
O	12.188605530705841	12.892288108830948	15.252282530291067
O	12.080102636850516	13.341359795800674	19.12123937401359
O	9.246291933059684	14.221844376789765	15.497536134962084
O	7.937779296390024	10.406543051463007	15.28699202343822
O	9.442385007800503	13.390190119032333	16.55020334813642
O	8.988998670201108	12.11393480505378	16.428948552764187
O	8.081949744812846	11.795560290777452	15.465821705970399
O	8.511281199774356	12.445274039725197	14.346911962732444
O	8.464867023848269	13.831956739989156	14.473113413344144
O	11.435146454208539	12.38823623197454	16.391290600526
O	11.848317560282375	12.769542436909044	13.9614114233224
O	11.069379790558445	11.514991129771618	13.988850368037781
O	11.30003409917118	13.483752226803556	12.837180591228453
O	12.52471625264539	13.589153550801282	17.323560424111257
O	10.598513930385637	12.3606412849787	19.218232758022413
O	7.771955615876946	9.739474816044153	16.50054813005648
