89

O	-4.367059852866666	1.1314037730849995	2.7931535366416664
O	1.543370747133333	-1.6654775939150004	-1.3631545673583334
O	-2.174289272866667	-0.8524063639150005	-1.5809422843583336
O	-0.7561496448666669	-0.08587964291500039	1.8741912266416663
O	-2.032617441866667	0.08208965608499963	2.1968883066416662
O	-2.6480470528666666	1.2551408870849996	2.5990589866416665
O	-2.033865813866667	2.2343001760849996	1.9172831766416663
O	-0.8748197308666669	2.0441863360849997	1.3133258966416663
O	-0.8480671048666668	0.7834026070849995	0.8733686066416664
O	-0.39815996786666685	2.6650233160849996	-0.004695193358333571
O	0.9153708371333333	-1.2692270039150002	-2.6486969033583336
O	-1.3499889608666669	2.3446750960849996	-0.7755861088583336
O	-1.2167562402666667	2.1868423760849995	-2.1289353333583336
O	2.3076971371333332	-0.4620283939150004	-1.2198773143583335
O	-1.813649417866667	1.7964004780849996	-3.033372743358334
O	-0.06187494286666695	-1.1339623939150005	1.0996963366416665
O	0.0348082071333331	-0.46126506391500033	-1.9705283633583335
O	-3.220109112866667	-0.2355283339150004	-0.9014231508583336
O	-3.414781192866667	-0.9111603139150005	0.22463192664166654
O	-2.247461002866667	-1.5738368539150005	0.6627886066416664
O	-0.9273024598666668	-1.3773959839150005	0.08958723264166646
O	-0.9022667678666668	-0.9216179639150005	-1.1380563653583335
O	3.4911217971333333	-0.2971868239150005	-0.7008535583583335
O	3.344364707133333	0.07687385708499961	0.6110225066416664
O	2.2653374671333335	0.5915074510849996	1.1749878066416664
O	1.4208112371333332	1.0071906110849995	0.23972366664166644
O	1.5373951871333331	0.5866372960849996	-0.9836267073583336
O	4.333556467133333	-1.2001738939150002	-1.0298804183583337
O	1.969211487133333	0.9026269067849996	2.297109076641666
O	-0.3134767288666669	8.343435446085	9.682054716641666
O	1.5942675571333333	7.3705750360849995	6.526404026641666
O	1.4001508671333334	9.595780446085	3.5123822666416666
O	0.8564066771333332	8.063572496085	0.1222368406416664
O	3.718827017133333	10.022647786084999	-1.3565158503583334
O	5.999983167133333	8.155100366085	0.9807934866416665
O	5.248990847133333	4.6665945160849995	-0.3139464963583336
O	7.786704577133333	2.7438418560849995	-2.4303824333583335
O	6.009853647133333	1.3338492630849996	-5.502680103358334
O	5.354344807133333	-2.425163383915	-5.210699853358334
O	5.087090817133333	-5.266885293915	-7.779617023358334
O	2.264664147133333	-6.966462053915	-5.7878759233583335
O	-0.02312189286666677	-5.922739383915	-2.7986419833583334
O	-2.576619962866667	-7.763797463915	-0.6187696863583336
O	-5.019128782866667	-6.259840323915	1.9171409066416663
O	-6.246440422866667	-8.462227393915	4.701292026641666
O	-8.335513732866666	-7.458632213915	7.735844276641666
O	11.796340957133333	-8.229488103915001	1.6004310166416664
O	8.126885137133334	-7.847978173915	2.5088683166416663
O	6.379375667133333	-4.716189293915001	3.6967314766416663
O	3.444594527133333	-4.7753938239150004	6.069284786641666
O	1.6867466471333332	-1.6823196539150005	7.2311342166416654
O	-0.39396314886666683	-1.9270590039150002	10.446192216641666
O	-3.458424132866667	0.3136376950849996	10.546336216641667
O	-6.177505422866667	-0.4456342039150004	13.075485316641666
O	-7.273938322866667	-4.027304933915	12.521890716641666
O	-6.210646902866667	-4.019936203915	8.875233496641666
O	-2.9701901528666665	-5.330495793915	7.394096076641667
O	-1.4341944168666667	-4.167093333915	4.050822456641666
O	1.2381520071333332	-6.285073973915	2.4871441766416664
O	3.4498149471333326	-5.624402123915	-0.4740482683583336
O	6.595325107133333	-7.134551923915001	-2.101727383358334
O	8.408053897133334	-7.309872533915001	-5.410652883358334
O	3.4965455271333328	-13.563456463915001	-3.5674425033583335
O	4.102068677133333	-15.582370963915	0.9471486066416663
O	0.6225897171333332	-14.302602863915002	1.6694858466416667
O	-10.327114512866666	-6.507183573915	-1.8804668333583336
O	-8.788548902866667	-5.249731383915	-5.149346273358334
O	-7.097401902866667	-1.9611320039150004	-6.320504603358334
O	-7.858834982866667	0.8886724899849996	-6.394101843358333
O	-7.864318472866667	1.1147464170849997	-2.5892273833583337
O	-9.504553492866668	3.9647468060849995	-0.8246042830583336
O	-8.302131372866667	5.029278666084999	2.6044633766416663
O	-7.064448702866667	8.993977446085	-0.8943272181583336
O	-7.226731482866667	6.719729616085	-3.878658283358334
O	-4.216423342866666	4.479119876084999	-3.9453457433583337
O	-3.447346382866667	2.8143610960849994	-7.356939833358334
O	-0.6857766248666668	0.29616519008499953	-8.368214273358333
O	1.777038637133333	3.0444170960849997	-9.318877533358334
O	0.039174217133333133	6.356128116084999	-8.750916623358334
O	-2.1279801728666667	7.9972153560849994	-6.055664653358334
O	-7.059707782866667	12.367609636085	-3.3409935533583335
O	-10.547555832866667	10.903042836085	-3.7359192833583332
O	3.754082217133333	9.033326566084998	-8.138672303358334
O	5.467481187133333	6.866808316085	-5.582157233358334
O	8.837877777133333	7.322862576085	-3.9594135933583336
O	12.126724157133333	5.998158786085	-5.2774527233583335
O	5.360664707133333	13.024107536085	-5.408757183358333
O	5.1040717171333325	2.7326664360849997	8.224630066641666
O	5.417146427133333	0.6588420760849996	11.396034716641665
