86

O	-1.8333693350421054	-0.901297949017544	1.8676758907543851
O	5.345858164957895	-2.1012905890175437	-1.589899109245615
O	4.0427429749578945	2.571366890982456	-2.1523367792456147
O	-1.2834326740421054	1.4175897499824561	1.310908970754385
O	2.249940034957895	0.821801768982456	1.762022670754385
O	-0.16854105904210537	1.803836420982456	0.713436980754385
O	0.7522876549578946	1.155341302982456	1.479548160754385
O	0.2900460149578946	-0.062496390017544035	1.2804819607543851
O	-0.8942761980421055	0.259042561982456	1.803398810754385
O	2.8733212649578945	0.02811548698245603	0.33808818875438507
O	2.982412334957895	-1.2397367990175439	-0.2623567466456149
O	4.003509524957894	-1.020896389017544	-1.101290314245615
O	4.265720864957895	0.18508999798245596	-1.784101439245615
O	3.2374937449578947	1.117345229982456	-1.546167569245615
O	2.211614824957895	0.560316691982456	-0.8509403212456149
O	0.35524446495789463	3.060138820982456	0.5015045407543851
O	0.02634157195789455	3.846896280982456	1.7773902707543852
O	1.7469000449578949	3.427513330982456	0.26869701275438507
O	0.5292701049578946	-1.320088399017544	0.6390777747543851
O	-0.8709663120421054	-1.6312180790175437	0.05405275675438509
O	-1.2875125340421054	-0.525972739017544	-0.6934826132456149
O	-2.5733469650421052	-0.3677024890175441	-1.094449280245615
O	-3.2720220650421052	-1.526791999017544	-0.9945264002456149
O	-2.6894763950421052	-2.720122769017544	-0.7112558262456149
O	-1.4568568690421055	-2.779476149017544	-0.18161140024561492
O	-3.174547195042105	-0.6973936990175439	1.967930270754385
O	-3.954541455042105	-1.8258034190175438	2.093135580754385
O	-5.115015415042105	-1.9299088790175438	1.315559610754385
O	-3.4752341250421055	-2.954079289017544	2.261608060754385
O	5.715998084957895	9.879965530982455	-4.492586049245615
O	2.3157566249578947	8.644740750982455	-3.292055429245615
O	-0.29065809304210544	7.746541650982456	-5.896790479245615
O	-2.1506155950421055	4.4449602109824555	-5.290826049245615
O	-5.446215245042105	6.303371710982456	-5.952998699245615
O	-4.831994835042106	8.352559610982455	-2.830822959245615
O	-4.426302145042105	5.174428030982456	-0.4467336512456149
O	-7.135592305042105	4.617072010982456	2.0412494107543853
O	-8.301947825042106	1.086611845982456	1.861626240754385
O	-6.981990295042105	-0.903485819017544	4.885135750754385
O	-8.228165575042105	-4.109041069017544	6.659825050754385
O	-4.592886965042106	-5.344949569017544	7.034844830754386
O	-1.1587591990421053	-4.356674619017544	5.610070500754386
O	2.324815104957895	-5.455035789017544	6.277539450754386
O	5.460979674957895	-4.795151109017544	4.389061410754385
O	8.756805344957893	-4.880193879017544	6.244701860754384
O	12.161465314957894	-3.8074780690175443	4.893992410754386
O	-1.8130231050421055	2.980015160982456	12.253665980754386
O	-0.4323454830421054	4.1077593109824555	8.906642220754385
O	3.2161111149578945	3.823074960982456	8.010413180754385
O	4.580640944957895	4.927286990982456	4.7318377607543844
O	8.296147794957895	5.386292300982456	4.306411350754384
O	9.918166614957894	4.6706270109824555	1.024876060754385
O	13.633660414957895	4.1508325509824555	0.7957324407543851
O	11.029024614957894	-0.17600269001754398	3.059766460754385
O	8.175035004957893	0.319178652982456	5.466044320754385
O	4.475411734957895	-0.20016395801754394	4.611676770754386
O	2.1299345949578945	-0.524239859017544	7.518089270754386
O	-1.6304613260421055	-0.715074139017544	7.5456631007543855
O	-4.491057095042105	-0.529701139017544	10.055236880754386
O	-2.526497765042105	-6.437913859017544	13.791637280754385
O	3.3601150449578947	-5.309306019017544	13.929150080754386
O	5.856657754957895	-10.613829549017545	1.434862560754385
O	2.2277112649578945	-11.058847449017545	0.4452800477543851
O	-0.27721854604210544	-9.118027359017544	-1.7550544392456149
O	-0.44335941004210544	-8.289987449017545	-4.583518449245615
O	2.3843561149578947	-5.895622329017544	-4.108176379245615
O	4.254782134957894	-4.4960806890175435	-7.138842609245614
O	5.926647584957895	-1.025786109017544	-6.832991749245615
O	6.771533724957894	2.073959360982456	-8.864073609245615
O	1.7194428749578945	-0.5041472890175439	-10.158640289245614
O	0.005618678957894585	-3.5420100090175435	-8.799004759245614
O	-1.4067120850421055	-2.768334289017544	-5.449006519245614
O	-4.209271795042105	-5.213810499017544	-4.296449529245615
O	-6.231573995042106	-5.409727089017544	-1.0464082972456148
O	-9.039246725042107	-3.163218689017544	-2.370941319245615
O	-8.140140855042105	-2.285483339017544	-5.954741089245616
O	-5.023562795042105	-1.1688206090175441	-7.884649849245616
O	-3.8750109150421053	-1.009443179017544	-11.456882619245615
O	-0.7861723046421054	-0.4226380290175441	-13.476287519245615
O	1.3346060549578946	-3.5327246890175434	-13.966092019245615
O	-10.427569415042106	1.694660777982456	-6.250212099245616
O	-9.032664865042106	3.259188830982456	-3.115461279245615
O	-9.955574385042107	6.5438922809824565	-1.537186249245615
O	-10.119950595042106	6.2822004209824565	-8.407732409245614
O	2.3648363349578947	9.748536010982455	2.706632560754385
O	5.010280984957895	10.845194250982455	5.163501150754385
