23

O	9.68248532560666	14.759721933910999	18.70358941024696
O	12.418555417758093	12.552811037677971	15.133036985029408
O	10.63032249528547	13.522979353956297	16.754968866087083
O	10.58998055494675	15.305970394370275	13.690618735550252
O	10.236301824984874	13.339983017900288	18.057649428413775
O	11.241938350301115	14.016195056564117	11.837232455130849
O	10.437318195528038	12.290666820785397	18.896988332908624
O	10.11394332111143	16.637928347707863	14.867867551231862
O	10.581062022105398	11.089436481073703	18.21387807790585
O	11.349423719541276	11.217847521047734	17.089688378763725
O	9.725866308572058	13.084592603797349	13.595485044493895
O	11.268285355757088	12.375263659817572	16.37659872205861
O	7.312443148751834	12.676848043154996	19.46705050993551
O	10.626469023165955	14.71758606686011	16.039717896595935
O	9.882172287271281	15.416101007096618	14.958536698683794
O	10.202661787803706	14.192362706387117	13.088106276040936
O	8.767098125361848	12.985072712776018	14.498136884913665
O	8.744149533465016	11.824862375722793	15.17869706629184
O	8.010065132789336	11.666946155114953	16.31281702840257
O	7.356506684655178	12.681860012007263	16.932375801416235
O	7.421986673301776	13.83749970405725	16.26591728350236
O	8.000147678367462	13.872785775560994	15.03366695602708
O	7.131716892252841	12.522983616812994	18.320716420482803
