36

O	7.060586484684475	9.47371435070659	15.835652051846479
O	9.88823193755463	12.825035096965014	15.161896890126393
O	10.299574486369362	10.512841681565076	16.2673810914738
O	8.084424094079893	10.297815137428588	15.744966958391865
O	9.410794552428277	14.821674910100638	15.334261160199667
O	7.988406628726157	11.331237561806706	14.892080166113244
O	9.020873118193236	10.265047017620155	16.620701469864443
O	11.198869510117644	14.635381953569254	17.37033431746816
O	10.629470600794003	14.036228180340911	13.528600997152582
O	8.979684228908445	9.165605806258169	17.446894723217607
O	6.290537659466458	10.322582871622469	18.76207578668621
O	8.920886024702455	15.5488520776895	17.289442021025273
O	7.978272860678245	8.316621176661513	17.53455731767875
O	12.508692388433534	13.840778142619403	15.948326411030745
O	7.190097986393507	8.309393661232303	16.47053188556056
O	8.945366089185876	11.261171225028196	13.935887210493608
O	10.19600114775569	11.737830746514298	14.392591171535848
O	9.838319154122667	13.871422242628988	14.51333516771404
O	8.86229157808351	14.58151228485951	16.51133754854009
O	8.059629111286432	13.50431726138364	16.48747446181856
O	8.953474940082543	12.737869302602071	16.060043657271713
O	10.667222970998736	11.282932838276004	17.277097457073925
O	10.397706784406395	10.960606267193501	18.496945122607283
O	9.67051570025724	12.002118893603464	18.859946737515862
O	10.161370673769243	13.197270749054086	18.924464557230927
O	11.011175748763627	13.4302909744715	17.973644558575995
O	11.182361726294896	12.440535809826754	17.076883238384575
O	8.76942006330775	11.704852588790425	19.915399585952482
O	7.593882293229492	12.223784150517497	19.320046015794052
O	7.7967531164844495	13.524746594482151	19.52923720020866
O	9.139317688996746	13.95407322422199	19.27328806848601
O	6.672689625222545	11.381969407004828	18.58284916252327
O	10.240347992573264	9.763631337739103	19.228251408033746
O	11.911699628935876	14.908527499428226	16.2573958382051
O	12.155600554391803	15.915936545853619	15.266551695953936
O	11.890630639242435	15.308470764324019	18.475713250655616
