20

O	9.1343846109249	12.883688251722235	18.871066304320955
O	9.826884110611928	12.65334539054728	20.114257751627406
O	10.794420485303894	13.698464407278122	20.202967696049637
O	10.073753387976412	14.90214812909076	20.184582813227273
O	8.88244522910371	14.984275251176495	19.43062741994433
O	8.739068734486917	14.07759081779532	18.42835932092014
O	8.458849978437545	13.890269342149372	17.10177767241734
O	9.245133695474705	12.8877701890943	16.801354656225723
O	10.130379041733406	12.197099779896925	15.920868103834472
O	10.192200533907664	13.224767586913712	14.570319500199187
O	10.851606788056369	14.663289564784233	15.325106809862644
O	9.264342001317711	12.171462552846057	17.816499561794853
O	10.835130290843663	14.846827333119293	16.629337921221182
O	10.827540319149243	16.088890214014736	17.01489197919438
O	11.455173629168518	16.42621938589211	18.312918449173928
O	11.314783439311936	16.938857556763395	16.063040672055294
O	11.676300888292738	16.57259083836362	14.76030351602893
O	11.829578680977686	15.244309635228495	14.565697742858527
O	9.88339863887762	10.894085631165131	15.599958472810485
O	11.503895726013836	12.077667828226007	16.27340601994066
