88

O	-4.099162328013793	-0.5270031508620692	3.3027648242287926
O	-1.062299720083793	0.7307415244379308	4.502452244228793
O	2.854768321986207	-1.2132847408620693	0.45770388422879293
O	0.9494871919862069	-0.07095413486206925	2.394209164228793
O	-1.754118575013793	-1.0572026608620693	0.2237314782287929
O	-2.368116868013793	-1.1358452208620693	1.3665547142287928
O	-3.155467758013793	-0.20249777286206916	1.9205830442287928
O	-2.481102248013793	0.9689680731379309	1.8018832442287929
O	-1.392387085013793	1.0829685081379308	1.0913363242287928
O	-1.354618761013793	0.1637555801379308	0.1970960282287929
O	-0.6071137200137929	2.178015519137931	0.4439227742287929
O	2.824791321986207	0.2226874731379308	0.5557911542287929
O	2.629220711986207	-0.22383479086206926	-1.849429985771207
O	0.3718059219862071	0.050163217137930816	-2.133376985771207
O	0.17953961198620716	-1.1325443008620693	-1.6819094897712072
O	1.2686616419862071	-1.550115030862069	-0.9146455587712071
O	2.503329101986207	-1.2561699308620693	-0.962794855771207
O	1.600864031986207	0.3334780001379308	-2.477255445771207
O	-0.549364368013793	-1.8612049808620694	0.07458905222879286
O	1.499695321986207	0.4308992581379308	0.028342835228792884
O	-0.07376922801379293	-0.07956538486206921	3.343674054228793
O	-0.578058478013793	-1.324784430862069	3.3640170642287925
O	-0.45543062901379294	-1.941251590862069	2.158394664228793
O	0.3965102119862072	-1.504931560862069	1.0727467342287929
O	0.778404881986207	-0.2529748018620692	1.099892644228793
O	3.8566117219862073	-0.0962011018620692	-2.024499305771207
O	-0.715913169013793	0.02086523313793076	-2.6608580757712073
O	-0.6773239280137929	2.3445826091379307	-0.7812153260712071
O	-1.687943193013793	2.5950688291379307	-1.716865138771207
O	-2.540615698013793	2.4451548391379307	-2.466157445771207
O	0.8029023419862071	1.7495986791379308	12.687144324228793
O	2.6046037919862073	2.2831982591379307	9.309054824228793
O	2.770796881986207	5.811453689137931	7.917718384228793
O	1.9984700419862071	6.233909749137931	4.2081132742287926
O	5.168265991986207	8.283749739137932	3.7796925442287925
O	7.1376612519862075	5.18369811913793	4.656574934228793
O	5.774195421986207	2.939107949137931	1.834061904228793
O	7.998452821986207	2.118688889137931	-1.128949198771207
O	6.157627991986207	2.8329809991379307	-4.393230975771207
O	4.939244801986208	-0.44557321086206914	-6.057384935771207
O	4.196812311986207	-1.4885408308620691	-9.681360445771206
O	1.104828531986207	-3.5179552408620696	-8.545232075771207
O	-0.9551423452137929	-3.9334559808620693	-5.299833505771208
O	-3.829664858013793	-6.13535752086207	-4.183280635771207
O	-6.0944993880137925	-5.867117080862069	-1.1692898167712071
O	-7.686177718013793	-9.025623170862069	0.14303633322879294
O	-9.633615168013792	-9.45667439086207	3.3954386042287927
O	10.252097901986208	-9.783149290862069	-3.6435427157712073
O	6.677180381986208	-9.41413399086207	-2.389008935771207
O	5.420252671986207	-7.19205102086207	0.344647424228793
O	2.5168669819862073	-8.039170360862068	2.574045854228793
O	1.258492841986207	-5.831273980862069	5.294331014228793
O	-0.986612312013793	-7.34442805086207	8.020364304228794
O	-3.643102048013793	-5.04523686086207	9.481036624228794
O	-8.130307228013793	-9.20994071086207	9.174110674228794
O	-7.000104228013793	-7.40714158086207	5.9852008542287924
O	-3.9940953280137927	-8.237413880862068	3.853079534228793
O	-2.2527914680137933	-5.750677890862069	1.5053251742287928
O	0.09708636198620701	-7.138701340862069	-1.096131896771207
O	2.469200061986207	-5.44005953086207	-3.5261974357712074
O	5.334704081986207	-6.254959990862069	-5.904977025771207
O	7.121018681986207	-4.898644460862069	-8.940185885771207
O	1.257064511986207	-10.407618590862068	-10.151242025771205
O	-1.750422715013793	-13.340945390862068	-5.8829649357712075
O	-11.267760298013792	-3.38358437086207	-4.225461885771207
O	-9.512870308013792	-0.8400942808620693	-6.445283345771207
O	-7.316175808013792	2.234747319137931	-5.742158445771207
O	-7.6339963780137925	4.8000914591379304	-4.320893855771207
O	-7.5862801780137925	2.9651420391379304	-1.0123672907712071
O	-8.858449378013793	4.760240639137931	2.0543759642287927
O	-7.512014288013793	3.714418389137931	5.479614734228793
O	-5.579463678013793	8.646739589137932	4.415304044228793
O	-6.090187778013792	8.31507533913793	0.709560254228793
O	-3.501261758013793	6.0937160891379305	-0.733343560041207
O	-2.920705328013793	6.3586729191379305	-4.528954415771207
O	-0.5719965460137929	4.412961049137931	-6.930311505771207
O	2.328036521986207	6.86423150913793	-6.503854845771207
O	1.1103131519862073	9.562585509137932	-4.150882085771207
O	-0.814600357013793	9.80132119913793	-0.855805797771207
O	-5.006643128013793	12.758991709137932	4.054030424228793
O	-8.671853158013793	12.237850709137932	3.212065284228793
O	5.182891011986207	10.926658609137931	-2.490916565771207
O	6.485220431986207	7.54631106913793	-1.5176405697712072
O	9.861864601986207	6.590228459137931	-0.15048339977120706
O	12.938508201986208	5.742236439137931	-2.197998745771207
O	7.3421310519862075	12.666830209137931	1.773745484228793
O	5.312103651986208	-3.0853129108620694	8.172887364228794
O	5.181897881986208	-6.52060041086207	9.764608624228794
