20

O	7.875997081134034	9.051193876016772	17.660845841496634
O	11.016327698149926	14.899929685323913	15.296708980892769
O	12.055320774835375	10.921245336021311	17.56255080207313
O	13.100666015627633	12.490026036336463	17.405182366304505
O	12.777539043816303	12.41582804970918	15.89086312729803
O	11.337616452067673	12.739967322961501	16.044294429224525
O	10.910238144611773	12.08402476340391	17.186049929034755
O	10.718816772482118	13.971319340775189	16.071477126691732
O	10.600172592331834	14.181066031899158	17.527736403057958
O	10.296642298591072	15.098060797773606	18.439289432825873
O	9.517570273124894	14.648108347226268	19.574127981585672
O	10.30953511724823	13.788895173944864	20.340984103853952
O	10.625296936793541	12.702538524260778	19.54646026336565
O	10.958179989936015	13.097889354222255	18.236990712560456
O	9.564027539431624	11.83427737982121	17.06421092868934
O	9.471730054899117	10.970612062010694	18.162202723647066
O	8.200645810876733	10.427216188646025	18.213509588044783
O	7.327805811579294	11.492429380141097	18.123966294605342
O	7.614366631534241	12.682875765040242	17.45418132478197
O	8.778164374950036	12.866559057034795	16.789517882819187
