74

O	1.5572208385925923	1.1336745875000003	-1.3679997159814814
O	2.929656938592592	0.7870369585000001	-1.1797390039814815
O	-1.4165275814074076	3.2991893765	0.6453185820185184
O	-2.6333207614074077	0.4944550525000001	-1.8388870079814814
O	0.7786011285925925	0.2699802205000001	-0.5876396879814815
O	0.4244065485925923	0.4330706685000001	0.7667532120185184
O	1.5875182885925923	0.6903542038000001	1.3233127220185184
O	1.2936940585925925	1.4277726455000002	2.4323132820185185
O	0.4935553185925923	2.5584480765000004	2.1271584820185185
O	-0.8057404844074076	2.2911433965	1.6515260120185182
O	-0.7686497804074076	1.0431096555000001	1.0212819120185186
O	-1.9092361814074077	0.8168455975000001	0.3199058750185185
O	-2.2172143594074076	0.001529583500000098	-0.7815644359814815
O	-1.1890004142074075	-0.9390481934999999	-1.0870366719814815
O	-1.6031926124074076	-1.9858202834999998	-1.7723310679814817
O	-0.4967129154074076	-2.9077736835	-1.7054257979814813
O	0.3838283085925924	-2.4403870335	-2.7112971979814815
O	0.8740628485925925	-1.2670224534999999	-2.2132243279814814
O	0.08505201859259248	-0.6327446434999999	-1.3591657209814816
O	2.2267714385925923	0.32543034450000013	-2.3704742579814817
O	13.699967208592591	-7.4591160135	1.0734560120185184
O	6.6680029485925925	-7.2566002235	4.340693122018519
O	3.310963568592592	-7.0378191635	2.6810369520185184
O	0.2967054885925924	-7.7213111334999995	4.804556222018518
O	-2.5570005114074075	-5.2520930935	4.559255122018518
O	-5.002552761407408	-8.1526384935	4.077864272018519
O	-3.2470973214074075	-8.942251443499998	0.8429921820185186
O	-3.905902281407408	-5.5464798735	-0.7851602239814814
O	-6.394076691407408	-5.0506647335	-3.6512618279814815
O	-8.711258921407408	-2.1339034335	-2.9137918879814815
O	-7.671276931407407	0.9924874285	-4.864178777981482
O	-9.748566661407407	3.9435114265	-6.225718707981482
O	-6.829952201407407	6.3244012665	-5.503725517981482
O	-3.5379449914074077	6.1005354765	-3.6331961779814814
O	-0.6109793284074077	8.4733894665	-3.2564831079814818
O	2.2541672785925924	8.236061746499999	-0.8388439429814816
O	5.472432738592593	9.9108789965	-1.7848724179814814
O	8.812504708592591	9.6579759565	0.02273170901851851
O	0.9273033385925924	-1.8482828135	-15.66797601798148
O	-0.6201819744074076	1.2385381445	-11.758604617981481
O	0.7460521885925924	-0.2559837414999999	-8.62413304798148
O	3.9374580985925927	0.9090008005000001	-6.947963477981482
O	5.320467438592592	-0.7163540435	-3.8401044879814816
O	8.886349108592592	-0.015668373499999944	-2.6382477979814816
O	9.330450108592592	0.1734736655000001	1.1391875820185184
O	12.478757108592593	1.7624089265	2.4336537820185185
O	12.660708208592592	5.2096551365	0.9216320420185186
O	8.924012208592591	5.5043555465	0.5824483140185185
O	6.8771542885925925	4.9042466865000005	-2.5333348079814817
O	3.169446098592592	4.1485814864999995	-2.5216461379814814
O	1.1554895985925926	4.3363260065	-5.676329967981482
O	-2.3767067014074077	3.2889808665	-6.490956287981482
O	-4.660916841407408	2.8885201765	-9.467198387981481
O	-5.423937371407408	8.6594607965	4.621480672018518
O	-5.625077281407407	7.0366070265000005	7.093796872018518
O	-2.0370660094074076	5.8339585665	6.6957522720185185
O	-0.22515506040740763	4.3496351964999995	9.73910438201852
O	2.6229834385925925	1.8672918465000001	9.014988212018519
O	4.260868468592593	-1.2561486334999998	10.39351228201852
O	-1.4961852484074076	-0.9150695434999998	11.15554458201852
O	-4.070008481407408	1.6537538865	10.178300582018519
O	-4.713027971407408	1.5162918265000003	6.476037762018518
O	-7.883177201407408	3.1355204265000003	5.220248942018518
O	-9.264370231407408	3.5247554665000003	1.6884275520185184
O	-11.278771291407407	0.28898871050000013	1.8423489520185186
O	-10.605409881407407	-1.2267789034999999	5.233580982018518
O	-7.614527761407407	-1.8072816635	7.521726412018518
O	-9.153725321407407	-5.8050027535	1.2184611020185185
O	-8.604681321407408	-8.666544273500001	-1.1429540699814815
O	2.5320206685925926	-10.4202379235	-0.6207702419814815
O	6.020983238592592	-9.0554687335	-1.0684063289814816
O	4.548000078592592	-6.4145084235	-3.2598764179814816
O	7.722819518592592	-5.8615945935	-5.246747477981482
O	11.233467408592592	-7.0517909334999995	-4.610336707981482
