74

O	1.5358562087037038	1.0828821035481484	-0.10464633120370381
O	2.528450108703704	0.3213546445481485	0.5189827387962962
O	0.6195533087037037	-2.2173962994518512	2.642059266796296
O	-0.40036922129629626	-2.7875180594518514	-1.2390184682037038
O	0.2727058787037038	0.5338322266481486	-0.08565982420370383
O	-0.5684128872962962	0.4790672910481485	1.0277059467962961
O	-0.37016117429629625	1.6199877105481486	1.6368306267962962
O	-0.5225417142962963	1.3711836765481484	2.939527186796296
O	0.12275269870370376	0.1571099695481485	3.338312566796296
O	-0.3715673612962963	-1.0401322494518515	2.780707746796296
O	-0.9150354362962962	-0.7336650994518514	1.5388058667962963
O	-1.0915237412962964	-1.8396612894518514	0.7775034767962963
O	-1.1454763512962962	-2.0425153594518513	-0.6060763122037038
O	-1.1978989754962963	-0.7996515694518513	-1.3300369932037037
O	-1.9259915362962963	-0.7394106394518514	-2.400129433203704
O	-1.9056493062962963	0.6551432365481485	-2.779733323203704
O	-0.6193883132962963	0.6926120825481485	-3.410958843203704
O	0.21891234870370369	0.7320964945481485	-2.337225343203704
O	-0.13683759129629625	0.02307050254814852	-1.2900651942037038
O	2.4118883187037037	0.3015609545481485	-0.9383577622037038
O	1.0022058387037036	15.301707390548149	-3.270242713203704
O	-4.081532091296296	10.120871950548148	-0.5622539012037038
O	-4.8398741412962965	6.674722850548148	-1.8057742732037039
O	-7.894739721296297	4.948432130548148	-0.48993256620370385
O	-7.534223091296297	1.3934972565481485	0.7592657667962963
O	-10.533163531296296	0.3358780982481485	-1.3410100932037037
O	-8.552345371296296	1.2179488205481486	-4.422064273203704
O	-5.703337171296297	-1.2632828194518515	-3.712554573203704
O	-5.131096821296296	-4.446266659451852	-5.783475723203703
O	-4.620006191296296	-7.383564799451852	-3.441335023203704
O	-0.9444996342962962	-8.395858789451852	-3.206731943203704
O	0.7486299787037038	-11.807843209451852	-2.576894023203704
O	3.5059851087037037	-10.043917909451851	-0.5798388182037038
O	4.093282638703704	-6.564622829451852	0.8147017167962962
O	7.020584348703703	-4.906137469451852	2.554277186796296
O	7.085344478703704	-1.6285563394518516	4.395642306796296
O	10.359176208703705	0.1718160725481485	4.619940556796297
O	10.949075808703704	3.6831564305481486	5.952179446796296
O	6.937077898703703	-2.9717593894518513	-13.543764853203703
O	6.304014978703703	-4.417620729451852	-8.577951743203704
O	4.338939498703703	-1.6985606794518513	-6.908184513203704
O	5.912389638703703	1.0628337285481486	-4.852821933203703
O	3.9070008787037036	3.7944541005481485	-3.209821103203704
O	5.610905148703703	6.952687740548148	-1.8958476032037037
O	4.0639797087037035	8.387621640548149	1.2674264367962962
O	6.107146498703703	10.831102590548149	3.255824326796296
O	9.358061408703705	9.114496630548148	4.072066606796296
O	7.879293868703704	5.6802087505481484	3.9466866767962956
O	7.984027758703703	3.2584073605481487	1.0639733267962963
O	5.658959268703703	0.4054722732481485	0.5586301757962961
O	6.300411118703703	-2.3946815994518516	-1.8468767332037037
O	4.102134268703703	-5.187380519451852	-3.106932093203704
O	4.244594438703704	-7.911042949451852	-5.778568433203704
O	2.813184198703704	-11.315835009451852	-6.623465383203704
O	0.7038258687037038	-6.851440749451852	9.026390176796296
O	-1.7966502982962962	-5.611991669451852	10.035675246796297
O	-0.5902470722962962	-2.1476979994518515	9.061391186796296
O	-2.2435828692962962	0.9603558645481485	10.569766846796297
O	-2.1470626122962964	4.203397120548148	8.509580776796296
O	-4.2033582212962965	7.337962020548148	7.862547306796296
O	-7.2776088312962965	2.4593610905481484	8.649523636796296
O	-6.323338601296297	-1.1150154494518514	9.374491356796296
O	-4.880795151296296	-2.7350050194518514	6.321048576796296
O	-4.703691111296297	-6.487651609451852	6.219417046796297
O	-3.332722881296296	-8.882911339451852	3.587995926796296
O	-6.672282341296296	-9.210927329451852	1.783853266796296
O	-9.164718511296297	-3.5141642694518516	5.161725436796297
O	-9.534432541296296	-5.066328139451852	-2.285630403203704
O	-10.041180751296295	-4.118236889451852	-5.879791283203703
O	-5.885859181296296	6.4119775705481485	-6.463146033203704
O	-2.916681931296296	8.705392280548148	-5.992434173203703
O	-0.6905631312962962	5.712692020548148	-6.179715663203703
O	2.3155452187037033	7.623928890548148	-7.4536699032037035
O	2.933817728703704	11.327919490548148	-7.633291543203703
