26

O	10.68789262011573	13.891327918092799	21.049285916111995
O	9.69009261098509	10.414478818283046	22.67867827407516
O	8.81681279217456	11.156479446538768	15.582112253717867
O	8.535588300783592	8.86453730742711	17.736402371769394
O	9.575524000397769	12.900421362102863	14.722401383707872
O	10.881137555695915	14.799119185440098	14.31462243709175
O	12.195883745569633	12.444738003955779	18.390080375076625
O	10.11799074025217	14.305720044522982	16.24884297002364
O	8.242911847177828	14.193797336034972	18.093385619206067
O	11.437831145885777	10.872269860466938	18.94412738334573
O	8.52737415580221	10.022205094270396	19.619422006057995
O	8.312435313607583	11.512443636377462	17.879221881677406
O	8.93553934222358	12.20403856144976	19.80119562650703
O	11.271875875388945	14.594411658596798	19.93021316089232
O	10.836443019150728	15.084493357125062	18.647335292260376
O	11.077573898339176	15.090918731692527	17.128876267721715
O	9.428060032803092	10.671788618705401	21.62962349954545
O	8.29868254270699	10.263675917395673	18.219789411642882
O	8.774701029210638	11.083333372233609	20.442466108292678
O	9.123773067606804	12.382878975661995	18.56520668660466
O	10.193992191620723	12.283007584544963	16.877445143701404
O	9.89384576236495	13.459829869231399	17.098430674416118
O	9.691501942502356	11.943363543670227	15.605363839293823
O	10.178768342217161	14.041742915172039	14.996465844965337
O	11.04360942633087	11.614336006473746	17.809547716284996
O	9.350982764484307	13.756000976936866	18.35124303042202
