25

O	9.294276953759086	10.811213607081095	15.17760674562182
O	7.967426585753779	10.212867915185509	15.095497060960087
O	9.149200021616041	11.938877575046945	14.22310064788843
O	10.058908279130545	12.499659766421905	15.09656672186428
O	9.865731051181319	12.485425537713578	16.349896904626025
O	8.457715262568382	12.428050411200978	16.67819361297993
O	7.546817794759758	13.112991704821571	16.461319596840596
O	8.931927245490611	12.056915115353751	17.867082567152103
O	8.550120058821921	12.553642931231533	18.990377942037856
O	8.634822744218244	11.635841859212574	20.019344605358246
O	9.269817861342583	11.803878323004872	21.26579753205234
O	9.778177114186228	11.25955374048938	22.123119071981684
O	8.474404266364179	10.332493469231302	19.63759185072186
O	8.395089900721052	10.072304922893773	18.240094711763145
O	8.770936228462656	8.565063512881537	18.197936035234925
O	9.39474169032929	10.799578631023351	17.742437943862118
O	10.713947930113948	13.0137932290551	17.270621509011484
O	11.053811326605105	12.808654198748739	18.597225366266496
O	11.831491965411425	11.756703331248664	19.19669859483877
O	11.224625177169322	13.9552892305238	19.53513564620569
O	10.729124220618846	14.273959317714755	16.846620258914427
O	10.127839915007671	14.941895746825924	17.673702816492362
O	10.559035576247116	14.497386307417507	15.602245629251197
O	10.59881459175409	13.588995460032805	14.688011141273611
O	10.890594630406074	13.73050896789007	13.492138617472481
