94

O	-1.5705196986140355	-2.586938535264912	-3.1548203035789473
O	0.10545109938596453	1.549519411735088	-1.9593753835789474
O	-1.7618561476140355	0.053523030735087906	-1.0078434990789473
O	-1.1659126906140354	-1.405540335264912	-2.7198700735789476
O	2.1035583223859646	1.807885073735088	-2.0842359835789472
O	-0.5700217866140355	-0.3634730852649122	-3.397306823578947
O	-1.2940552146140354	-1.156742695264912	-1.4093289325789473
O	1.5920347623859645	2.376230194735088	0.7350334864210526
O	0.6342950423859646	2.757481754735088	-3.6674715235789472
O	-1.6731980526140355	-2.1875484152649123	-0.6578344805789473
O	0.7304275723859646	-4.290809905264912	-0.6379859765789473
O	3.3263320923859645	0.7951094621350879	-0.6931365205789473
O	-1.9671590276140354	-3.401103765264912	-1.0933556715789474
O	-0.2624096606140354	3.4382732747350877	0.3263338964210527
O	-1.6996186616140354	-3.629635835264912	-2.360070763578947
O	-1.3040354666140355	0.7962939099350879	-3.3609726935789475
O	-1.1506029926140355	1.875038934735088	-2.375880033578947
O	0.9782555923859646	1.903365124735088	-2.7854673235789473
O	2.2954656623859644	0.7055299957350879	-1.3683365935789473
O	1.6149734623859646	-0.3762584952649122	-1.7484991275789472
O	0.49552396238596463	0.3349105627350879	-1.6258800325789473
O	-1.1487259616140355	0.3460689407350879	0.13566289642105267
O	-1.0087307106140355	-0.5950369952649122	1.0087238064210526
O	0.2950938423859646	-0.754157745264912	1.0768891864210528
O	1.0858289223859645	0.20976108473508792	1.4859542764210527
O	0.7223471623859645	1.365359883735088	1.0854817564210526
O	-0.3625733796140354	1.3434506287350878	0.25979517642105265
O	0.6676797223859645	-2.0212919452649123	1.6569949564210527
O	1.5687948423859646	-2.452898565264912	0.6653831564210526
O	2.6372464023859647	-1.680092785264912	0.9694984564210527
O	2.2832232623859645	-0.328161335264912	1.2810185164210526
O	1.3073579423859645	-3.3178722652649117	-0.4698882285789473
O	-1.8496752076140355	-1.5887790852649122	1.5588204064210527
O	1.0191168123859646	3.366166184735088	0.19934829642105267
O	1.5431874623859647	4.534826004735088	-0.4321844965789473
O	2.4694348823859644	2.614652714735088	1.8318095564210526
O	0.6986535823859645	4.3988898547350885	-1.5796159795789473
O	8.373773412385965	5.751456204735088	7.009056186421052
O	7.387510252385965	5.340322594735088	3.372952046421053
O	9.502378042385965	3.164605824735088	1.1736928264210529
O	7.796356652385965	0.6666716137350879	-1.0887438775789473
O	9.906899942385964	1.922407864735088	-4.007109033578947
O	8.200022982385965	5.239140224735088	-3.649671413578947
O	4.677018192385964	3.9089837047350877	-4.200884893578947
O	2.7758209323859644	4.638705444735088	-7.475498543578947
O	1.2867896523859645	1.4493578687350879	-8.820943713578947
O	-2.5328368376140356	1.219447574735088	-8.121158843578947
O	-5.500683117614035	-0.5324186352649121	-9.982311333578949
O	-7.148788457614035	-1.495100445264912	-6.5507428735789475
O	-6.160584867614036	-1.3695938752649122	-2.7676480835789476
O	-7.926552997614036	-2.021215195264912	0.5675057364210527
O	-6.360085697614036	-2.384059975264912	4.032026156421052
O	-8.441883117614037	-1.5148796652649121	6.962970726421053
O	-7.244158377614036	-1.3698200352649121	10.545370016421053
O	-7.968751837614035	8.251776604735088	-3.750994543578947
O	-4.8852509176140355	7.612740964735088	-1.7060880135789473
O	-4.928479147614035	6.945147054735088	2.0303727564210527
O	-1.7347371716140354	6.308243394735088	3.9813060564210523
O	-1.7656695976140355	6.450076224735088	7.742336726421053
O	0.4553768323859646	4.086235464735088	9.658617916421052
O	-0.24542276961403542	3.475305454735088	13.330067916421052
O	-3.8295792476140353	2.340093614735088	13.587708016421052
O	-3.7703486776140354	0.9307222177350879	9.998297916421052
O	-5.226619577614035	2.6673697447350877	6.974988226421052
O	-4.0318531676140354	1.852297964735088	3.3962136264210527
O	-6.264206967614036	2.822746884735088	0.5724972864210527
O	-5.744364227614035	2.690715934735088	-3.1304374635789474
O	-7.299389537614036	4.168242714735088	-6.386618703578947
O	-13.696220257614035	0.9302614677350879	-5.499962593578948
O	-15.641539357614036	4.225386714735087	-2.3343878635789475
O	-14.352075257614036	1.9846749647350879	0.40378177642105273
O	-6.7867492276140355	-8.984531575264914	4.371280236421052
O	-5.536176557614035	-9.878614995264911	0.8713219164210526
O	-2.2509979276140353	-9.350132095264911	-1.2003925715789472
O	0.6288276223859646	-10.056485195264912	-0.8276450295789474
O	0.8569808223859645	-7.780307095264912	2.242721026421053
O	3.747654472385965	-7.916189225264913	4.634553926421052
O	4.821096332385965	-4.770424875264912	6.536268736421052
O	7.930799552385965	-3.1439659452649122	7.969990656421052
O	9.940207442385965	-6.124506005264912	6.646691206421053
O	8.751993692385964	-6.025959935264912	3.0194111364210525
O	6.4931862123859645	-8.033159495264911	0.7616140464210526
O	4.266973522385965	-5.573226495264912	-1.1748949715789474
O	2.6132809623859647	-7.026298365264912	-4.2549962335789475
O	0.1956857223859646	-5.558645265264912	-6.932806213578948
O	2.9390255923859647	-4.276677875264912	-9.164938863578948
O	6.171115342385964	-5.339978535264912	-7.532984373578948
O	7.738248942385965	-5.333637115264912	-4.0741952735789475
O	8.936771882385965	-2.159483365264912	-9.397338053578947
O	6.800151802385964	0.787984414835088	-8.429155783578947
O	7.373756882385965	4.419075534735088	-9.289419313578948
O	13.009902442385965	0.6810580257350879	-8.230907653578948
O	2.8880934823859645	9.439788794735087	2.647038296421053
O	0.8083052823859647	11.64826820473509	4.942223026421052
