22

O	8.316272724153587	12.861305041512226	20.844004329058837
O	11.456755559882588	14.267488898519897	18.465093969125025
O	11.724084389834095	15.001553658257153	19.515772535060336
O	8.782211580480206	14.18436690290114	20.972524338301856
O	12.299571244750041	16.162024226174353	19.22373837989455
O	8.921638211904874	12.176407286199328	21.733644884435698
O	11.447789482618116	16.759763148005586	18.355565468939346
O	11.187789066642402	16.140238438908856	17.18836777348644
O	11.61472874027503	14.809499301403939	17.213729176439312
O	11.029099764268317	14.270840974780059	16.03840666247695
O	9.744282039031317	12.397880486266732	17.160727926116415
O	10.447365675151286	12.98779483977492	16.055010233276928
O	8.420176766615715	12.654243138968438	17.209085134628886
O	8.049191520367625	13.124095461582984	18.49464107553048
O	8.413251380897123	12.26645206494748	19.49645045690642
O	9.607913141826199	11.625780946629856	19.3175107028115
O	10.4142510883396	12.03831256585806	18.26404573116159
O	11.51387880983289	12.852571238723131	18.76205088379477
O	9.868245344674909	12.787708716666543	14.865217301761517
O	11.644709258808081	14.612504212218319	15.022448545004117
O	11.581345322029632	12.73317042472879	20.24239518345241
O	12.840906429767811	13.630608786937923	20.362533763427475
