75

O	-1.002731307472727	0.7378474874800001	-0.8039595519818181
O	-2.028305735472727	0.5314760841800001	0.14113086001818187
O	0.44995577552727295	0.68186624648	3.427195460018182
O	-0.19390588447272705	-2.4987909115199995	2.025621730018182
O	0.18394099552727283	0.07368748248000007	-0.47745296098181816
O	1.2487146255272727	0.6256279154800001	0.19657184401818184
O	1.1617499455272728	1.84961635848	-0.22796610752181815
O	1.855559135527273	2.5895712784800002	0.6707151860181818
O	1.2840661355272727	2.38956747848	1.945651200018182
O	1.568313325527273	1.16625774348	2.463615550018182
O	1.6878942455272727	0.2377650154800001	1.4129307400181819
O	1.4936314055272728	-0.9805946615199999	1.9845253800181817
O	0.8698445455272728	-2.13021046152	1.5437613400181818
O	0.7140017255272728	-2.0871874815199996	0.14922236401818184
O	1.0060955555272728	-3.2259053215199995	-0.37706946298181815
O	1.0644607455272728	-2.88768880152	-1.7668991599818182
O	-0.3144659534727271	-2.80550243152	-2.109482699981818
O	-0.6695659514727271	-1.6160433815200002	-1.6239909699818182
O	-0.10206337447272706	-1.25244707152	-0.49842261898181817
O	-1.369820597472727	1.82064862848	0.041385500018181864
O	-0.7208673974727271	8.219263378479999	-13.46106124998182
O	4.635001855527273	5.3289346684800005	-8.676942569981819
O	4.753273905527273	1.96403961848	-7.003952399981818
O	7.982568945527273	0.9212301554800001	-5.376574279981819
O	7.789728245527272	-0.46343345951999987	-1.8429892999818183
O	9.892209635527273	-3.4392487415199997	-2.877016799981818
O	7.135684015527273	-4.44584641152	-5.211273189981818
O	4.549096055527272	-4.79563866152	-2.4226864699818185
O	3.2186419555272727	-8.32761781152	-1.3175863999818183
O	3.160626275527273	-8.44211543152	2.4639625400181817
O	-0.3426289504727271	-7.992639821519999	3.9269089500181815
O	-1.998867182472727	-9.370172781519999	7.144340500018181
O	-3.895311674472727	-6.05704816152	7.570717100018181
O	-3.847141914472727	-2.60078250152	6.034516200018182
O	-5.938343824472728	0.5170094120800001	6.317177880018182
O	-5.183839694472727	3.98533102848	5.0466602400181815
O	-8.133387524472727	6.24248480848	4.433031150018182
O	-8.084377384472727	9.65713405848	2.7671611900181823
O	-10.667047854472727	-9.445529281519999	-5.560202289981818
O	-8.639440794472726	-7.104599171519999	-1.359697609981818
O	-6.1250762444727265	-4.648658301519999	-2.6162125199818185
O	-6.732339734472728	-0.95180882152	-3.0723467199818177
O	-4.140244214472727	1.48283787848	-4.339771939981818
O	-5.201185754472727	4.90863583848	-5.601868279981819
O	-2.720503894472727	7.7012929884800005	-4.920388089981818
O	-3.911443124472727	11.242757688480001	-5.111582769981818
O	-6.850801514472726	11.52740558848	-2.766005829981818
O	-5.670933544472728	8.77000116848	-0.5221730729818181
O	-6.791097674472727	5.165791828480001	-0.5544807419818182
O	-4.860352304472727	2.27975250848	0.8526837700181817
O	-6.360326694472727	-1.05311284152	1.4772255900181819
O	-4.885742854472728	-4.36378480152	2.397891810018182
O	-6.029536954472727	-8.01355626152	2.711812730018182
O	-5.159374074472727	-11.27340811152	4.449209510018181
O	-14.639787064472728	-5.15994424152	4.859708810018182
O	1.9054533455272726	1.99547633848	10.934436750018182
O	4.665453645527274	2.85621592848	10.283360750018181
O	3.429735375527273	4.76814807848	7.236283010018181
O	5.648838315527273	7.46241831848	5.656512290018181
O	5.106971935527273	8.15081229848	1.9147567400181817
O	7.087142205527272	9.30136095848	-1.1262980099818183
O	9.940859535527272	5.78502917848	2.514329870018182
O	9.052238135527272	4.17994097848	5.809362900018182
O	6.6805929155272725	1.35532035448	5.278400230018182
O	6.221040575527272	-1.17673412152	8.010399090018181
O	3.983768585527273	-4.24131862152	8.358458610018182
O	6.594814265527273	-6.611142131519999	6.899345050018182
O	10.333591835527272	-1.10692071152	4.423267580018182
O	8.361214865527272	-7.42589884152	0.7129691740181818
O	7.831456285527272	-9.424386671519999	-2.4183803999818183
O	4.252854485527273	-1.7631927715199998	-9.930774009981818
O	1.740308235527273	0.8864304644800001	-10.864813249981818
O	-0.5912574114727271	-0.58361543152	-8.34333828998182
O	-3.704661914472727	0.5775494574800001	-10.190828879981819
O	-4.127246264472728	3.04954994848	-12.995644649981818
