29

O	10.22763426279399	10.52856539588247	15.870439778744602
O	9.947522379824482	13.422147535937949	19.77162415401012
O	9.139988624288334	13.629773256666128	20.556198850359714
O	11.757731134699991	14.991814846574222	15.76498794049187
O	10.782703730781181	12.84450119966993	16.011212701628185
O	10.638758211692751	14.111302638637822	16.267966391838556
O	10.571332203395684	14.180972632855138	17.629024352646333
O	10.468121145621575	13.165163050716478	18.50844560040038
O	10.544150700315297	11.969796504841407	17.916055125729063
O	7.369260704926742	12.206140740173035	13.104595261381643
O	10.266753323682817	11.822379574617136	16.561415981012903
O	8.728956955361186	12.652503167815652	13.0931050095257
O	9.40768454478786	12.107814947433873	14.135369339251596
O	10.659951862544682	12.484729584108823	14.102796555225947
O	10.96262454031674	13.655098406948955	13.48803682866845
O	9.851564447769817	14.403290130959123	13.30245913002884
O	8.747838481411888	13.894944364715675	13.676651869124797
O	11.63734192204257	12.398634635179487	15.072597010772759
O	10.219172792344898	15.74947838347266	13.574461706664792
O	10.854574344687396	15.94193800300716	12.475600686978545
O	6.951778190949107	12.368205075092245	14.494520232673711
O	7.494148384734281	11.196900725329257	15.025672874905942
O	7.306317835243183	10.90002282164292	16.37957600781739
O	7.629171285139269	11.809381039992633	17.287715722250905
O	7.572718735106696	13.060594571098328	16.790416412575546
O	7.5795645794433835	13.262842207304486	15.395544521855966
O	7.72420777755514	11.359546144878845	18.646659565433207
O	8.258426760787316	10.898730062481782	19.57821594178646
O	12.38961396353068	14.355878271766208	12.527251579961526
