25

O	10.869366809677603	12.127807214266197	19.515690451773985
O	7.713052274446171	11.994413214881652	17.335969352964142
O	11.245891849888261	10.985791464182615	17.160737350091694
O	11.40083246108683	15.15255570286373	18.30392262792268
O	12.310710339144562	13.697961525569106	16.33897808467138
O	10.521137141867415	15.23686745032639	16.401122397994733
O	12.026726592565224	13.251996387712012	14.957960557515493
O	11.043266542358198	15.352865797731756	15.191434568841782
O	8.92641992239165	13.334083971268269	18.52344922988798
O	9.370827534841375	11.033092481419347	18.02085926644998
O	9.53801690075174	12.152943229208171	18.910138247254274
O	12.025471115362267	16.397121281284072	17.85571482832783
O	10.1394489075064	13.000675658523173	13.504024521858446
O	9.971694342886211	14.044870494892482	11.254821390990404
O	8.377996781139988	14.191243244336423	12.832716691102112
O	11.188390547005287	14.887555274924582	13.07007202239701
O	8.748012298201072	13.039686767938726	14.964604034632504
O	11.303678358400392	14.2501790226779	17.153747194509524
O	8.553688798981703	13.183104743232356	17.094776934151458
O	9.925794912640917	11.429133795350452	16.639271151817283
O	11.565538512148605	14.398979420567612	14.318730359657161
O	10.652459500210657	13.771236742398074	12.412649514536547
O	9.11047496519284	13.889593216134651	13.925796499783702
O	9.097619213652257	15.069932345401462	11.935957493455447
O	9.435476823969228	12.594885627288372	16.04795683316936
