86

O	1.477654850649123	-0.04275762064385946	1.8574309439824555
O	1.7086232106491228	-1.7187479936438597	-2.7041729060175443
O	2.221570310649123	-1.3593112936438594	-3.6625398460175447
O	-2.343975119350877	-1.6640720036438594	-0.38742901391754453
O	-0.3291393823508769	-0.7573318336438594	0.4731058119824555
O	-1.100041696550877	-0.8280269536438595	-0.5719494390175445
O	-0.313789282350877	-1.3764824736438594	-1.5429708760175445
O	1.013536400649123	-1.6060584136438596	-1.5054904860175444
O	1.5438611906491229	-1.3305392936438594	-0.3103114290175445
O	-0.772438348350877	3.6258375463561405	1.5213588939824554
O	0.9042557706491232	-0.4715590136438593	0.5766981839824554
O	-1.448394311350877	2.3858313363561408	1.7529047239824556
O	-0.570048172350877	1.3534971803561406	1.6724958839824555
O	-1.179957941150877	0.22352594135614057	1.9224441539824555
O	-2.513024999350877	0.14699458535614063	1.6850023239824556
O	-2.922870859350877	1.1717626193561406	0.9036180939824554
O	-2.042839671350877	2.0262517563561406	0.5688942439824556
O	-0.765900487350877	-1.0744431136438592	1.7055355339824556
O	-3.869077839350877	0.6318266233561406	-0.00989467501754454
O	-4.833710579350877	0.5387153843561405	0.8321773839824556
O	0.04622163064912299	3.3711535363561405	0.3392506849824555
O	1.124136720649123	2.7297232863561405	0.9515485939824555
O	2.213406620649123	2.316741316356141	0.17733449198245543
O	1.9940109606491232	1.5639348983561407	-0.8908567370175445
O	0.7578697606491229	1.7507412203561405	-1.3939343910175446
O	-0.24039747235087694	2.3500098063561405	-0.5996055820175445
O	3.133641750649123	0.9062560379561406	-1.4625313960175446
O	3.916548580649123	0.04653147035614058	-1.5785884060175446
O	-3.972174529350877	-0.7490133236438593	2.4051078739824554
O	-4.052956539350877	-5.925142923643859	-10.265857316017545
O	-4.588798019350877	-3.1063873536438593	-7.766203726017545
O	-4.062979339350877	0.39943328235614056	-8.986999276017544
O	-2.068206350350877	2.6814778163561406	-6.780172056017545
O	-4.734590639350877	5.365168896356141	-7.106673356017544
O	-7.044988519350877	3.0227822463561407	-5.328970806017544
O	-4.7534634393508775	2.8287061263561406	-2.2513989060175446
O	-5.909268699350877	4.498399956356141	1.1262966139824555
O	-3.070157019350877	6.289961546356141	2.6317891539824556
O	-1.4230403533508769	4.436853846356141	5.554656543982456
O	0.42864688064912304	5.625256566356141	8.725124013982455
O	2.828398300649123	2.6307084463561408	8.453140303982456
O	3.5429950706491233	-0.05820995764385939	5.828192223982455
O	5.714233210649123	-3.1441233036438594	5.754645213982456
O	6.764214560649123	-5.324560633643859	2.8808129339824555
O	7.641345560649124	-8.90218931364386	3.565011183982456
O	8.316728630649123	-11.630898673643859	0.9981942639824555
O	-7.710030439350877	-2.6678817436438593	11.284346473982456
O	-4.760718879350877	-4.142769833643859	9.387013223982455
O	-4.473177039350877	-4.448329233643859	5.616222613982456
O	-2.615285329350877	-7.137356603643859	3.7387094139824555
O	-2.249486599350877	-7.23392567364386	-0.05057736301754451
O	-1.241629128350877	-10.53836597364386	-1.5901579660175444
O	0.856120660649123	-10.26818157364386	-4.741316796017545
O	5.072456710649123	-10.904008373643858	-1.5459297660175446
O	2.972620230649123	-9.45961487364386	1.2449223239824554
O	2.261148140649123	-5.735478883643859	1.7335989039824555
O	0.9902484306491228	-4.794618903643859	5.201342103982456
O	-0.236935389350877	-1.4065981736438595	6.4169085939824555
O	-2.113311756350877	0.06537508235614053	9.438059273982455
O	-2.721627299350877	3.3796826863561407	11.127667873982455
O	-0.8814970053508769	2.5956363963561406	14.390125573982456
O	1.7458859106491231	-6.276613243643859	14.863683773982455
O	4.2392243006491235	-7.097352373643859	12.152842473982457
O	9.940746070649123	3.2982122163561405	0.8244053239824556
O	9.770814770649125	4.299592776356141	-1.9395758060175445
O	8.507116810649123	0.8998412900561406	-3.1457148960175445
O	8.606576240649122	0.030016582356140575	-6.783083826017545
O	6.108544350649123	-2.4131240136438596	-8.191985216017544
O	4.998154860649123	2.4342385763561407	-10.209761546017544
O	6.7417530106491235	4.282192846356141	-7.454744466017544
O	4.602517800649123	4.02539921635614	-4.280318066017545
O	5.484323250649123	6.573143986356141	-1.6728675260175445
O	4.116582390649123	7.244785896356141	1.8529497839824554
O	1.421516360649123	9.65007894635614	0.6512209039824555
O	1.8645544806491232	9.935127176356142	-3.087376806017544
O	2.521775850649123	7.683038866356141	-6.091097316017544
O	4.893544110649123	5.898976946356141	-12.566524826017544
O	-2.443217049350877	11.181834826356141	-4.262409276017545
O	-4.137778939350877	8.314755616356141	-2.459519146017545
O	-7.837478349350877	7.6987050563561406	-2.0480357760175445
O	-10.020007539350878	8.98851822635614	0.7678890139824555
O	-5.880616609350877	10.50548360635614	-7.978258176017544
O	-9.137513139350876	-2.6254634436438593	-6.4317953560175445
O	-8.296967289350878	-6.316805313643859	-6.401238566017544
O	-6.896887949350877	-5.787374683643859	-2.8932421260175447
O	-7.590172309350877	-9.418010473643859	-1.8979640460175444
