37

O	7.412657496151569	9.002573534267494	15.453126715500007
O	10.72580793190851	13.060784083286446	14.782747839509717
O	9.829148611201976	10.903014907904218	15.940016554589159
O	7.8977945142704336	10.316668404284815	15.5032710161272
O	12.019730370423744	14.02955757583904	16.081775397808318
O	7.981523785663185	11.204713138498933	14.507481798525689
O	8.825969224464867	10.263045206581387	16.457445087724235
O	9.69241915800563	15.004356649837094	17.1698268269997
O	11.24808921503315	14.963125952176485	14.124172180672792
O	8.155667980648538	9.89157488541857	17.619410386784374
O	8.518563841778567	9.335692452052527	20.74462392616548
O	12.240855897271706	13.131134031848804	18.267293188691127
O	7.742863282012792	8.61242868071243	17.680942669490133
O	11.341795204388498	16.243119923471532	16.78855896026923
O	7.211995343788635	8.217247841337368	16.525476271155195
O	9.16873726748116	11.618433725507336	13.981450587893981
O	9.454376997140374	13.013502928381728	14.21538704949285
O	11.11268829617697	14.155742836870825	15.063983442757316
O	12.060388762034627	13.219457493030358	17.08652283959411
O	11.780060366605788	12.04137698429384	16.622671327142402
O	11.46885511750695	12.15007463222802	15.341655097038835
O	9.275870231108925	11.805021490742085	16.794830326385267
O	9.842127831719294	11.180615836960534	17.87522975759301
O	9.754224362660352	12.155569125824659	18.71740868986138
O	9.283700597820577	13.307074456642388	18.475804254730797
O	9.030916863096817	13.815939866374286	17.249621561556204
O	8.386619531877104	12.814626690668787	16.586611925586222
O	9.875336945615288	12.016459192474576	20.10224066897548
O	8.629705374199995	11.817630546620066	20.584306234695763
O	7.787883176806944	12.811885872526931	20.211491225441822
O	8.092907749799142	13.545555674513341	19.051648208112372
O	8.18840602057168	10.428943834287866	20.815410751988303
O	10.515043750849234	10.031654578180225	18.317011843288213
O	10.893551160605883	15.440553722650495	17.57494854467482
O	11.524810573988118	15.742183437486549	18.90786539901798
O	8.997174908904276	15.748884778596487	18.183863728897265
O	10.75206584408784	14.915695130592123	19.654314672179012
