25

O	11.447098215625125	9.78097163451053	17.645558097343223
O	10.36433580539639	9.901167192481747	19.411060484953886
O	9.87740783071118	12.031365184638382	17.453194296200635
O	10.306116159287953	12.896314283040299	14.15367452022318
O	11.370789061833959	11.423460629016015	17.647774925631616
O	9.827017718308163	15.22879964536434	13.839588407121907
O	12.065978237859607	11.699019571471927	18.941601943123246
O	8.216290127492313	13.607447267963334	14.774891971558413
O	11.368496837593336	12.203186842573913	20.154863167409736
O	8.8571125802039	13.911235951354472	12.431207227909677
O	10.122763241434523	11.877313111666552	19.851490683462522
O	11.933165668495237	14.407907399690519	14.187714137456204
O	9.662754196342892	11.242572114969077	18.60292485580926
O	10.905486466957141	16.255786671802426	19.32620527439855
O	9.507695017163503	12.207378127134142	16.30874402423918
O	9.319244477390571	12.759342754395233	15.127512821885224
O	10.75128720249539	14.109289733854313	13.53773191340813
O	8.677690575449887	14.415318583744666	13.791335023377377
O	11.70203411458359	13.850707007927266	15.4924658635266
O	12.45793099129439	13.916100317411775	16.66448305033894
O	11.8362434819527	14.503377072795434	17.867275568491173
O	10.370327935988346	14.380869640713016	18.145949236599794
O	9.981723106431781	15.095017917678021	16.979279591715414
O	10.799461091011107	14.948459286322317	15.857995946688712
O	10.03318471834737	15.074155652055948	19.376971869802457
