27

O	9.157443664347909	10.350487246971333	17.020211745320175
O	9.647910301318122	9.826509650565097	18.184016556682554
O	8.862480229560665	9.255573808655845	19.080195401468885
O	7.582503964973636	9.650066582937752	19.004214727415597
O	7.130586010091971	10.288802895295941	17.92712878641754
O	7.877898734121127	10.048493200067718	16.82387790670975
O	9.986241873468927	11.982915679227016	15.651932002381514
O	9.008825802618873	11.766353736118552	14.777413038528605
O	9.134262878207808	12.411644976873099	13.595603289235182
O	8.173856114436397	12.290841913905993	12.811077027312965
O	10.133314616626752	13.267642606770936	13.499270747646618
O	10.715857791515258	13.731076607422724	14.543603183705118
O	11.317079274881003	14.678091001221913	14.974974049096895
O	11.026766495467053	12.945441995809894	15.596145436060194
O	10.344578876665562	11.028523270944849	16.663942564358322
O	12.25138071051695	12.722085663472182	16.410142980508347
O	12.593152488176196	13.633627442435031	17.512068436748237
O	12.235246456231215	11.5308170377634	17.384328865610403
O	7.796628789801962	12.18338870733216	15.491217307641183
O	8.158548328825763	13.082945447218563	16.389493093648095
O	9.05591356665915	13.32184588093602	17.33323239884414
O	9.503278783268804	13.087373997448063	18.607604335121486
O	10.609148450935463	13.394423710492479	19.298481957179316
O	11.206404313368003	12.756714783315113	20.333947842055967
O	10.553283049005612	11.700966257167174	20.90108781139184
O	9.215956466125018	11.894090285009202	20.75857319428395
O	8.963774415537513	12.4269342174299	19.54784483135611
