24

O	9.88486396958954	11.392726747442989	19.11485069609985
O	9.55535511849871	10.088354855131424	18.90939408077515
O	8.879246138300665	11.983526795839067	14.871869040552987
O	8.361292689378397	13.205016554712781	14.955243217973214
O	7.722014444956506	13.635148227417368	16.03994243193415
O	7.617433500131542	12.825687803107225	17.0905547092644
O	7.654110288453905	11.471603795844032	16.743395003356927
O	8.905939140603921	11.345246659862712	16.080315609941163
O	7.205761232225385	13.329314215791563	18.35388079106825
O	7.480818645008947	13.686091688017099	19.455026644157567
O	10.147453761627707	12.032350739014893	14.30540307268354
O	10.535274729236349	13.324637919097427	14.25095756701443
O	10.450698131427615	13.686501063039021	12.620068540303468
O	11.625007320935609	14.171853480430094	14.118659620824925
O	12.605154797749606	13.152747900529512	14.21477119821947
O	12.198889242661185	12.221660879242823	15.283767100412543
O	11.656404919352722	13.243892144108965	16.18382024881346
O	11.632074564870958	14.593153363279423	16.0784095602499
O	10.465356290469503	15.155088064691757	16.37333887492389
O	10.165790221310072	14.731655469519259	17.638101038713145
O	10.442541005353357	13.511054153516913	18.1122004797429
O	10.038626899149406	12.672841721612386	19.07737708284091
O	10.964021494038606	12.706135859410075	17.13603166671496
O	11.194467378080649	11.35755783568672	17.285612239364223
