85

O	-4.132006731655172	0.6223976846199999	-0.8169239225103447
O	-3.5375254616551723	0.43789981561999985	0.4626924446896553
O	-1.201550335655172	1.58862342662	1.8444004446896551
O	-2.189459891655172	0.4828976256199998	0.14156335568965528
O	-0.6180357606551721	-0.36645781838000024	0.9014338946896553
O	-0.296890036655172	4.41388757162	0.35115790468965524
O	-1.537651909655172	0.5650191236199998	1.2962286246896553
O	-2.299551171655172	3.6899327716199997	0.12826086368965528
O	0.5811748783448281	-0.3737189683800002	1.5877948346896553
O	-2.592476871655172	2.0112443216199996	-1.2828492933103446
O	1.058681918344828	-1.5835903783800003	1.7637668046896553
O	0.38984370834482807	-2.82498048838	1.4156585246896554
O	-0.31104818765517195	-2.57909255838	0.16379858568965533
O	-0.25363257265517203	-3.3895635283800005	-0.9005394163103446
O	-0.852430271955172	-2.93656288838	-2.0763500953103446
O	-2.084872961655172	-2.32663124838	-1.8292608553103449
O	-2.101590591655172	-1.5852415783800002	-0.6537712413103447
O	-0.990784767355172	-1.41649413838	0.10628872168965531
O	-3.2978316016551723	1.6855268716199998	1.0171962146896552
O	-2.8934881816551723	2.5389019516199998	-0.10992833831034465
O	-1.071700568655172	3.7841174716199997	-0.38346944531034466
O	-0.592945689655172	2.6609503416199995	-0.9982680563103447
O	0.6126570583448281	2.17855815162	-0.6620020661103447
O	0.772779048344828	0.9935054246199999	-1.3121348183103447
O	0.05914142834482805	0.2559543016199999	-2.1950641153103447
O	-1.110324790655172	0.8220487873199999	-2.557692025310345
O	-1.414457923655172	1.9763305216199998	-1.8292286653103447
O	-0.500707962655172	-0.5950414183800001	12.110808314689654
O	-2.2453465616551718	1.1486378206199999	9.278056814689656
O	-5.828968511655172	0.24054978661999982	8.512913044689654
O	-6.862646661655171	-0.5183824483800001	4.972723394689655
O	-9.814933181655173	1.90386583162	5.207374014689655
O	-7.3563530016551715	4.734987761619999	5.7419057846896555
O	-5.438912791655172	4.43567631162	2.4665492346896554
O	-5.847184461655171	6.771906771619999	-0.5391858683103447
O	-6.570507011655172	4.8926054916199995	-3.8275652053103446
O	-3.441659051655172	4.70453725162	-6.096231775310344
O	-2.9578107316551723	4.41739859162	-9.871590705310345
O	0.06274942734482802	2.0820580816199996	-9.404654495310345
O	1.662884478344828	0.12223810361999987	-6.589282115310344
O	4.815927998344828	-1.95063987838	-6.101465365310345
O	5.8463841383448285	-4.238866788379999	-3.2597611553103447
O	9.493491078344828	-4.81438852838	-2.657576805310345
O	11.078882578344828	-6.682214978379999	0.27242219468965534
O	6.538065498344828	13.66540257162	-2.176649165310345
O	5.124370988344828	9.01943802162	-3.9421425953103446
O	3.890223228344828	6.998622211619999	-0.9850842333103447
O	6.070222638344828	4.5115012316200005	0.8004313246896554
O	4.981960908344829	2.5418723216199997	3.758436844689655
O	7.594571028344828	0.8074141266599999	5.9914477746896555
O	6.481380408344828	-2.48044977838	7.556309504689655
O	9.106245178344828	-4.826919698379999	8.913693194689655
O	11.557744978344827	-5.51344897838	6.114565484689655
O	8.965558318344828	-4.86952545838	3.4132160446896553
O	8.433082368344827	-1.6753955783800003	1.4499661646896551
O	5.333034178344828	-0.60845912838	-0.29162060931034467
O	5.3046916583448285	2.06773469162	-2.9292063253103446
O	2.5069084983448278	3.86496025162	-4.866020335310345
O	1.9432695083448281	6.92753497162	-7.055339725310344
O	-0.512046571655172	8.27785071162	-9.578689465310346
O	10.577409778344828	5.875534141619999	-10.334212565310345
O	10.700013978344828	2.35665748162	-8.913579445310345
O	4.496335798344829	-9.841249128380001	-6.334846085310344
O	1.1587217983448281	-8.85418011838	-7.912256005310344
O	-2.326945461655172	-7.758208138380001	-6.6201449353103445
O	-4.357395181655172	-8.921579558380001	-4.791268465310345
O	-1.975889581655172	-8.567845248380001	-1.8296028053103446
O	-2.587408981655172	-10.32034622838	1.4716149146896553
O	-1.306078013655172	-8.75049715838	4.7211472246896555
O	-2.186421871655172	-8.50028513838	8.410012884689655
O	-6.696067431655171	-8.456188838380001	4.774708104689656
O	-7.004217521655172	-8.73089025838	1.0262520946896552
O	-5.987632491655172	-5.5311210083799995	-0.5776600853103446
O	-7.073853391655172	-4.84537266838	-4.120927145310344
O	-6.431118801655172	-1.98459548838	-6.556281845310345
O	-9.566637911655173	-0.016718543380000117	-5.509577755310344
O	-11.294476721655172	-2.1000624983800003	-2.835471555310345
O	-10.278027621655173	-4.14070140838	0.2628740246896554
O	-10.647115451655173	3.6069012416199997	-0.10230044931034465
O	-10.415326521655173	7.050747211619999	1.4160354946896554
O	-10.858795261655173	10.30675975162	-0.4791744083103447
O	0.6108218683448281	4.970746221620001	11.018664814689656
O	1.696214588344828	5.4440366316199995	7.406947784689655
O	5.242518488344828	6.321796491620001	8.363817404689655
O	7.096799338344828	6.0236020016200005	11.656475614689654
