23

O	10.034851044209974	11.034905226002193	18.97840033907358
O	9.788389164551235	9.732441051917364	18.55133320288046
O	6.739599690458496	12.946670744961363	17.483643150678876
O	9.501786655372841	11.86096269779052	14.71344455755892
O	8.709568035120899	12.822655680542018	14.434590106932655
O	7.652584044021674	13.018574597236716	15.18452311856821
O	7.5332607981767445	12.409647888141865	16.432243413885093
O	8.00419245835893	11.1510996442112	16.347222887478974
O	9.224784130627071	11.114122830108187	15.78561730833956
O	10.793852825133785	12.22152830670047	14.43867609841244
O	11.12147552509095	13.492370278274642	14.547630075014824
O	11.051022391855454	14.176745431364518	13.019767512897694
O	12.12448503124368	14.515755128642926	14.633956541919563
O	13.054021708949048	13.503954809234251	14.879040421863742
O	12.870687452204402	13.077496437540177	16.238862424491508
O	11.5207031271905	13.599015932522716	16.588038546794575
O	10.984076692464988	14.786707147074686	16.326432586841197
O	9.690621861741645	14.889739767262666	16.366611961270614
O	9.424194916958578	14.426639928458489	17.659433005633087
O	9.937781211284204	13.30539845188328	18.203417564441693
O	9.469644374551594	12.233182120086026	18.878140812248937
O	10.872009773762036	12.772830427820733	17.346245111154282
O	11.295395819845531	11.475222792258442	17.260542771685447
