24

O	12.055066987347587	12.944228769263336	15.008989721506465
O	12.634576504486077	14.267915815028024	15.348632122787933
O	10.666601065241835	12.662851854316871	15.513012527480463
O	9.778658979751897	13.252408474409219	14.716877775448117
O	8.802638469355692	13.628649122883285	15.472711827097205
O	8.973890113650105	14.302573689505804	16.615220330308027
O	10.077556360224284	14.182048822690211	17.421732580052726
O	10.649722670005822	13.141824095716993	16.747261991089516
O	11.083207081069961	12.130594533594646	17.609569820578656
O	11.648801828862041	12.419247613516326	18.570163059368486
O	9.76752506487776	11.80765727728502	18.027543218383993
O	9.051462037892318	12.216474386095003	19.075998239781597
O	8.629580916333953	11.275438528407733	19.931981473911755
O	8.990540069447723	10.987431560940385	21.26294222697766
O	9.43360129768774	10.528798235217176	22.203497490387278
O	8.384555600026927	10.14769924111485	19.208891742013027
O	8.192612129741327	10.272291858390394	17.755071640871964
O	9.053449762500888	11.060396486222833	17.148732045080234
O	8.248898320336158	8.700930939939777	17.584273768348318
O	10.649526910977155	14.506989318113465	18.70263517930874
O	10.452544513425366	14.211338776273129	20.105365149023697
O	12.124339444068069	14.689134370528837	18.664856685605706
O	8.011789959881874	14.123636024788095	17.379151901964438
O	9.960396435469779	13.200295938741231	13.495672877005209
