74

O	1.7675949878148152	0.6248951809425926	-1.4546162118944446
O	1.719869597814815	1.9856457069425923	-1.9098984518944444
O	2.593242507814815	-1.4588069130574075	2.1267285981055557
O	0.1591878678148151	-3.2153371230574073	-0.43303970829444444
O	0.5978528578148152	0.3795262310425926	-0.7264363078944445
O	0.3676109278148152	0.6472711019425925	0.6383399651055557
O	0.789102617814815	1.8854756469425924	0.7577071381055556
O	1.175213067814815	2.0104231469425926	2.0577084581055556
O	2.083315767814815	0.9973232579425926	2.4568552581055556
O	1.5928706178148153	-0.3228269340574075	2.453337938105556
O	0.5645660878148151	-0.3844696620574074	1.5066664781055554
O	0.2032052278148151	-1.6713758630574072	1.2644569681055555
O	-0.4193864151851848	-2.3060021230574073	0.17738473210555555
O	-0.9685562691851848	-1.3893421930574075	-0.7686477868944444
O	-1.9081599621851848	-1.9094859730574072	-1.5326679518944444
O	-2.496400842185185	-0.7761138730574074	-2.1982162418944444
O	-1.6043075971851848	-0.5023358450574075	-3.2601112218944444
O	-0.48770194918518484	-0.01552948905740742	-2.644769161894444
O	-0.2817420391851848	-0.4316815620574074	-1.4040667718944444
O	1.3784936778148151	0.9017081369425926	-2.8235008718944443
O	-3.5622854221851847	13.722382476942592	-6.591505041894444
O	-5.957654042185185	8.913312316942593	-0.9977385548944444
O	-6.2968871121851855	5.178622796942593	-1.0942569058944445
O	-8.203950312185185	3.5532931569425927	1.6961901281055554
O	-6.598394952185185	0.5461181245425926	3.3328722581055557
O	-9.873448372185184	-1.3896862030574075	2.9522111181055557
O	-9.451632882185184	-1.1430841630574076	-0.7795279678944445
O	-6.090063152185184	-2.9597470230574072	-0.9027697808944444
O	-5.674751882185184	-6.500046123057407	-2.2976566918944443
O	-3.714511852185185	-8.667654383057409	0.1281051781055556
O	-0.0808278221851848	-9.082392983057408	-1.0057956118944444
O	2.426547917814815	-11.967672423057408	-0.49003312289444445
O	5.2902803278148145	-9.428468163057408	-0.24145544949444442
O	5.559914697814815	-5.6559035330574075	0.06276008610555556
O	8.493293307814815	-3.262289963057407	0.005186150105555565
O	8.519018057814815	0.3746887054425926	0.9452911081055555
O	11.158476257814815	2.5497364369425926	-0.5919448048944445
O	11.428059757814816	6.339876646942593	-0.36937871989444443
O	1.8748178778148152	-5.810279343057407	-14.577657121894445
O	3.5207240378148152	-5.923314123057407	-9.629352211894446
O	1.8135335678148152	-3.104340093057407	-7.879671451894445
O	3.4013876078148155	0.28036550294259255	-7.277396351894445
O	1.579059727814815	3.120583846942593	-5.598112501894445
O	2.935088667814815	6.699334806942593	-5.697709871894444
O	2.419918227814815	8.728154496942592	-2.5154427118944445
O	4.478318737814815	11.843579176942592	-2.0995747218944443
O	8.089619767814815	10.815545976942591	-2.4244169218944442
O	7.436283217814816	7.3147390169425925	-1.2041635268944444
O	6.992191317814816	4.220523506942593	-3.3218846918944442
O	5.282717777814815	1.0622712689425926	-2.1272335318944444
O	5.5984167778148155	-2.1380760230574074	-4.050512581894444
O	3.8438450878148154	-5.463264253057408	-3.736268931894444
O	3.495662187814815	-8.736030823057408	-5.581332761894444
O	5.688511827814816	-4.073769083057408	8.766490108105556
O	3.579385377814815	-2.9135014330574074	10.495630478105555
O	3.4966596678148147	0.2666160529425926	8.409058018105554
O	1.934780807814815	3.4363764169425925	9.913928278105555
O	0.5220985578148152	6.014255916942592	7.432277778105556
O	-2.2686294321851848	8.544148156942592	7.045763578105555
O	-3.654070962185185	3.7349093069425927	10.011630178105555
O	-1.7212115241851849	0.6373156019425925	10.934292078105555
O	-1.2280887871851849	-1.5420495630574074	7.908530408105556
O	-0.2875254471851848	-5.145701093057407	8.522990058105554
O	0.4650083978148152	-7.984181023057407	6.092525228105556
O	-3.146807662185185	-9.207139133057408	5.998553738105556
O	-5.117248042185185	-6.886060313057407	8.229780008105555
O	-5.351407412185186	-3.143419483057407	8.903123678105555
O	-8.166905022185185	-6.678610643057407	2.7675242281055557
O	-10.200588272185184	-6.800165303057407	-0.38106653299444443
O	-8.975452182185185	3.5471200569425925	-4.7160795518944445
O	-6.661652602185185	6.227936916942593	-6.017842421894445
O	-4.106055582185185	3.5571128969425927	-6.552717201894445
O	-2.3111249121851847	5.405623946942593	-9.327114291894445
O	-2.622443902185185	8.972303156942592	-10.477101321894445
