75

O	1.4327917456636368	1.2301981325509088	-1.1072664306181816
O	0.5912356856636367	-0.0433898294490912	2.2959797863818183
O	1.2641392456636367	2.4947577115509088	-0.5109066036181815
O	0.9377567956636366	0.9625992975509088	2.8289995663818184
O	1.3627579356636366	-1.0749047384490913	2.323731806381818
O	3.3331585956636367	2.5886378115509086	0.5110323763818184
O	3.568034375663636	-0.4092004184490913	2.6039044363818182
O	2.946498825663636	-1.700605838449091	0.7733477303818184
O	2.801620505663637	2.5593980715509086	1.8729844963818185
O	3.4378259556636364	1.2136438625509087	-0.045386130618181586
O	-0.8031201543363634	-2.604696068449091	2.0220747463818185
O	0.41145855566363654	0.21796172355090881	-1.0580094606181816
O	0.4514535656636367	0.37958841255090875	0.2499594203818184
O	-0.3404179113363634	-0.14141644944909126	1.2099337563818184
O	-1.0334001013363634	-1.3099333084490912	0.8498113453818185
O	-1.1325981203363633	-1.5349179584490913	-0.5188288686181816
O	-0.4413926203363634	-0.7203848684490913	-1.4257784336181816
O	2.5889488256636364	-1.4045594984490912	2.2441205263818182
O	2.2566112256636366	3.206920221550909	-0.12370730071818159
O	-0.19130445333636337	2.6877608915509086	0.2386635173818184
O	-13.757666934336363	4.0403037215509086	-8.537053103618181
O	-7.152845784336364	0.0003300415509087662	-9.16305828361818
O	-3.7159083743363635	0.8707187873509088	-7.755398533618181
O	-0.8085344573363634	-1.1514118884490911	-9.092598983618181
O	1.6654022856636368	-2.401263878449091	-6.485664563618181
O	4.551560895663636	-1.0014571284490912	-8.495869013618181
O	3.1637685356636362	2.460035691550909	-7.913275663618181
O	3.3010036756636367	2.3955189515509088	-4.085728953618181
O	5.949173905663637	4.391549051550909	-2.2330624536181816
O	7.758745085663636	2.1643998915509086	0.31170524938181843
O	6.592586335663636	2.816811161550909	3.8887547963818183
O	8.086756095663636	2.4465097815509087	7.266399216381819
O	4.8030206356636365	1.2247001235509087	8.755592506381818
O	1.4568786156636364	0.0745316905509088	7.467276856381819
O	-1.8193932443363634	-0.8778800284490912	9.05398196638182
O	-4.821255194336364	-2.5683237884490913	7.528456036381819
O	-8.169730284336364	-1.9099550784490913	9.05457773638182
O	-11.549782834336362	-2.9912055684490912	7.662499736381819
O	2.3030085256636363	12.731766691550908	6.014398236381819
O	-0.04007196633636334	9.768300231550908	6.227517706381819
O	-1.2501964723363632	7.645219991550909	3.3122735863818185
O	-4.670785994336364	6.057422061550909	3.292041786381818
O	-5.857359854336363	3.993852191550909	0.4058940883818184
O	-9.561544224336362	3.271301031550909	0.15761772038181843
O	-10.591834854336362	-0.019303467449091283	-1.3478591036181817
O	-14.674868334336363	-1.3641336184490913	2.905779216381818
O	-10.951735134336364	-1.7932408784490912	3.6716173763818185
O	-8.574906734336363	0.9488244665509088	4.670727016381819
O	-4.852769694336364	0.7492902794509088	4.242287406381819
O	-2.714502984336363	3.222502331550909	6.157349236381819
O	1.0033846956636365	3.934451451550909	5.973732376381819
O	3.5024743856636364	6.498906621550909	7.2050044263818185
O	7.184957475663636	6.879616931550909	7.852196566381819
O	2.289090495663636	-8.582219078449093	6.3179879763818185
O	2.5314511556636363	-10.101632308449092	3.8104942163818185
O	-0.8261587933363634	-8.896403608449091	2.5951337763818185
O	-2.640546724336363	-10.517489508449092	-0.2649649036181816
O	-4.948332544336363	-8.450216078449092	-2.456345453618182
O	-0.6710345738363633	-9.848034708449092	-5.413335533618182
O	1.5384201556636368	-10.460471908449092	-2.435386323618182
O	2.5063938056636363	-7.156058588449091	-0.9421572476181815
O	5.440246185663637	-7.080815688449091	1.3789252663818186
O	7.1408107756636365	-4.396937038449091	3.4176549363818185
O	9.491328665663637	-3.3967558284490913	0.6470233803818184
O	8.830789735663638	-5.735832038449091	-2.2317036036181817
O	5.819812065663636	-7.168541128449091	-4.0626173336181814
O	10.392420665663638	-3.098031788449091	-5.667279263618181
O	8.445669165663638	-0.007122974449091268	-4.720183283618181
O	8.547843045663637	3.4117486915509088	-6.295053023618181
O	10.894083065663636	6.2225709515509084	-5.369905403618182
O	9.386594365663637	-1.929054608449091	-10.510769283618181
O	-2.1557990543363634	5.179351381550909	-9.235714163618182
O	-5.763519914336364	5.486868871550909	-8.200549643618182
O	-4.525041924336364	6.014197291550909	-4.687814363618181
O	-7.511547614336363	8.002191841550909	-3.641552913618182
