75

O	0.3865938259254543	2.2973195121327277	0.9923336933054545
O	-0.9562679893745457	0.5550110451327275	0.39748195930545455
O	0.4979843459254544	3.5006916121327274	1.1319794233054545
O	-0.5768587750745457	1.2893366691327275	1.5565957133054544
O	1.4227067859254543	1.5250123961327273	0.46419314630545455
O	-1.1613528490745457	2.5050178821327274	-0.6264712636945455
O	0.010140005925454276	-0.3307878178672726	-0.0634540316945455
O	-2.298289614074546	0.6753186521327275	-1.5654919866945456
O	1.3424584759254543	0.1071877821327275	0.23262593930545455
O	2.073808855925454	-0.9676488878672725	-0.2489897236945455
O	1.5650868759254544	-1.7547065278672727	-1.3514754326945455
O	0.8131080959254543	-0.8918473478672725	-2.1823687766945454
O	-0.16964316407454572	-0.2918100978672725	-1.4525472166945455
O	0.06374394592545418	0.42820364513272746	2.4494122733054544
O	-0.22189858507454574	-1.0466073878672724	2.1502199933054547
O	-1.6395644050745457	1.1619654171327274	-0.6557738296945455
O	-0.8475984850745457	3.0655437921327278	-1.9023871666945456
O	0.5319258559254542	2.7336306021327275	-2.3779018366945457
O	-1.7568199680745458	2.3748464421327276	-2.8763688666945457
O	0.4934223159254544	-1.5127636878672726	-3.3777247966945456
O	6.147500425925454	-9.751380587867272	12.027956953305456
O	7.456972605925453	-7.479939607867273	4.724263963305455
O	7.011438175925455	-4.067643817867273	3.2232889133054545
O	8.594715675925455	-3.4140525478672727	-0.1595222656945455
O	6.493424605925454	-1.7379168378672722	-2.8229682166945453
O	9.130315545925455	0.8682483988327274	-3.4658670866945456
O	8.722799625925456	2.0882117021327273	0.0943759573054545
O	4.943154595925454	2.9839461221327275	-0.1360024876945455
O	3.8744390759254546	6.619466302132727	-0.2855209024945455
O	1.5028648059254546	7.217158942132727	-3.1792280566945457
O	-2.1003026040745456	7.512177962132727	-1.9974365666945455
O	-5.163846214074546	9.257552962132728	-3.4194721266945454
O	-7.429699734074546	6.387133232132727	-2.3366666266945453
O	-6.936600684074546	2.8500869321327276	-1.0527117706945455
O	-9.272107904074545	0.17930385213272748	0.23206177330545447
O	-8.550734344074545	-3.4638378978672724	0.8685249333054545
O	-10.635954624074545	-5.2418191778672725	3.4393064333054544
O	-10.091134644074545	-8.755356837867273	4.8158876033054545
O	-3.7802909340745456	11.037927912132727	8.222043573305456
O	-4.864540494074546	7.4974369921327275	7.438052703305455
O	-2.529817244074546	4.596765762132727	6.686232213305455
O	-3.3922304840745454	1.0360005201327274	7.659516533305454
O	-1.0705515299745456	-1.8114122078672725	6.936653363305455
O	-1.6136740820745459	-5.107121607867273	8.645383343305456
O	-0.7564180650745458	-8.248374257867273	6.752239283305454
O	-5.856669414074546	-11.179975287867272	8.198286623305455
O	-5.953855784074546	-8.498700287867273	5.510262053305454
O	-6.079392164074546	-4.775813847867273	6.038174283305454
O	-5.023981044074546	-2.1723922678672722	3.5815904933054545
O	-6.221974164074546	1.4069071821327275	4.131208983305455
O	-5.198506894074546	4.597216312132727	2.2876421433054546
O	-5.523279474074546	8.356175462132727	2.6247177833054542
O	-5.377652824074546	11.495918712132728	0.5518897273054546
O	-6.807645574074546	-2.1645200278672725	-8.271879186694544
O	-4.539856084074546	-3.5329077478672724	-9.571407536694545
O	-3.8646147040745458	-5.541357067867273	-6.433116696694546
O	-1.6307522750745456	-8.578177197867273	-6.4734516966945455
O	0.3115793459254542	-9.489209287867272	-3.3339770866945457
O	3.8733791559254542	-7.9179438378672735	-7.109050596694545
O	1.3210049259254544	-5.948105277867273	-9.069379786694544
O	0.4654242859254544	-2.7961969878672726	-7.202472096694546
O	-1.1862988440745457	-0.016617219867272603	-9.137027476694545
O	-2.4500770940745458	3.3580662721327275	-7.910006466694545
O	0.7871471759254544	5.160832812132727	-8.674611166694545
O	3.171138615925454	2.5558389321327275	-9.991858776694544
O	4.179417545925454	-1.0169390878672724	-9.162847176694545
O	7.154944215925455	4.573920122132727	-8.844522646694545
O	6.250062535925454	5.233626912132727	-5.235730066694545
O	8.209101895925455	7.070837282132727	-2.6045665866945455
O	8.122999675925454	10.786704562132726	-1.9377862966945456
O	11.847621945925455	3.4736704821327278	-7.208865356694545
O	9.223124345925456	-0.5295652878672726	5.598347253305454
O	7.534271815925455	-2.7980410778672726	8.070822143305456
O	4.467007715925454	-0.7099516878672726	7.6440798233054545
O	3.106609585925454	-1.4558637678672723	11.025143953305456
