37

O	7.6549016767272064	8.660325813042574	16.013103161001283
O	9.598221407630236	12.511096958166863	15.435112149031678
O	10.554821344891014	10.433629916937276	16.41285402413705
O	8.283692917888878	9.81732665055126	15.92837401215061
O	8.561602477535299	14.303729341278245	15.581714308960194
O	7.9883202404608795	10.83605206734688	15.065866503040851
O	9.315869574250087	10.017652397421232	16.745650959344676
O	11.024828588378773	14.766296473188827	17.13118874331633
O	9.362714090790933	13.57883390534963	13.555173006235895
O	9.306560840113175	9.236628853964087	17.86840482010384
O	6.572796523590905	10.505476652608344	18.87459131105555
O	8.23604557746859	15.060338580956707	17.50901812355217
O	8.370575664119755	8.351157918906086	18.150243049381235
O	11.209507405501917	15.31897224164241	14.825810768857309
O	7.539513596875217	8.05098408365991	17.173640969556985
O	8.984372240814677	10.88703173337072	14.13405111297887
O	10.145883539837675	11.590395814769142	14.494490583255198
O	8.902311150774691	13.339898066791052	14.72877787986271
O	8.298682920303998	14.019390390308127	16.83908450591114
O	7.79814201324889	12.79161962314837	16.98404664149391
O	8.915957496285046	12.271344231349723	16.520143508643418
O	10.969202908286116	11.328126676629566	17.339868355556597
O	10.781768689192562	11.09669983390035	18.58001269565345
O	10.082136931853292	12.119981108313569	19.044675433497847
O	10.473012544504838	13.363236657617648	18.964047852585097
O	11.068192903524453	13.599870956798995	17.834838487990243
O	11.201578196577767	12.546998135489245	16.997840318416266
O	9.388533330818312	11.75113924043715	20.251736084524687
O	8.102296844638653	12.139842971005875	20.004204068058538
O	8.241091978934895	13.476195639282018	20.0627294772921
O	9.432157135256448	14.024212016514296	19.42854288162519
O	7.175611011864019	11.152118726368164	19.576920584527322
O	10.86391994370885	9.925908470345142	19.375943840250986
O	11.217316613366474	14.675063585002983	15.828116265099236
O	12.099093742031595	13.670932125432463	15.210257923334805
O	12.092153998675656	15.46783759267108	17.86666802813009
O	13.208915451773327	13.993803672221215	15.928230764303237
