75

O	-2.0865417971327274	-3.5573081143818177	3.429625200072727
O	-1.1101082971327274	0.27998260661818214	-2.399637839927273
O	1.2985402078672723	-2.4761383843818177	0.5407166260727271
O	1.9694577278672725	-1.2733927043818178	-0.756147627927273
O	0.9565763078672727	-1.9338216843818177	-1.726190889927273
O	-0.24874746213272747	-1.3868893743818178	-1.055337581927273
O	0.005176917867272479	-1.4386065243818178	0.30457646907272695
O	-0.8956233041327275	-0.1880480193818178	-1.265601189927273
O	-0.30757252213272746	0.6283705616181822	-0.185592775927273
O	-0.2172420521327274	1.875055075618182	0.26335832907272705
O	-0.2921834121327276	2.052074445618182	1.698738730072727
O	0.8554850678672725	1.4981047356181822	2.272758350072727
O	0.8500207578672727	0.14700858461818217	1.980091710072727
O	0.4584552678672724	-0.09311092538181787	0.649361460072727
O	-1.1957477211327274	-1.5349475143818176	0.9663920900727271
O	-0.6519564291327274	-1.836059354381818	2.220842280072727
O	-1.6735672541327276	-2.1331227743818175	3.104941410072727
O	-2.5809122021327275	-1.0986880443818179	2.999032280072727
O	-2.7799200221327274	-0.35006036938181784	1.838065400072727
O	-2.1149319321327273	-0.6194960443818178	0.691270960072727
O	10.134974047867273	11.704545895618182	-3.324441649927273
O	3.0226813978672724	10.643224695618182	-0.43534049392727303
O	0.29733615786727263	8.354570315618183	-1.656905789927273
O	-3.1917777321327274	8.793306055618181	-0.243703619927273
O	-5.081638552132727	5.735820835618182	1.013548350072727
O	-8.072784852132727	6.6066159756181815	-1.096063109927273
O	-5.928653852132728	6.111659405618182	-4.1708190799272735
O	-4.906802422132728	2.4050797156181822	-3.494704429927273
O	-6.570988332132728	-0.2913841813818179	-5.650215009927273
O	-7.927488172132728	-3.0178114543818175	-3.3632446499272732
O	-5.690324942132728	-6.093191024381818	-3.316677479927273
O	-6.340687122132728	-9.813353904381819	-2.747250349927273
O	-3.0136916621327274	-10.127781704381817	-0.876870053927273
O	-0.4421950981327275	-7.6729415643818175	0.533091522072727
O	2.9477364778672723	-8.216176644381818	2.162703470072727
O	4.995430787867273	-5.645124384381818	4.031720560072727
O	8.687851647867273	-6.140166964381818	4.160409910072727
O	11.282163047867272	-3.713306274381818	5.510142220072727
O	3.6038484978672725	-6.103069444381818	-13.942128809927272
O	2.3539453078672725	-7.055857054381818	-8.993295709927272
O	2.4078298978672725	-3.7180266043818184	-7.178363319927273
O	5.356439847867273	-2.4998139743818175	-5.112701409927273
O	5.330571517867272	0.8299438566181822	-3.326490199927273
O	8.588790647867272	2.249854825618182	-2.039259329927273
O	8.484624197867273	4.276141035618182	1.126893460072727
O	11.708042747867273	4.9349660256181815	2.9792518100727268
O	13.247960847867272	1.5791335956181822	3.703271340072727
O	9.914314447867271	-0.21647645338181787	3.646710410072727
O	8.464180957867272	-2.1360623143818183	0.747216035072727
O	4.961524877867273	-2.976459994381818	0.27422275707272703
O	3.802751497867273	-5.686938404381818	-2.188691979927273
O	0.3112678978672725	-6.640777094381818	-3.4424076999272732
O	-1.3178866548327275	-8.799786274381818	-6.146136559927273
O	-4.566420532132728	-10.581654604381818	-6.906627509927273
O	-3.0783385921327273	-6.131418224381818	8.955598520072728
O	-4.313972172132727	-3.669750924381818	10.103520590072728
O	-1.2446272501327276	-1.606987874381818	9.034126240072728
O	-0.6233718501327274	1.795295035618182	10.426169990072728
O	1.2730120478672724	4.3663402956181825	8.414981830072728
O	1.4998845878672724	8.155811575618182	8.016449610072728
O	-3.8592466421327276	6.0794033156181815	8.902375690072727
O	-5.188656532132727	2.629121615618182	9.575025140072729
O	-5.133197222132727	0.5859066796181821	6.431853780072727
O	-7.276546992132728	-2.541488544381818	6.310229060072727
O	-7.759271552132727	-5.228501214381818	3.617616820072727
O	-10.601354822132729	-3.402082494381818	1.904601060072727
O	-11.206476732132728	-0.23131199238181788	3.870814820072727
O	-9.104906622132727	2.5516980056181824	5.440125800072727
O	-10.430124772132729	1.7023914756181822	-2.059684169927273
O	-10.359719772132728	2.853383475618182	-5.645836609927273
O	-0.7976131501327275	8.790019175618182	-6.286294629927273
O	2.9666635478672725	8.855493965618182	-5.912481269927273
O	2.875203407867273	5.070891465618182	-6.095498229927273
O	6.379888007867272	4.858374625618182	-7.507908699927273
O	9.129846247867272	7.438708645618182	-7.732628939927273
