29

O	10.73678795853385	15.364650523641323	20.300343848990188
O	11.058402301002888	13.74380114474217	14.294395569449737
O	10.954535749116365	14.311730542488354	17.455789720367466
O	10.012215516847569	11.07826086138095	18.782439043782706
O	10.267408826383893	11.647084539577254	19.94221694771045
O	9.384032261447759	12.336657144476035	20.683693089627837
O	8.5623365765771	13.093146924553213	19.821399255774843
O	8.499788665215108	13.025018695577932	18.500281025657294
O	9.22040577550886	11.981027621871476	18.227016224714628
O	7.495180645857092	13.110209007028942	17.44143856569689
O	9.92700988567026	14.192939001162939	15.006139396074794
O	9.312686798287205	12.082050932439834	13.660454189083918
O	9.047342530954724	10.750406411724533	15.544095476748257
O	10.28409374563024	10.76908368591603	15.82756387568935
O	10.948363482344481	11.804894738589306	15.11192572084252
O	10.562479965514799	12.380176237906047	14.010677617251538
O	8.654943931262302	11.178505770718559	14.369524295351702
O	10.953819234903932	11.026358854660549	17.73229365828643
O	9.450554920250033	13.057611991633525	15.76338968827593
O	11.09276131459036	14.552475546198213	18.83620082956711
O	12.020942315297301	13.681555959680642	19.28635350111206
O	12.003997780674434	12.530046777952736	18.594989073931956
O	11.301265794586142	12.350282659682568	17.333798478290944
O	10.488545810448938	13.262660162291644	16.81831721248464
O	8.94496373804812	12.71659835350709	12.65604098076341
O	8.790417440143646	9.78448451221348	16.220550372896852
O	6.990715303749879	12.006851675170921	17.087545367453128
O	6.547282503159664	10.84989027288847	17.745575853280396
O	6.554011710450012	9.911898151170268	18.404846341573226
