28

O	10.31269768877933	10.420360763016614	17.118933549809192
O	9.67113286720726	13.32870717300873	20.779956895802435
O	9.773620637413433	13.178944164829387	21.89980189532154
O	10.241828230138754	15.131867268421697	16.425154928218035
O	10.331641869372273	12.84695028422508	16.908584854758423
O	10.491030570485663	14.06510787836538	17.335824239065396
O	10.114917905868172	14.182266933578623	18.631927072729187
O	10.267476786959046	13.177302965196787	19.498607849488085
O	10.380699617358427	11.957112413182855	18.950020170202848
O	8.08008351032553	12.18407728749405	13.318596502933318
O	10.195249418346826	11.782624654312103	17.61641609472062
O	9.513340003131589	12.386126321653057	13.400002397649775
O	9.915333685301093	12.041038398700387	14.59946140787396
O	11.023870257167573	12.562626305211898	15.018465623257585
O	11.36466303584049	13.782842364504235	14.567388145832258
O	11.097013586206018	13.969662692658927	13.26229262198012
O	10.293565947744717	13.124921292088498	12.63346743317433
O	11.370811771571432	12.35188580325297	16.23980397604966
O	11.600968056740381	15.204690523367699	12.845616686895438
O	7.534974276619427	12.258892295201234	14.656989731868206
O	7.798202352377649	13.256105216527228	15.542703985361285
O	7.408520322331058	13.155061379329736	16.89165205595609
O	7.341511689921175	11.96010440332036	17.461036248776608
O	7.362149465658877	10.940617214649807	16.608596016629438
O	7.9664350050985195	11.13132364231527	15.36511021787748
O	7.328535184924721	11.843232413946323	18.854428770482908
O	7.620546712179344	11.44285955350867	19.884554673823146
O	13.142080744560133	14.235792986536353	15.126615036409728
