20

O	13.033735680343842	12.75403305495706	17.994449744521937
O	13.905343864350542	13.463075883882908	18.87577716973125
O	9.734756411522895	10.180315018583023	18.275155620884394
O	10.112850244385832	12.228242147603238	14.931290011700986
O	11.843798222900485	13.483265071677224	17.87848466852205
O	10.71717323399227	13.413457038259677	18.72244876440443
O	11.260695240958494	13.538675942367554	19.91311508182135
O	10.403677411229518	12.902296862294973	20.76196311553956
O	10.12735990335596	11.574173368577064	20.347831487001066
O	9.427714224924674	11.434170502084367	19.132618442227482
O	9.723177469782524	12.556235392880362	18.35169372347188
O	9.29405219752798	12.388138679130792	17.074330774695905
O	9.684428384937698	12.945538204672708	15.845616077114492
O	10.549991191667477	14.070262104269565	15.990602062432249
O	10.564286063814073	14.876502064491884	14.948158693316811
O	11.249326972845687	16.052246189103357	15.424726016150942
O	12.617395520362761	15.699148992385483	15.328335041137157
O	12.796098357133783	14.766707809577714	16.310073123505187
O	11.720073076275163	14.068537733247407	16.640210479429253
O	14.096428534320829	13.568673163558458	17.434487816150675
