95

O	-0.7345218653387091	-1.798366309401613	2.534190037617742
O	0.5109516286612907	-1.9234465594016132	1.9246176476177421
O	0.6118577986612908	0.8267256035223868	-1.595397386382258
O	-3.115204291338709	4.154804260598387	-1.354566904382258
O	-1.2016131098387093	3.761131580598387	1.420574417617742
O	1.521457898661291	0.2269634135983868	1.496194367617742
O	0.911658348661291	-3.159547639401613	1.9203579376177422
O	1.3947441786612909	-4.070114349401613	0.9598607876177421
O	0.8587578186612908	-3.4310212194016128	-0.16558425438225788
O	1.1609951186612908	-2.138360989401613	-0.3641944683822579
O	1.303013778661291	-1.487749649401613	0.9346746076177421
O	0.23297114866129087	1.1972372365983868	-0.3500827613822579
O	-0.6398801533387092	2.3059555705983867	-0.29514580738225793
O	-1.5137427053387091	2.1355172305983867	0.7993245676177421
O	-1.862239245338709	0.9113811719983869	1.064621847617742
O	-1.2423624803387092	-0.3651900794016133	0.8908393676177422
O	-0.5005931373387091	0.05325749759838683	-0.21118041138225785
O	-2.679201091338709	2.6408933305983866	-2.180167682382258
O	-1.9852439153387091	1.4607756925983868	-1.838423172382258
O	-0.6778837073387092	1.0585100555983868	-2.230541062382258
O	-0.21113066733870922	2.109249360598387	-2.822195952382258
O	-0.9663334893387092	2.655196490598387	-3.820585032382258
O	-2.2790945813387093	2.9080173705983867	-3.4597614523822577
O	-1.4418720783387091	-1.6996576294016132	0.571843387617742
O	-2.529415471338709	-2.296285139401613	1.002937057617742
O	-1.7705076443387093	-2.794861589401613	2.242160467617742
O	-1.3132330013387092	-3.929095289401613	2.0041210376177423
O	-0.9347756173387092	-2.963869929401613	-2.140144052382258
O	-0.7968048313387092	-5.142194729401613	-0.572047268382258
O	1.2413693286612908	-4.568294819401613	-1.9314430623822578
O	-0.35452617433870914	3.7588218305983867	-4.541544572382258
O	0.23044395866129075	4.775664250598386	-4.4268291723822575
O	-0.08198627133870917	-4.174982469401613	-1.3725665163822578
O	-9.395704091338708	5.156394750598387	1.8672516876177423
O	-10.663995121338708	1.6242302725983868	1.474807407617742
O	-8.228118311338708	-1.1662213794016134	0.7592239576177422
O	-9.73896290133871	-3.199714589401613	3.5631401076177425
O	-8.510344771338708	-0.5658491694016131	5.984620757617742
O	-4.709637331338709	-0.9307017894016133	4.951138897617742
O	-2.415777791338709	-2.357161009401613	7.4931380876177425
O	-0.30070971633870913	-4.914554689401613	5.7786912576177425
O	3.192324958661291	-3.5135407594016135	5.164763297617743
O	6.589042068661291	-5.144637359401613	4.7094704676177415
O	7.581523498661292	-2.6749260294016133	1.9915763676177423
O	5.767417048661291	-0.08282055140161315	-0.12408268738225792
O	6.964038348661291	2.505265620598387	-2.574580102382258
O	5.121512128661291	4.657151860598387	-4.963648202382258
O	6.493667348661291	7.952743390598387	-6.034003432382258
O	4.666484888661291	10.624247680598385	-8.079275082382258
O	7.020609218661291	4.455634280598387	11.837498157617743
O	6.357713888661291	5.374671360598387	8.173599417617742
O	3.0550996086612905	5.672560150598387	6.380740187617743
O	2.436499118661291	8.145750940598386	3.580528387617742
O	-0.8594209273387092	8.430455060598387	1.807125097617742
O	-1.4722033943387092	11.586551340598387	-0.19062166738225794
O	-3.6397443913387093	11.121782940598386	-3.240054752382258
O	0.9861170986612908	10.680361440598386	-5.971190612382259
O	2.6055159886612906	9.574058450598386	-2.7682244923822577
O	2.349203228661291	6.085601520598387	-1.357006400382258
O	4.753949478661291	5.0367341105983865	1.2624653776177421
O	5.1191637686612905	2.037630630598387	3.4636389676177424
O	6.9934939986612905	0.7775726994983868	6.546438017617742
O	8.016911468661291	-2.491794849401613	8.173444967617742
O	11.781601278661292	-2.1750858394016133	7.610417327617743
O	13.71566667866129	-4.404564919401613	5.199540467617743
O	16.556261278661292	0.6360476595983868	5.588929497617743
O	13.48984637866129	1.1697636505983868	3.3978567676177422
O	10.913869978661292	8.775658070598386	-9.619527922382257
O	9.139924178661293	3.392592100598387	-9.268148032382257
O	6.283233808661291	1.1146649555983867	-10.319337302382257
O	5.885250498661291	-2.3467542694016132	-8.899918232382259
O	3.0049842086612912	-4.302820449401613	-7.339815592382259
O	0.26625361866129094	-5.058594509401613	-8.140244872382258
O	-0.8817612143387091	-1.489193909401613	-7.942223372382259
O	-4.11874885133871	-0.48825977940161314	-9.498032662382258
O	-6.101922841338709	2.539836430598387	-8.292401082382257
O	-8.876225281338709	-1.9532859094016133	-7.046434992382258
O	-5.939970051338709	-4.198529819401613	-7.3694060123822585
O	-3.755798301338709	-3.8480460294016128	-4.330793982382258
O	-1.366413530338709	-6.734129979401613	-3.813783292382258
O	1.4307294186612909	-7.289450059401614	-0.9846024676822579
O	-0.9662007023387091	-8.912219489401615	1.383373977617742
O	-4.33428783133871	-9.185088259401613	-0.36073271138225793
O	-6.586944231338709	-6.881634979401613	-2.436897032382258
O	-9.492826581338708	-7.222976399401612	-4.788134002382257
O	-11.51585842133871	-5.222059669401613	-7.239421932382259
O	-10.017405381338708	-5.043889979401613	-10.711170812382257
O	-9.62648194133871	-9.642754559401615	0.5595996676177422
O	-7.033020751338709	-9.481194459401614	3.3587554776177417
O	-5.622176551338709	-6.528612239401613	5.227547937617743
O	-6.444529681338709	-5.148988089401613	8.658249167617743
O	-4.790040681338709	-6.172842549401613	11.903565657617742
O	-11.560964521338708	-7.974498929401613	5.054457607617742
O	-5.317097311338709	7.983505140598387	5.171804587617743
O	-4.2546150713387085	11.635930740598386	5.626314727617743
