80

O	-1.137395574220339	2.162640484688135	-0.5445443106271187
O	4.471645737779661	0.6905449926881349	1.2664658153728812
O	0.30113593777966097	1.951011974688135	-0.18158190202711874
O	-3.030962632220339	0.792519431388135	-1.0623020086271187
O	1.4728179877796608	2.562953864688135	-0.5203954446271187
O	-1.5179287962203392	0.3553504446881349	0.5417982383728813
O	2.708592057779661	2.478997634688135	0.16726724337288126
O	2.970272317779661	1.5602247696881348	1.1052267953728812
O	1.7380728977796611	1.1981135156881348	1.6363204653728811
O	0.416617687779661	1.349635612688135	1.046234235372881
O	-0.24683976322033907	0.1199099436881349	0.3989116403728813
O	0.635230207779661	-0.4340747053118651	1.2467829653728812
O	1.166069987779661	-1.537643475311865	0.7678374343728813
O	0.491592507779661	-2.225496995311865	-0.4626820056271187
O	-0.5179472712203391	-2.0428251653118648	-1.5126904346271188
O	-1.1940609572203391	-1.9560028353118648	-0.4110031536271187
O	0.5003369777796609	0.11758979468813491	-0.8885484676271187
O	-2.149595772220339	1.285812705688135	-0.2916396795271187
O	1.9342380677796611	-0.11233965531186507	-0.6673806146271187
O	0.725861517779661	0.6840963996881348	-1.9791564546271188
O	1.9356169777796608	-0.11730447531186505	-0.6686277316271187
O	9.95305723777966	-9.501153655311866	-9.217951044627117
O	8.88195766777966	-2.075956905311865	-7.321702004627119
O	5.620169077779661	-0.18934818531186515	-6.913542514627119
O	5.833664237779661	3.594406284688135	-6.696639244627119
O	3.9051134277796606	5.366750164688135	-4.015280314627119
O	2.272766977779661	7.696436764688135	-6.445674284627119
O	0.6122934877796609	4.725089684688135	-8.088781644627119
O	-1.3897103532203392	3.542946944688135	-4.977487494627119
O	-5.178543062220339	4.166062254688135	-4.883580704627119
O	-6.025046862220339	5.672324044688135	-1.4947079046271188
O	-7.548631882220339	3.138683814688135	0.8944880553728812
O	-10.07339990222034	3.397061934688135	3.7627626753728816
O	-8.11604264222034	0.7691724900881349	5.756308665372881
O	-4.707331162220338	-0.928786755311865	5.439455425372881
O	-3.031863052220339	-3.734805505311865	7.362740985372881
O	0.5865885077796609	-4.827247755311865	7.256418585372881
O	1.3589228577796608	-8.411276135311866	8.221278265372883
O	4.731536967779661	-10.174617655311867	7.854631025372881
O	-12.56736916222034	-5.702816505311865	-3.466948704627119
O	-9.405353312220338	-6.263094355311865	-1.458369194627119
O	-5.876212082220339	-5.323560655311865	-2.4475137546271184
O	-2.882616772220339	-7.488838195311865	-1.4169456146271189
O	0.685090837779661	-6.602390965311865	-2.4335869446271188
O	3.5109244677796605	-9.094675785311866	-2.0683999246271187
O	6.926547287779661	-7.692907445311865	-1.1491977456271187
O	9.51004873777966	-10.025731155311865	0.17639825837288128
O	8.00749337777966	-11.811483455311865	3.140280995372881
O	5.6842953777796605	-8.961495255311865	3.945074885372881
O	2.041252747779661	-8.693838265311866	2.978984755372881
O	0.1337870777796608	-5.522378435311865	2.7665434953728814
O	-3.649584352220339	-5.383633355311865	2.6096111353728815
O	-6.114320772220339	-2.580959315311865	1.895772365372881
O	-9.897488432220339	-2.2091480553118648	1.2802057053728813
O	-12.65721516222034	0.3717958966881349	1.5207267953728811
O	-11.63389776222034	-9.744085955311865	6.444010705372881
O	-8.13598911222034	-9.555950155311866	7.886506255372882
O	0.7994985777796608	4.187026064688135	10.089524505372882
O	2.933736757779661	5.984677584688135	9.096926295372882
O	4.623443717779661	3.052104744688135	7.2762331153728805
O	8.18975825777966	3.347921254688135	6.100121175372881
O	9.404393537779661	1.3245648526881348	3.1536515753728813
O	11.85961173777966	1.4889284126881348	0.27735310637288124
O	9.39051513777966	6.550846654688135	1.7131064053728813
O	6.918126687779661	7.5874219846881354	4.403398375372881
O	3.4332105477796606	6.178829084688135	3.4624892353728813
O	0.524790597779661	8.006074874688135	5.320319775372881
O	-3.232134912220339	7.221071484688135	5.077943405372881
O	-3.881898452220339	9.744231154688134	2.2589724353728813
O	-0.4895199032203391	11.240521644688133	1.4306306353728813
O	3.1256386077796607	10.089819674688135	0.9679000553728813
O	-1.284260709220339	12.480872844688134	-2.9678843546271185
O	-2.587958632220339	9.127504124688134	-4.122589764627119
O	-3.9713239722203393	8.148869524688134	-7.495564864627119
O	-7.603772692220339	8.445441334688134	-8.545359694627118
O	1.081722137779661	12.766309644688134	-7.482314494627119
O	2.743062907779661	-0.4151677753118651	-10.759824294627117
O	4.146017577779661	-3.876688665311865	-10.091655914627118
O	1.252884577779661	-4.414594375311865	-7.716252354627119
O	1.2595633877796608	-8.207136545311865	-8.143014354627118
