89

O	3.0926287677393436	-4.775843591967213	-0.5660486529344263
O	1.882119587739344	-0.5774851819672131	2.7968705910655736
O	0.10637266773934378	-0.11837709296721322	0.8324293810655738
O	1.4323812477393438	0.13679736503278683	0.6648994310655738
O	2.4272982577393436	0.047896092032786886	1.6406574610655735
O	-0.19548604026065625	-0.14867666196721308	2.1918828210655734
O	0.7367469977393437	0.12535760603278678	3.1858875910655735
O	1.6285799677393438	-0.025728532967213225	-0.6362060409344262
O	1.3868915677393439	-1.344212141967213	-1.0647666799344262
O	1.4346910377393438	-2.5092130519672136	-0.3020322619344262
O	1.8879374877393438	-3.6106553919672137	-0.9708791049344263
O	1.4841752777393438	-3.6971488519672135	-2.301877098934426
O	1.187933457739344	-2.542806511967213	-3.0237714789344263
O	0.7822424177393439	-1.459522001967213	-2.249905378934426
O	1.4364774977393437	-2.6318552319672133	-4.421852058934427
O	-1.5108788222606562	0.2684359650327869	2.117314291065574
O	1.2577762977393439	-2.8573556519672128	-5.549967208934426
O	-1.9561787022606563	4.306477738032787	0.8883470810655738
O	-2.7635893722606566	3.597387008032787	0.15522733406557376
O	-2.095053962260656	2.799227138032787	-0.7478692939344262
O	-0.9353914262606562	2.0870003080327866	-0.40439416423442626
O	-0.9561153432606562	3.4905365980327865	1.3677247710655738
O	-0.6923535832606562	2.227125708032787	0.9645909710655738
O	-1.0715691242606562	1.6371618920327868	2.203326311065574
O	-0.20687100026065625	2.283228788032787	3.069174971065574
O	-0.6866503722606563	3.433655148032787	2.7154762510655734
O	3.7222305777393436	-1.2814116519672132	1.0377385910655736
O	-0.7163153682606562	-0.9224019719672132	-0.008842653934426237
O	2.9918869277393436	-8.145996611967213	5.387471171065574
O	-0.7016691082606562	-8.604610821967212	5.879025441065574
O	-2.958891342260656	-5.958524431967214	4.446147401065574
O	-4.857677312260656	-5.777721191967213	7.768958301065575
O	-1.6689948422606562	-4.537560601967213	9.364536501065572
O	-1.2046278872606562	-1.4472304619672134	7.146637211065574
O	-1.879076072260656	2.032825258032787	8.476682471065573
O	-4.176073352260656	3.8951492280327864	6.075834311065574
O	-2.3226961922606564	6.567363948032787	4.045328201065574
O	-3.1621121922606563	9.846124188032787	2.3421910710655736
O	-0.9642531562606562	8.961579378032788	-0.6867705109344262
O	0.9684348477393439	6.044099708032786	-2.0969798689344263
O	3.2705513077393435	5.3282256180327865	-4.953597188934426
O	4.430234337739344	2.012983268032787	-6.366672758934426
O	7.777620057739345	2.005893178032787	-8.091677858934426
O	9.635155407739344	-1.0797045619672132	-9.342577908934427
O	7.412290887739344	8.190657748032788	4.981501271065574
O	6.717197527739344	4.484584328032787	4.744022331065574
O	8.519917387739344	2.282131408032787	2.304644171065574
O	7.931094017739344	-1.4169144319672131	2.0528577510655737
O	10.543571507739344	-3.5864547719672135	0.26589379206557373
O	9.151975847739344	-6.611629381967213	-1.5996173389344264
O	11.304691807739344	-8.292620651967212	-4.199235498934426
O	9.260088917739344	-3.5010393119672134	-5.950120678934426
O	8.985731137739345	-0.5094204319672131	-3.6474165289344267
O	5.677211037739344	0.7379059400327869	-2.0311797089344266
O	5.740715757739344	4.190019658032787	-0.6239231749344263
O	3.2012660877393437	5.997194008032786	1.3782424310655736
O	2.8750413877393437	9.225607048032787	3.4680589910655737
O	0.2749499027393438	11.662977028032788	4.762683341065574
O	-0.8670405922606562	16.115716128032787	-0.19401367993442625
O	4.173760347739344	13.759812328032787	-2.059641818934426
O	8.750576547739344	10.733266438032787	-4.5108192589344265
O	9.117748507739345	4.374344398032787	-13.149395378934427
O	3.6099846477393434	4.330979488032787	-11.958214378934427
O	0.6815139477393439	1.905531458032787	-11.642474278934428
O	-2.5905488922606565	3.090828908032787	-10.113472088934428
O	-4.958466972260656	1.758374863032787	-7.354321828934426
O	-6.425801852260656	-0.7385586619672131	-6.812380378934426
O	-3.1647657122606563	-2.629552631967213	-6.342894688934426
O	-3.2057685222606565	-6.410695611967213	-6.627562248934426
O	-0.5129434453606563	-8.322664301967212	-4.727622958934426
O	0.014210698739343774	-11.627982671967212	-2.980657528934426
O	-5.239244342260656	-9.283657971967212	-2.3351176789344263
O	-6.8514828722606556	-6.169548561967213	-3.669753678934426
O	-5.494597842260656	-3.181850001967214	-1.8258212389344262
O	-7.593300482260656	-0.044285358967213195	-2.0762185489344263
O	-7.061984702260656	3.447216168032787	-0.6656430719344263
O	-8.860497532260656	2.773535838032787	2.6088873210655734
O	-10.082291382260657	-0.8008079919672131	2.3818203510655733
O	-8.700521512260655	-4.173495921967214	1.2715217610655738
O	-10.046479012260656	-7.566261821967214	0.32103793106557377
O	-8.954291682260656	-10.817542571967213	-1.2067033029344263
O	-9.027328452260656	-10.845567771967213	-4.992496108934426
O	-10.347350192260656	-1.7701360619672133	6.900489181065574
O	-6.892853032260656	-0.6109916819672132	7.838987991065573
O	-5.206523602260656	-0.42776655196721314	11.200408121065573
O	-5.337684342260656	2.526045648032787	13.558189821065573
O	-9.614109372260655	-5.610395431967214	10.186109321065572
O	7.062395697739344	-4.008295441967213	6.960346511065574
O	10.852131307739343	-3.7714879119672133	6.716478701065574
