95

O	0.08748222387719284	-0.015228223664912832	0.9990438021543864
O	-1.979146718122807	1.0242905503350872	-0.2270858598456138
O	0.9706194718771928	-2.7035956336649125	-0.3496456278456138
O	-0.0252705741228072	-2.971448643664913	-1.1214468766456138
O	1.1364763018771928	-3.385310363664913	0.6221457721543862
O	0.24635902187719283	3.2403087663350876	-4.025887137845614
O	1.6920826318771927	-1.5966613936649126	-0.4037511458456139
O	0.06010601287719286	-1.091956853664913	-2.080317253845614
O	-0.8659834151228072	-2.637651093664913	-3.2640487578456137
O	1.134111261877193	-0.8375419536649129	-1.3624187128456138
O	2.376409201877193	1.3760225933350871	-1.7814656618456137
O	-1.1946311211228071	0.006988546335087165	-3.6804574178456138
O	-0.20343078012280713	-2.322633673664913	-2.254947387845614
O	0.559284731877193	1.4638737383350873	-3.985659177845614
O	2.754227721877193	-1.3922229236649126	0.5520027521543862
O	0.37923860087719286	0.36415596333508726	-0.4981765918456138
O	-1.0183868521228072	-0.27655052366491284	-2.472718517845614
O	-1.6870395981228072	1.6535450603350872	-1.6937472928456139
O	-0.9032424051228072	1.3249989215350872	-3.6112747578456137
O	-0.8033965471228072	4.350486296335087	-4.054099977845613
O	0.3830774948771929	1.0093990453350872	-2.760692537845614
O	1.3429170218771929	3.6977764063350875	-4.834083237845614
O	-0.23637901812280715	0.6886613313350872	-1.6418611238456138
O	-1.433474986122807	2.2660534563350874	-2.755371497845614
O	1.189906341877193	1.9669818473350873	-2.149456647845614
O	0.43206798187719286	2.8955336063350874	-1.907109107845614
O	1.2500056418771928	0.33494029633508726	2.2355135621543862
O	-0.40093376312280715	-1.3961669836649129	2.179642382154386
O	-0.3986114031228072	-1.3919549036649126	2.1841574521543863
O	1.8834203318771927	1.5697233973350873	1.4106739221543863
O	1.880748581877193	1.5748080323350873	1.4082921621543862
O	1.0603655618771928	1.3387123901350872	3.372729142154386
O	-0.9789474471228071	1.5861476893350872	1.1668703021543863
O	-2.351577358122807	-0.930203473664913	-0.05053052784561385
O	-2.345269038122807	-0.9347408236649126	-0.04899278784561378
O	-0.5651598669228072	3.096902626335087	0.5399647221543862
O	-0.5801153003728071	3.0986131563350874	0.5484836221543861
O	-1.2006357131228071	2.6611944063350874	2.2453531321543863
O	4.654816751877193	-10.750274483664914	3.466720132154386
O	4.131655081877193	-8.731031193664913	0.33198579215438606
O	7.031097331877193	-7.0065852236649135	-1.2032550657456138
O	6.774188361877193	-3.4110899936649126	-2.255934397845614
O	8.279235771877191	-4.326544033664913	-5.687298427845613
O	5.192781011877193	-6.412967513664913	-6.282235467845615
O	2.5752080118771925	-3.5468474536649133	-5.769371507845614
O	0.785083491877193	-2.2621788836649124	-8.826846217845613
O	0.9409094418771928	1.5678000213350871	-8.810252977845614
O	-2.4163006881228073	3.099441086335087	-7.631002917845613
O	-4.223255278122807	6.403915996335087	-8.356810567845613
O	-5.527750058122807	6.624633456335087	-4.729771617845614
O	-4.858348768122807	4.795970346335087	-1.4508725378456138
O	-6.353681968122807	4.7971746763350875	2.196111292154386
O	-4.978071188122807	3.095105756335087	5.435585442154386
O	-7.381654368122807	2.1728235533350873	8.118132062154386
O	-6.487374538122807	0.2232212663350872	11.248728042154386
O	-10.528492238122809	-2.270198233664913	-5.4691138378456134
O	-7.511034898122807	-3.7032666636649134	-3.729671987845614
O	-7.371614438122807	-4.520870683664913	-0.014024117845613748
O	-4.164765478122807	-5.756894083664913	1.673212282154386
O	-4.709707868122807	-7.445223583664912	5.080430662154386
O	-1.827868938122807	-7.181022273664913	7.488033852154386
O	-2.366872518122807	-7.791637563664914	11.166522842154386
O	-5.111701268122807	-5.462469953664913	12.285872642154386
O	-4.417603408122807	-2.977901563664913	9.541898842154385
O	-6.284029888122807	-2.663787003664913	6.2483150421543865
O	-4.890172038122807	-1.1218068236649128	3.1964031421543866
O	-7.124602528122807	0.03313855633508722	0.30432955215438606
O	-6.338216808122807	1.3235671142350873	-3.296600607845614
O	-8.176391588122808	1.9048503863350872	-6.627920077845614
O	-12.594525598122807	6.911919776335087	-3.846768527845614
O	-15.988476198122807	3.8230910963350873	-1.819131839845614
O	-13.982788698122809	4.145460786335088	1.384336782154386
O	-2.3909289681228074	8.601828466335087	8.085240262154386
O	-0.7252622471228072	10.108433736335087	4.9774771221543865
O	2.0842329118771925	9.060124656335088	2.500485342154386
O	4.977741181877193	8.392482506335087	2.700681042154386
O	4.2765127918771935	5.319961116335087	4.760417482154386
O	6.8168896918771935	3.295823246335087	6.741223812154386
O	6.208109581877193	-0.5121950136649127	7.202943182154385
O	8.195782671877192	-3.725335733664913	7.513270692154386
O	11.430290201877192	-1.6581445036649127	7.108754082154386
O	10.511306401877192	0.19613422633508715	3.870732402154386
O	9.447209001877193	3.6803985563350876	2.7622603121543863
O	6.493886141877193	3.4015538163350874	0.37805619215438613
O	5.6715397518771935	6.444389456335087	-1.795673025845614
O	2.911311471877193	7.169258626335087	-4.381919707845614
O	4.967568701877193	5.799977946335087	-7.336358217845614
O	8.322587851877191	4.706755896335087	-5.935454807845614
O	9.642988901877192	2.794823806335087	-2.878926687845614
O	9.417488521877193	1.5172463753350873	-9.106519357845613
O	6.160576011877193	-0.38782729366491275	-8.966222987845613
O	5.0968966018771935	-3.339162703664913	-11.095934537845615
O	11.728828501877192	-2.9984557836649133	-9.534748777845614
O	-1.5632503361228072	-9.791879483664912	-1.2645467527456138
O	-4.431979348122807	-11.655708583664913	0.3350272321543861
