92

O	0.1908164300333336	0.4966782906500002	1.6984143925666673
O	-0.16635387696666648	-0.6689642533499999	1.1057013125666675
O	-1.2536493099666663	-0.6865302133499999	0.30897987256666737
O	-2.3049507569666665	-0.06730002034999982	1.0496854125666673
O	-2.0199369969666665	0.1861321906500002	2.4655495525666673
O	-0.8948948209666665	1.0234992196500001	2.312419672566667
O	0.0365986940333336	-1.60646346335	2.161042502566667
O	-0.8616496079666665	-2.68827471335	2.0236677525666673
O	-1.2791962509666663	-3.00286364335	0.7131363225666673
O	-1.4842166559666663	-1.97064901335	-0.2704803364333327
O	-0.9684047599666665	-4.41602923335	0.6454501725666674
O	-0.13032827796666646	-5.22604886335	0.7390591125666673
O	-0.2765247579666665	1.69719152565	-1.5725470614333328
O	1.7290281630333337	-1.34627941335	-1.5756056364333326
O	2.3021714930333337	1.1950191466500002	-2.5533425074333325
O	2.2146097530333337	1.9979687166500004	-1.3464969244333327
O	0.6265252530333336	3.5893599966500003	-1.1896693914333327
O	-0.9476525889666665	2.6065339566500003	0.17494046856666734
O	-1.2032313629666664	1.5627248916500003	-0.7095665820333327
O	0.8466396530333336	2.4273416466500004	-1.6181869514333327
O	-0.0082180549666665	3.5210684266500003	-0.022858039433332644
O	1.2477884030333335	1.0002501986500003	0.8823081125666673
O	1.1180819230333336	0.5312431916500002	-2.4701731274333327
O	1.3357524730333334	4.56283651665	-1.5951543774333325
O	-1.4677300529666666	2.90991536665	1.2487774625666672
O	1.3021810230333337	-2.5178298833499997	-0.9134058974333327
O	1.6356146530333338	-2.35217747335	0.28192671256666746
O	1.9188317230333334	-1.04246271335	0.6700704225666673
O	1.6505825030333334	0.17966847065000024	-0.0898452974333327
O	1.1724408630333336	-0.2289522533499998	-1.2727731734333325
O	-2.796236566966667	-0.5107852333499997	3.2733779325666674
O	0.7162501730333335	-3.4372794233499997	-1.6094859144333327
O	-8.675417786966666	3.12538818665	8.537865022566669
O	-7.188709826966667	4.19724501665	5.193867402566667
O	-9.103427196966665	3.57900303665	2.0128477625666674
O	-7.300853456966666	2.14518794665	-0.9874250874333326
O	-8.827476766966665	4.88309992665	-3.1797498274333327
O	-6.9248240069666664	7.45467776665	-1.2025821744333327
O	-3.4500767569666664	5.92084845665	-1.9184109574333328
O	-0.9775503659666664	7.61268133665	-4.229172307433332
O	0.34922961303333344	5.03891982665	-6.649726197433333
O	3.9209907130333335	4.00337577665	-5.926099107433333
O	6.9134918330333335	2.90875995665	-8.137582617433333
O	8.047103113033334	0.35830745065000025	-5.471804947433332
O	6.531702233033333	-1.0040366133499998	-2.2168156674333326
O	7.617748593033334	-3.3791136333500003	0.6525675125666673
O	5.547129253033333	-5.07905439335	3.422248642566667
O	7.314547333033333	-5.96098608335	6.592880522566667
O	5.692161563033333	-7.25663975335	9.788818722566669
O	9.106260553033334	7.60475816665	1.6266830125666671
O	5.652527433033334	6.5223515366500004	2.7404074125666673
O	5.070749993033333	4.214903216650001	5.637241762566667
O	1.7204113330333335	3.19429161665	6.801090772566667
O	1.4226143630333337	1.7899433466500003	10.416185522566668
O	-1.2761403199666663	-0.8250376033499999	10.944796622566669
O	-1.1875351879666665	-3.10778670335	13.925188622566669
O	2.199579513033334	-4.78036163335	13.924191522566668
O	2.5800494330333335	-4.4937408333499995	10.153958822566668
O	4.492504893033333	-1.83427421335	8.235548072566669
O	3.889184413033333	-0.8288395833499999	4.6309609225666675
O	6.493912633033333	1.1453202466500003	2.759228572566667
O	6.479211453033333	2.77943330665	-0.6464749974333326
O	8.596203853033334	5.29857448665	-2.6785861674333327
O	9.273739403033334	6.35790054665	-6.258064727433332
O	14.593726563033334	1.1918461916500003	-2.7793245074333326
O	16.260932463033335	2.36853349665	1.7511487525666674
O	14.397446063033334	-0.6788800433499999	2.970941662566667
O	5.268922613033333	-11.041522113349998	0.7601632925666674
O	4.471586453033333	-10.07205671335	-2.8576190274333326
O	1.5847122030333336	-8.234669403349999	-4.718842787433332
O	-1.3577002229666664	-8.51445582335	-5.026107287433333
O	-1.9572779069666664	-7.94487983335	-1.3627408414333326
O	-5.171695616966667	-8.692449313349998	0.5210359025666674
O	-6.167837226966666	-6.63187171335	3.5800174525666675
O	-9.286619626966665	-5.32093405335	5.329204182566667
O	-9.611902016966665	-5.51090827335	-0.5143939404333326
O	-7.195431266966667	-6.57289442335	-3.2110384774333327
O	-4.412447296966667	-3.95491968335	-3.559388077433333
O	-2.4562204469666664	-4.12958065335	-6.852380087433333
O	0.5262489730333335	-2.06227799335	-8.153985967433332
O	-1.6943930609666664	0.5099260786500002	-9.862938527433332
O	-5.253522886966667	-0.6306569733499997	-9.246597777433331
O	-7.312211156966667	-1.91230714335	-6.299376677433333
O	-12.717449036966666	-5.48911765335	-3.2627942174333326
O	-11.861424136966665	-9.15949801335	-2.836780417433333
O	-7.350760276966667	3.43120783665	-9.678539787433332
O	-5.144069146966666	5.32216887665	-7.294431927433333
O	-5.195608736966666	8.992807856650002	-6.442321317433333
O	-3.2810357669666663	11.713361086650002	-8.227363067433332
O	-11.247852336966666	6.07261077665	-7.761758867433333
O	-2.1433904069666667	7.3483793866500005	6.638764272566667
O	-0.2837685959666664	8.01793812665	9.903365622566668
