76

O	1.1810456222142858	-3.8459268164874993	-2.7560621929553575
O	0.19242613221428573	-1.0010324364875	-0.2527276799553574
O	-1.1205961906857143	-1.2189898364875	-0.02703409095535736
O	-1.6639455637857141	-2.1435912764875003	-0.7517183779553573
O	-0.7817798407857143	-2.8323546364874996	-1.5165527239553573
O	0.5864644422142857	-2.8111318864875	-1.5363777159553573
O	0.9278753922142857	-1.9677235564875002	-0.5959071839553574
O	-0.8766232977857142	-0.45319192648749995	-3.2229432029553573
O	-2.0232483987857144	0.21654788551250004	-3.0069255329553575
O	-2.180455077785714	0.8216613565124999	-1.7916298109553574
O	-1.3396239607857143	0.9715800085125	-0.8458413892553573
O	-0.13115865578571428	0.9119462165125001	-1.4958132489553573
O	0.05679186221428578	0.1231690425125	-2.5093183329553574
O	1.3378400922142857	0.08927568751250003	-3.0439494429553573
O	-0.1746194897857143	-1.0723762264875	-4.172250862955357
O	1.0938224222142858	-0.8193017364874999	-4.014729702955357
O	-0.8965983237857142	1.5060815185125	0.4364383270446426
O	0.4781568222142858	0.2913872735125	0.8383428870446425
O	-3.032078827785714	-1.7927889264875	-1.0008410974553574
O	-0.4160153057857142	2.8653155935125003	0.18177011704464263
O	12.119666582214286	-7.1005769764875	7.441930907044643
O	4.3966884822142855	-7.2224634164875	7.006781347044643
O	2.1957588522142855	-7.0342641264875	4.030157897044643
O	-1.4275918607857143	-7.8806113764875	4.402568007044643
O	-4.102482947785714	-5.6274419364875	3.1148960670446426
O	-5.853273407785714	-8.4994238364875	1.3109014670446428
O	-2.761808587785714	-9.1306081064875	-0.7430663449553574
O	-2.6131417677857143	-5.6229181764875	-2.4180428829553575
O	-3.667024007785714	-4.9793761764874995	-6.0741508329553575
O	-6.054847017785714	-2.0707182164875	-6.3500445529553575
O	-4.258206787785714	1.1688071045125001	-7.349476102955357
O	-5.666372427785714	4.1325088035125	-9.510871472955357
O	-3.5635423877857146	6.543745343512501	-7.409486792955358
O	-1.5087189527857143	6.5238108235125	-4.263010412955357
O	0.7791897222142858	8.7763338635125	-2.366754862955357
O	2.198726652214286	8.4880172235125	1.1098498070446428
O	5.419001382214286	10.247296323512499	1.8702212570446428
O	7.506324362214286	9.9537641535125	5.0460184170446425
O	8.450162262214286	-0.8081668764875001	-12.992019682955357
O	5.140998092214286	2.0912601735125	-10.182770302955356
O	5.0542686722142856	0.5154501677125	-6.842811822955357
O	6.783343082214286	1.5257075815125	-3.6886306929553574
O	6.361493552214286	-0.19216519348749994	-0.3688082229553573
O	9.104667982214286	0.47865738561250004	2.2806459970446427
O	7.858440642214285	0.4332983465125	5.865953317044642
O	9.984694882214287	1.9993674035125	8.526963437044643
O	10.700975382214287	5.5438639335125	7.442505687044642
O	7.501470092214285	5.769755573512501	5.418697407044642
O	7.076627282214286	5.2485763835125	1.7048906570446425
O	3.929373952214286	4.2715025035125	-0.06472047195535735
O	3.684700132214286	4.8651794035125	-3.7920063129553574
O	0.9998334722142859	3.8300025335125003	-6.2854507729553575
O	0.40262712221428565	3.4589557735125	-9.993602592955357
O	-2.3801536977857145	3.2265464435125004	-12.519618382955358
O	-7.173211387785714	8.3849810135125	2.2087457270446427
O	-8.434451797785714	6.6139307235125	4.228298837044643
O	-5.010647477785715	5.5681056135125	5.519331097044643
O	-4.658976427785714	3.8913528235125003	8.897601277044643
O	-1.7272647667857144	1.5347426225125	9.478255717044643
O	-0.8166000347857143	-1.5923906164875	11.400479217044643
O	-6.192981427785714	-1.4234019664875	9.338195417044643
O	-8.150695337785715	1.1340153535125	7.420595257044642
O	-7.046936777785714	1.1495600885125001	3.862516967044643
O	-9.360972097785714	2.7569095335125002	1.3625621670446426
O	-9.071693327785715	3.3207488635124998	-2.384714662955357
O	-10.752392547785714	0.012167281512500017	-3.3107415429553573
O	-11.659661917785714	-1.6545068264875	-0.027315834955357388
O	-10.013199327785713	-2.2715975164874997	3.3632272870446425
O	-8.286630617785715	-6.0279903764875	-3.1059809029553573
O	-6.578786707785714	-8.7546302164875	-5.065129642955357
O	-6.892196757785714	-9.2969125964875	-8.806641632955358
O	3.2279706222142863	-10.2015590264875	0.5673180870446426
O	6.430262452214286	-8.6821182064875	1.8297826770446428
O	6.050246212214286	-5.8953432964875	-0.6034105389553573
O	9.736097882214287	-5.1449923164874996	-0.8286662884553573
O	12.590852782214286	-6.344743786487499	1.2980531570446425
