85

O	-2.2753308062631583	0.9929836505631578	-0.7308014300526319
O	-0.44223032326315825	2.098675359263158	-0.3383443530526319
O	-3.268179196263158	0.032760220263157835	-0.45410196905263184
O	2.7868414237368415	1.7796131382631577	1.4891223109473681
O	-2.5009844462631583	-0.8794798507368422	0.3674343709473682
O	0.22917326973684182	1.625390426263158	1.7864415709473682
O	-1.786839516263158	-0.25300955073684217	1.360019210947368
O	1.310213523736842	0.28969058426315786	1.8851631309473682
O	-1.7325720962631581	1.148332184263158	1.2597493209473682
O	0.07486297073684178	-1.2701636507368423	-3.3270663190526317
O	-1.1544567102631582	1.0426789032631578	0.011386776947368116
O	-2.605780166263158	-0.4897891207368421	-3.0310933690526323
O	-2.396954436263158	2.067957729263158	-1.536593048052632
O	-3.190034456263158	1.2145878412631579	1.4488274609473681
O	2.5558001237368417	2.882450439263158	0.6579451009473682
O	1.158059033736842	3.274378479263158	0.4666615609473681
O	0.22685099573684175	2.333689369263158	0.7439496809473682
O	1.5599861437368419	1.686882346263158	2.120592950947368
O	0.28694213273684177	0.2643673752631579	-1.735865234052632
O	1.6684203737368417	0.6139033342631579	-1.5256775740526318
O	2.4321619137368415	0.5046644792631578	-0.3308138140526319
O	1.4815352037368417	0.1972721512631579	0.6123230009473681
O	1.092962943736842	-1.072460750736842	0.23822614094736805
O	0.7878124337368418	-0.9815435607368421	-1.127053461052632
O	-0.19935638926315824	0.0943130592631578	-3.0342554190526316
O	-1.8094070462631584	-1.8867382407368423	-1.284350474052632
O	-1.3452148802631583	-1.172167680736842	-0.29886941205263184
O	-2.8887136962631583	-1.3683631307368422	-2.071861709052632
O	1.8797349737368418	-11.269674690736842	-10.919816269052632
O	0.2714832447368418	-3.7367041907368423	-10.469956939052631
O	1.9465028437368415	-1.0473810507368422	-8.476256679052632
O	1.0609317137368417	2.5524036992631576	-9.079208749052631
O	0.10745761473684179	4.910148929263158	-6.265419329052632
O	2.6543057137368415	7.421713379263158	-7.368577929052631
O	5.379700963736842	4.912758569263158	-6.675430249052631
O	4.5161390537368415	4.364327219263158	-2.9369744690526316
O	6.862018093736841	5.914588699263158	-0.3385749830526319
O	4.813931383736842	7.8622314792631585	2.256464270947368
O	4.289686373736842	5.791271999263158	5.427541610947368
O	3.9392079037368415	6.906112199263157	9.128738830947368
O	1.4915862637368416	3.989307549263158	9.714312230947368
O	-0.3686207622631582	1.449325725263158	7.544640870947369
O	-2.4885388662631582	-1.610994490736842	8.234268250947368
O	-4.608435146263158	-3.608527530736842	5.852702680947369
O	-5.333659866263158	-7.185811370736841	6.679617150947369
O	-7.076341066263159	-9.785314090736842	4.498505920947369
O	13.269264603736843	-5.033917670736843	6.611654600947368
O	8.549746653736843	-2.934736030736842	7.228864020947368
O	6.7787215137368415	-2.941914910736842	3.861882120947368
O	4.3171759237368414	-5.628372780736843	2.886144940947368
O	2.641804543736842	-5.735335030736842	-0.4317032150526319
O	0.9514783537368418	-9.066226390736842	-1.527873986052632
O	-2.1812004662631583	-8.582447340736842	-3.704129199052632
O	-4.637479576263158	-11.357906890736842	-4.111757969052632
O	-5.598522226263158	-12.479489490736842	-0.6307492610526318
O	-4.974022186263158	-9.111460190736842	0.9214307609473682
O	-1.869523876263158	-7.918475860736841	2.7918428409473686
O	-0.7582535022631582	-4.130866540736843	3.1172803209473683
O	1.6290753637368418	-3.310832980736842	5.744587040947368
O	3.382214793736842	-0.05961270173684219	6.456902870947368
O	6.322738013736842	1.270549489263158	8.559119830947369
O	4.701363143736842	-5.345651850736843	14.888574830947368
O	1.2957664537368419	-5.961177660736842	13.364775830947368
O	-8.075195166263159	5.308134699263158	5.469900080947369
O	-8.990913746263157	6.504344859263158	2.913441200947368
O	-8.553091796263159	3.1785011292631578	1.102659760947368
O	-10.176361936263158	2.561487589263158	-2.2972749990526316
O	-8.584718386263157	0.044858506263157905	-4.709999619052632
O	-7.836541376263158	-0.5649753407368421	-8.404020089052633
O	-9.829754876263157	2.661622199263158	-9.114693299052632
O	-7.894303086263158	5.043578989263159	-6.811719059052631
O	-8.358635946263158	6.764533029263157	-3.4754309390526315
O	-5.281467346263159	6.355888359263158	-1.315994225052632
O	-4.841272096263158	8.745137829263157	1.5951520909473682
O	-2.1307149462631583	8.977999559263159	4.308714680947368
O	0.021065740736841754	11.413096309263159	2.293221520947368
O	-1.7917267262631582	12.001190809263159	-0.9895849480526319
O	-3.6479475762631584	9.938227449263158	-3.6151334390526317
O	3.9682352537368413	10.132105749263157	-2.7478399090526318
O	7.495329893736842	9.333566809263159	-3.798429299052632
O	6.681008083736842	-0.7759041007368421	-8.810062169052632
O	5.679412033736842	-4.445062060736841	-8.590963739052633
O	5.932414933736841	-4.139058510736842	-4.836318009052632
O	6.646010553736842	-7.812093170736842	-4.308746139052632
O	6.411730553736842	-10.729087890736842	-6.690302059052631
