28

O	10.560685280989208	15.211348205378123	16.373543343664043
O	9.358971702221043	13.060882084849055	20.46062857261471
O	8.977243444623776	12.551489928348618	21.4082086596607
O	10.354025931970064	10.476973176391587	16.624865603801403
O	10.404760527270819	12.91419472209118	16.678294646377715
O	10.224639747956001	11.780434734149834	17.249048747482846
O	10.428827040528816	11.802769982700175	18.605967672372206
O	10.100062861604684	12.93200333713968	19.261224374954317
O	10.469131413173805	14.048884656273064	18.61389362037598
O	8.327029054513854	12.844212754648098	13.114840423442214
O	10.492145396488771	14.091743894262294	17.25853175081187
O	9.757764644308892	13.035419174354654	13.115805018152445
O	10.190370595298347	12.57140823424057	14.248808687478858
O	11.230963723613833	13.112190692818151	14.798779857993715
O	11.84294383889988	14.155093662568905	14.296006735866037
O	11.339460887923106	14.668580086334005	13.157400725827715
O	10.47448660949196	13.941548845065965	12.466671474958286
O	11.502078587095383	12.592143735126252	15.965269130776964
O	11.932204902837217	15.898479465262147	12.852117713773747
O	7.72684554675258	12.64698231112173	14.406584257266855
O	7.831988143061177	13.456952119121137	15.499735902174413
O	7.404427827109345	13.056576982111796	16.79222533325417
O	7.28507639051279	11.755162232958558	17.112339816646582
O	7.358405787007111	10.99514927200176	16.014758698148924
O	8.075551952960353	11.422530830609086	14.888539642720735
O	7.355609392171708	11.152366243083954	18.398311488729217
O	7.8270318786462685	10.575745738149934	19.30118977418767
O	13.623858212794524	14.320938948566884	14.92368344794106
