87

O	2.652345549481667	1.1648492798000003	-0.6000422320466663
O	2.301397549481666	-0.2821609691999999	-1.2173056200466663
O	1.0620058094816665	-0.31317573119999986	-1.0259944370466663
O	0.5748509024816664	0.7468884348000002	-0.5545539980466664
O	0.9723476794816663	1.8853244498000001	-0.9831626150466664
O	0.04867676848166641	2.9512518498	-0.8928590630466664
O	-0.8633534205183336	2.8653932398	0.17053294695333365
O	-0.22893856291833362	2.0295781198	1.1395560219533336
O	-0.0902555765183336	0.8106678178000002	0.5748818859533337
O	0.3294479674816664	-1.5122469802	-1.2695654380466666
O	-0.8403290295183337	-1.4066442801999997	-0.35502565804666636
O	-1.6609531905183337	-0.4688662751999998	0.10338587295333362
O	-1.1668317505183337	-0.1783201031999998	1.4675228619533338
O	0.11035692948166637	-0.7296474601999999	1.7404975719533335
O	-0.6994813335183336	-1.8845451002	1.8415514019533337
O	-1.1714278015183335	-2.4211608401999998	0.6027110319533336
O	1.4559514194816663	-0.5729219061999998	1.6161678419533336
O	2.565818799481667	0.04077826080000013	1.8118857119533338
O	3.6296570994816664	-0.7178805701999998	1.4481504819533337
O	3.0545332594816665	-1.7634113002	1.0342278319533338
O	1.8272172894816665	-1.8022834101999998	1.4349861819533336
O	1.3798910394816664	-3.0557412902	1.5559674419533338
O	1.5375770194816665	-3.8347146302	0.4866715779533336
O	2.407146459481666	-3.4631302202	-0.38141332704666636
O	3.3563702894816663	-2.7982963502	0.27131599595333367
O	2.8992409394816665	1.3865129398000002	1.4996170019533337
O	3.387431349481666	-0.6944394601999998	-1.4433929580466662
O	3.339523999481666	8.3309531698	-7.558287768046667
O	4.396817509481666	4.9657885098	-6.214069398046667
O	3.5068575094816667	1.9487376198000002	-8.213023798046667
O	2.0749920494816667	-1.0390663202	-6.4639702580466665
O	4.630577029481667	-3.2630166602	-8.359491478046667
O	7.368159959481666	-1.4250921802	-6.488245848046667
O	6.080686219481666	-2.0834219202	-2.9327939380466663
O	7.798575669481667	-4.546369500199999	-0.7298374710466664
O	5.302217619481667	-6.9892701401999995	0.7210981019533337
O	4.4612108794816665	-6.002738990199999	4.254918821953333
O	3.4649475694816667	-8.295137430199999	7.223915361953333
O	1.1148889194816665	-5.572934130199999	8.466664721953332
O	-0.2251450394183336	-2.3157349002	7.146608341953334
O	-2.299721700518334	0.48924350680000017	8.570769471953334
O	-4.013268740518334	3.3536643098	6.8449838919533335
O	-4.6169978605183335	6.503078099800001	8.782837801953333
O	-5.838860170518334	9.7946190398	7.3357472219533335
O	8.792006559481667	0.9414042828000001	9.694822281953334
O	7.6435630094816664	2.2918459798	6.351220421953333
O	5.398836769481666	5.3066646498	5.963588331953333
O	4.207692749481666	6.5700055798	2.6558330919533337
O	2.8529388294816664	10.1636679198	2.445407881953334
O	0.09446271248166638	10.8241696798	-0.07146447204666637
O	-2.0279466105183337	13.888557179800001	0.2569954329533336
O	-3.4458986905183338	13.8806173798	3.7562907919533335
O	-3.2887299505183334	10.0829274498	4.018281021953333
O	-0.6166699005183336	8.0282889998	5.717902251953333
O	0.16288513048166636	4.321823509800001	4.911078741953333
O	2.2171418094816664	2.4677260698	7.439935671953333
O	3.698181909481667	-0.9896857701999998	7.196934421953333
O	6.188885069481666	-3.1915354402	9.009524891953333
O	2.3942019394816665	-3.4145649402	15.215664141953333
O	0.8237221994816664	2.4052460698	15.435271841953334
O	-10.052208640518334	0.9927594378000002	6.961957031953333
O	-9.335661230518333	-2.6310312602	6.079395231953333
O	-7.854981430518333	-4.490553160199999	3.041272341953334
O	-8.354286500518333	-4.5894098802	0.13234330695333363
O	-7.3257040605183334	-0.9217212601999999	-0.2674367102466664
O	-8.383307670518333	0.9523613438000001	-3.369108238046666
O	-6.337047600518334	3.9194825898	-4.560028768046667
O	-5.139401000518334	5.656927239800001	-7.698600058046667
O	-7.124093880518334	3.0577270298	-9.659136408046667
O	-5.611019810518334	-0.07112911019999985	-8.091187628046667
O	-6.6535933305183335	-2.7515424402	-5.690163788046667
O	-3.953916070518334	-3.4389614902	-3.2198112280466664
O	-4.245889900518334	-6.776994440199999	-1.3877465780466665
O	-1.9639142205183335	-8.2295589602	1.3848333219533338
O	0.42456964448166634	-9.895242120199999	-1.0725580510466663
O	-0.9502843095183336	-9.2486179202	-4.554003678046667
O	-2.2207898905183336	-6.169612540199999	-6.404595058046667
O	-4.191612670518333	-5.466627250199999	-9.514956168046666
O	-5.952956230518334	-2.6819692202	-11.284477558046667
O	-9.531319670518332	-2.1344292302	-10.131413748046667
O	2.971073539481666	-9.7533820202	-6.968427448046667
O	5.168138469481666	-7.543141760199999	-4.878762758046666
O	8.846356549481667	-6.7613366202	-5.107453938046667
O	5.433860079481666	-7.8325783401999995	-11.024986958046666
O	3.877510619481666	-5.942824970199999	-13.914572158046667
O	7.929014749481666	6.056085649800001	-1.4805707980466662
O	8.890729509481668	9.2648600198	0.2950859609533336
