90

O	2.5265632955181823	-2.400426010612727	2.6597486697472723
O	-1.188166033481818	-3.0879803306127274	1.6721044597472723
O	-0.7639842744818179	-0.23009941061272743	2.015548329747272
O	2.7759609555181823	-2.334545420612727	-0.5765137592527277
O	2.048045785518182	0.12950923238727263	0.35319613974727226
O	2.114023055518182	-0.5666077106127274	-1.6938964232527276
O	1.0818917855181822	1.1541753263872727	-0.17365673525272773
O	2.2096955755181824	0.8542607874872726	-1.6409149082527277
O	0.6894246855181821	-3.5801542006127276	1.0856011197472721
O	0.5647512555181821	-1.7529261006127272	2.066830399747272
O	-1.2646599824818179	2.6955074193872726	-1.2908592002527277
O	-2.258234454481818	1.6313435433872727	-1.4513627372527278
O	-0.4492551511818179	4.0899990793872725	-4.345409790252727
O	1.317704125518182	4.785179809387273	-2.9419551402527278
O	-0.4549700175818179	3.2220757293872726	-2.358960280252728
O	0.6152103555181822	2.999034609387273	-4.282465150252728
O	1.9327743955181824	3.4868314693872726	-2.7652892302527277
O	1.481061115518182	-2.809035060612727	1.7745182597472722
O	2.015767305518182	-3.0286504506127274	-1.5672398242527277
O	-0.8362270534818179	-1.0331966206127274	-3.926220060252728
O	-1.5519178444818178	1.1080616963872727	-3.500689670252728
O	-2.251057064481818	-1.0372001206127273	-2.345817600252728
O	0.3217206315181821	0.25911360338727263	-2.6482960202527277
O	-0.5083046094818179	-1.3749444506127275	-1.4527788702527278
O	0.46611369951818205	5.036745019387272	-3.9654151802527275
O	-1.513336561481818	0.41893827638727266	-1.5803923162527278
O	2.3218844355181822	-1.0803088906127274	-0.3808335192527278
O	-0.37535342548181794	-2.8853517306127276	0.36035926974727217
O	-0.29029416248181794	-1.0586733206127275	1.0339569497472723
O	0.7999413955181821	0.7367314493872726	-1.4932614462527278
O	-0.4389821505818179	0.32139371638727265	-3.6899200302527277
O	-0.9599262224818179	-1.5487569606127274	-2.666818130252728
O	-2.229852204481818	0.1756369143872727	-2.8380798702527277
O	-0.6837232184818179	-1.6377981106127273	-0.17206075725272774
O	0.7226741855181821	2.9005337693872724	-2.8495748202527276
O	14.302655795518183	1.5419206623872728	8.680465489747272
O	11.413013295518182	-3.365641120612728	3.475630999747272
O	9.115260375518183	-2.6242387506127276	0.5871326897472722
O	8.619788955518183	-5.255778410612727	-2.016849355252728
O	5.219969385518182	-6.130871730612728	-3.258953980252728
O	6.2689501855181815	-5.904572240612728	-6.8648207202527285
O	7.0644469055181816	-2.2462703306127274	-6.352319950252728
O	3.487255045518182	-1.2503075206127272	-5.195013040252729
O	1.173156075518182	0.5644246683872727	-7.678229640252727
O	-2.398797124481818	-0.7755518706127273	-7.694300470252728
O	-5.057253664481818	1.1168839733872726	-5.525617880252728
O	-8.750553514481817	1.5944456373872726	-5.657532510252727
O	-9.100967794481818	1.3153054803872726	-1.8528148342527277
O	-6.8927364744818185	0.3601990003872727	1.1200299197472723
O	-7.119818204481819	0.3440151943872727	4.851770829747272
O	-4.954538034481819	-1.2849418406127275	7.454778209747271
O	-4.9169076044818185	0.2513140663872726	10.872516609747272
O	-2.6137093544818177	-0.6665709206127273	13.772203609747272
O	-0.5839705469818179	13.841690089387273	-1.1573631993527278
O	-3.262399804481818	11.894344089387273	-3.0677370802527277
O	-3.134472784481818	9.437103649387273	-0.12450161025272766
O	-0.4181034684818179	6.814929989387273	0.5474629997472722
O	0.6725992455181821	5.464704089387272	3.8445558997472724
O	3.272614455518182	2.9454706293872723	4.738066669747273
O	4.764307305518182	2.825731829387273	8.036442459747272
O	5.810966435518182	-0.5614519006127274	9.306187109747272
O	1.011559805518182	-0.7570127606127273	11.615680909747272
O	-0.2126322654818179	1.7499469863872728	9.134501209747272
O	-1.261748447481818	0.8128448230872727	5.618859879747273
O	-3.2354955244818178	3.405992559387273	3.724565439747272
O	-4.673044914481818	3.725902989387273	0.2581845697472722
O	-6.203854024481818	6.143575399387273	-2.3630386602527276
O	-8.071691134481817	6.131510519387272	-5.675096160252728
O	-11.309106404481817	7.534471319387272	-4.281576090252727
O	-10.454009744481818	10.342320069387274	4.6271066297472725
O	-9.709246834481817	7.3876781593872725	6.873361159747272
O	-7.878589084481818	-8.256512490612726	1.9404931197472721
O	-6.037783534481818	-10.495600810612727	1.3631061397472721
O	-3.3375860544818177	-9.048258390612727	3.644953889747272
O	3.504514805518182	-12.437834610612727	1.2261489497472722
O	-0.14815615748181793	-12.553751710612726	0.31389759974727216
O	-1.117746735481818	-9.135917610612728	-0.8892113582527277
O	-4.383601144481818	-8.896002430612727	-2.966730860252728
O	-6.311983114481818	-5.901389340612727	-4.482272060252727
O	-4.554682104481818	-6.185486210612727	-7.846548140252727
O	0.3624825465181821	-10.588094110612726	-4.983838800252728
O	1.5078577655181822	-4.4872246606127275	-9.489288460252729
O	3.6425098555181825	-1.7224913006127271	-10.923720660252728
O	2.4873602655181823	0.8545545093872726	-13.466308990252728
O	4.745843325518182	3.958171959387273	-13.435862790252727
O	10.816310295518182	0.7878715643872727	-2.424136740252728
O	11.269367395518183	1.8984915493872725	1.1680142697472724
O	7.777303805518181	3.2516981993872722	1.1133277097472725
O	8.423237275518183	5.876166909387273	3.7195685697472727
O	11.371854995518182	6.358092509387272	6.044670499747273
