96

O	-2.538886558549999	-3.026900791183333	-1.1669485319000004
O	-0.6100795575499992	1.0247174308166667	0.07158337209999965
O	2.0907403214500007	0.26947832581666675	0.49148845809999964
O	-0.03815455854999916	0.4227161928166668	2.7659414511
O	2.006177621450001	1.9872500488166667	-4.6304736589
O	-0.8992100055499992	0.029922680816666714	0.8659632410999996
O	2.216983611450001	0.5260167548166668	-5.4431358089
O	0.5415380114500008	1.8208779988166666	-0.24611497690000034
O	-2.034266395549999	-0.8366126111833333	0.7346798210999996
O	3.4350350914500005	2.0882392888166668	-0.15000387590000036
O	-2.151442188549999	-1.489253091183333	-0.48839946500000037
O	3.0134544114500006	3.0552881188166667	-4.7778839689
O	-1.9307667245499993	-0.5744256211833333	-1.4282228029000004
O	0.9728296814500008	2.542468318816667	-5.4075652389
O	-1.5806589605499992	0.6802631806166668	-0.9072227059000004
O	-0.023008888549999273	-0.41921726118333325	1.8921669310999996
O	-0.1783642845499992	-1.8416680911833332	1.8596882810999997
O	0.8057088514500008	-2.6731637811833333	2.0038744710999996
O	0.6953937114500008	-3.956770081183333	2.2383581110999993
O	-0.37047392554999914	-4.630665621183334	1.4895189710999996
O	-1.505938149549999	-3.925883581183333	1.6033471510999997
O	-1.3855854235499991	-2.568641061183333	1.8819858810999996
O	-2.643307748549999	-4.828295871183333	1.9842304810999998
O	1.418438471450001	2.4154200888166666	0.6306771310999997
O	2.641672781450001	1.5930721488166668	0.6778123210999996
O	2.0657820414500008	-0.3253104211833332	-0.7829891039000003
O	1.182520201450001	-0.5330287511833333	-1.7605078889000003
O	0.9176955814500007	0.36812930381666675	-2.7933327489
O	1.6933681214500007	1.5647073738166668	-2.9501641989000005
O	2.9682625114500008	1.2134390558166668	-2.6158135289000004
O	2.932325521450001	0.5603620128166668	-1.4463298079000002
O	0.6433677314500008	-1.7296113011833332	-1.1332742679000005
O	-2.148490228549999	-5.9779179611833335	2.6890124210999993
O	-3.065704188549999	-4.200156921183334	3.0322517210999997
O	-3.0250645685499995	-5.4198605611833335	0.9074795010999996
O	0.9578718514500006	-4.828814071183333	3.3099434011
O	2.142258091450001	-5.818445241183333	8.5600333711
O	5.640042671450001	-5.998688621183334	6.9995156511
O	6.236652641450001	-4.180995801183333	3.6676001110999996
O	9.33457606145	-2.612401291183333	5.0640493711
O	7.126588031450002	-0.8254187411833332	7.572675031099999
O	4.93216559145	1.1039210328166669	4.8774194611
O	5.391620531450001	4.779751668816666	4.6667056811
O	5.588932971450001	5.489120678816667	0.9475864010999997
O	2.339979821450001	7.009792258816667	-0.2638076679000003
O	1.569072551450001	9.275513078816667	-3.2017670289
O	-1.5573126305499991	7.3597650688166665	-4.0503980589
O	-3.110077968549999	4.151498678816667	-3.0900465389000003
O	-6.4878946085499996	2.4360232288166666	-3.7093586889
O	-7.590615558549999	-1.169054511183333	-2.9855883889
O	-11.18882103855	-1.9232827511833333	-2.4494239589000006
O	-12.65820323855	-5.270133071183333	-1.3575744169000004
O	-4.196901588549999	12.194149428816667	6.8302084511
O	-5.529781798549999	8.988668838816666	5.2988970011
O	-4.314204188549999	5.518191188816666	5.9927462611
O	-6.5950890285499995	2.4627072588166667	5.9163279311
O	-5.296215458549999	-1.0275738111833332	6.5117434611
O	-7.928000068549999	-3.6729236111833328	7.3602937211
O	-7.155895148549999	-7.186524151183334	6.2074679411
O	-10.15938046855	-6.070207511183334	1.8662556910999994
O	-9.480963238549998	-2.430703401183333	2.5264371011
O	-6.400835248549999	-0.6134000411833332	1.5501700810999994
O	-6.215757668549999	3.1497992388166667	1.3872406910999997
O	-3.3531935585499992	5.515725318816666	0.8882815910999997
O	-2.752386418549999	9.275117448816667	1.2577872810999997
O	-0.44190691654999914	11.987890228816667	-0.07594124090000037
O	-3.004980858549999	14.140641128816668	-5.9154167889
O	-7.626114208549999	11.262547828816666	-3.7491799389000002
O	-12.05722533855	7.535511838816666	-2.0774935589000005
O	-15.325760138549999	-1.8136999511833332	-6.3672008089
O	-10.10673267855	-1.279889261183333	-8.4712968589
O	-7.023724678549999	-3.3968082411833334	-9.0861251189
O	-3.8030382185499993	-1.7928494411833333	-10.1059393889
O	-0.17688930054999918	-2.048506661183333	-8.8768591589
O	1.8699593614500007	-4.164244071183334	-8.4921976789
O	-0.15679269354999914	-5.723096311183333	-5.7257980689000005
O	0.5678082414500008	-9.191315551183333	-4.5279849889
O	-0.27831559254999916	-10.215515871183333	-0.9491996309000004
O	5.150009021450001	-10.137768971183332	-1.5218467989000004
O	5.081494641450001	-7.885945191183333	-4.5065593089
O	4.297588541450001	-4.304988911183334	-3.4414001189000007
O	5.2827690914500005	-1.556552491183333	-5.8757463389
O	4.979925111450001	2.2370349888166667	-5.7057080689
O	8.018279781450001	2.957789448816667	-3.9045932189000006
O	9.74519846145	-0.4449636611833333	-3.6263538989000006
O	8.81599781145	-4.012477931183334	-2.5529085789000003
O	10.180291561450002	-7.503216941183333	-2.9076489489000004
O	9.20829096145	-11.103989871183332	-2.3281078889000004
O	7.254856811450001	-12.676646971183333	-5.1645071389
O	12.43688916145	0.6047748658166667	-0.05458100390000037
O	9.73044206145	2.0771490288166667	2.1384169811
O	10.098821361450002	3.619519008816667	5.5914753511
O	10.74443176145	7.261413858816667	6.3268593610999995
O	14.42729846145	-1.4750499511833333	4.0885609311
O	-1.4594498145499992	-1.455470291183333	10.5841135411
O	-4.759781808549999	-1.4112675411833333	12.4396908411
