90

O	-4.9127871114333335	0.710315817016667	2.1018244192166673
O	-4.265218801433333	-0.2939946659833329	-1.220841599783333
O	2.343110998566667	-1.317190735983333	-1.039355959783333
O	-1.464020679433333	-1.4058317059833327	-1.313980190783333
O	-1.086987434433333	0.35788136101666707	1.9878138992166667
O	-2.346183721433333	0.3181239750166671	2.239019659216667
O	-3.269284751433333	1.251092436016667	1.948596019216667
O	-2.872712501433333	1.839465904016667	0.806315129216667
O	-1.668667713433333	1.5708540300166671	0.300970039216667
O	-0.7821282864333331	1.421711955016667	1.221533409216667
O	-0.9440718474333331	2.294930654016667	-0.775858709493333
O	1.600636068566667	-0.9227509759833329	-2.2211223507833333
O	3.664051728566667	0.216794802016667	0.19008935521666692
O	1.9675226985666667	0.3673369080166671	1.808738769216667
O	1.1905722185666667	0.8755049893166671	0.878534829216667
O	1.745686188566667	0.8862650454166671	-0.31892443578333307
O	2.711630568566667	0.045980522016667025	-0.6451388287833331
O	3.184810728566667	0.19011863401666707	1.4479114992166668
O	-0.13337849143333314	-0.7462802559833329	1.701805899216667
O	0.650612868566667	-0.4793524659833329	-1.394139665783333
O	-2.728601761433333	-0.8870011959833329	-0.9403845377833331
O	-3.002832041433333	-1.4362037459833328	0.24946880921666703
O	-1.874957052433333	-1.4045877159833329	0.979521939216667
O	-0.4991108634333331	-1.1293397559833331	0.503653899216667
O	-0.2780573084333331	-1.126147145983333	-0.747717629983333
O	4.794853598566667	-0.2838492859833329	-0.10326089578333308
O	1.6365004085666668	0.42949941501666705	2.9515807292166674
O	-0.6624412154333331	1.6866200760166672	-1.753105396783333
O	-1.3380278044333331	1.303090211016667	-2.848773590783333
O	-2.074855069433333	0.7164560280166671	-3.539861380783333
O	-4.323843901433333	7.5723898340166675	9.428953839216666
O	-1.581002887433333	7.015734864016667	6.7963084192166665
O	-1.3814494094333332	9.406166914016667	3.9359194692166666
O	-0.746974280433333	7.927621644016667	0.5408146592166669
O	1.9792041585666669	10.490995224016666	-0.12149626578333306
O	3.8898690285666673	8.915031534016666	2.7031847792166666
O	4.069044488566667	5.395061564016667	1.191266029216667
O	7.3824092985666665	4.098558974016667	-0.15190054778333306
O	6.717878338566667	2.577233754016667	-3.571454850783333
O	6.7423815585666675	-1.2347610959833326	-3.4764792107833333
O	7.657313598566668	-3.9275326659833327	-6.052837240783333
O	4.784348138566667	-6.182469145983333	-4.869267660783334
O	1.7301926185666667	-5.734636015983333	-2.5475988107833327
O	-0.9231981854333331	-8.109199125983332	-1.141890552783333
O	-4.144656041433333	-7.247033775983333	0.6942776892166669
O	-5.630243361433333	-9.728817415983332	3.0379788392166667
O	-8.585658551433333	-9.231429515983333	5.3924763592166665
O	12.227882998566667	-6.199969505983333	4.694187039216667
O	8.427763838566666	-6.510927195983333	4.623428769216667
O	5.898243348566667	-3.8072206359833327	5.358427509216667
O	2.566834108566667	-4.561338605983333	6.972671719216667
O	0.07276282856666683	-1.8385293859833327	7.632080819216666
O	-2.743852001433333	-2.598097045983333	10.128725739216666
O	-6.081662721433333	-0.931646665983333	9.431282539216667
O	-9.190390541433333	-2.276118885983333	11.128967939216666
O	-9.425659781433334	-5.957903255983333	10.291420939216668
O	-7.488682821433333	-5.530662685983333	7.032629509216667
O	-3.789771931433333	-6.169036745983333	6.458948179216667
O	-1.6681346764333331	-4.542014735983333	3.686583209216667
O	1.619534018566667	-6.129825905983333	2.8559049692166667
O	4.322669488566667	-4.942750295983333	0.569395599216667
O	7.998407838566668	-5.8147021659833324	-0.21005436978333303
O	10.610222098566666	-5.504975315983333	-2.947351960783333
O	9.764658498566666	-10.724830115983332	-7.123842170783333
O	6.6460055285666675	-12.584679215983332	-2.4735088607833333
O	2.735184258566667	-14.111425315983332	1.841100919216667
O	-8.145299131433333	-8.190282195983333	-4.398714800783333
O	-6.044602331433333	-6.498054535983333	-7.122727300783334
O	-4.774111051433333	-2.8991606559833327	-7.7622010107833335
O	-5.997484491433333	-0.21658137598333294	-8.058632100783333
O	-7.0427324414333325	-0.201427165983333	-4.414752000783333
O	-9.595743821433334	2.224387674016667	-3.1215460607833334
O	-9.525081091433334	3.266360974016667	0.49743741921666684
O	-8.161828401433333	7.604213674016667	-2.5158006207833328
O	-7.134764281433333	5.517511094016667	-5.461285410783333
O	-3.8405664114333327	3.888212254016667	-4.680964250783333
O	-1.938910276433333	2.5227139140166672	-7.774132320783333
O	1.377076508566667	0.5608773850166671	-8.091866690783332
O	3.4542904985666674	3.7372260440166674	-8.354246300783332
O	1.0803875085666668	6.6760066740166675	-8.249287370783334
O	-1.955030528433333	7.750171694016667	-6.1820193307833335
O	-8.126090011433334	11.053468584016667	-4.834652910783333
O	-11.067522941433333	9.040231364016668	-6.164703430783334
O	3.9640752985666667	9.914172114016667	-6.6659290107833336
O	5.314349218566667	7.938925614016667	-3.7607226207833326
O	8.011897168566666	8.879425364016667	-1.305742794783333
O	11.711123298566667	8.215967154016667	-1.732923006783333
O	4.0474079685666675	13.958127684016667	-3.562114130783333
O	2.157809428566667	3.059199484016667	9.404547039216666
O	2.0937213285666667	0.9320453220166671	12.573726039216666
