22

O	10.880875468442111	10.850907454027922	16.337971129949462
O	9.89465144035141	10.409859007490411	17.37269608055659
O	11.249828535874023	10.765772026973949	19.473793234607207
O	11.938772200359365	11.71484869917234	18.65641179092222
O	7.325494060480311	10.416018812417125	19.61243698769794
O	10.382578671337178	15.028960923581554	18.481436866649165
O	9.815877329867552	13.878079125447341	18.82490325539278
O	11.95638508990325	15.904955933726734	17.130204250379922
O	9.491087044025157	12.948382975851178	17.910820442283708
O	10.097106323575753	13.182716353246864	16.718921782096324
O	9.837688920516731	11.919229945793921	15.520225061157136
O	11.356839641587687	13.741856009915269	17.02068332407522
O	11.426220728166731	14.928624261083376	17.688986656708753
O	8.212452448842509	12.406118999822151	18.102416789666844
O	7.965983384802971	12.035240749703885	19.435227474653267
O	8.729521731199334	12.530006216397403	20.447843107495522
O	9.593057893559322	13.547716168556695	20.175597572411494
O	12.44310504794127	13.569861065273827	16.00664894637489
O	11.97258499452261	14.749843640170196	15.272940304009342
O	10.660253249608514	14.303542505235582	14.867980868151749
O	10.428970659971606	9.92069276869075	18.632733346063887
O	11.847366967929819	11.44816678337192	17.24533672077515
