101

O	-2.8413698613209375	-4.077591587460938	1.722594616867187
O	-3.2368396913209376	-1.286917607460938	-0.0014190101328129812
O	-2.6604299613209372	0.20556889053906197	0.17338547486718703
O	-1.7006870073209375	0.377135596539062	-0.7388801701328129
O	-2.2885568113209374	0.937744268539062	-1.841141653132813
O	-1.5565707723209377	1.192213892539062	-2.969510453132813
O	-0.4191775313209375	0.687002920539062	-3.593098093132813
O	-0.08179451532093751	1.4623731025390618	-4.635415143132813
O	0.5897273686790625	0.21679110453906197	-2.753187363132813
O	1.2526252986790625	-0.6581193664609379	-3.279982593132813
O	-0.14235735732093746	-0.8933766094609381	-1.9667026031328128
O	0.9434137786790624	-1.1850180874609382	-1.221285944132813
O	0.44909331867906244	-2.017001257460938	-0.21720450513281297
O	-0.6558508612209375	-2.704362357460938	-0.8253850554328129
O	-1.8077212013209376	-1.9495744574609382	-0.694693533932813
O	-1.3009449193209375	-0.9158100554609381	-1.260082892132813
O	-2.299355961320938	1.9240447425390619	-3.717622323132813
O	-3.5826134713209377	2.063356672539062	-3.583575783132813
O	-4.268646071320937	0.8624234065390619	-3.175092013132813
O	-3.7261962413209373	0.5708331805390621	-1.930586463132813
O	-2.0866308813209375	-3.944069117460938	4.034840046867187
O	-3.4499076813209375	-4.499200787460937	4.022638286867187
O	-3.9606818513209374	-4.815300627460938	2.753699586867187
O	-1.9583266913209374	-2.7905073974609382	2.045421306867187
O	-1.6247832253209376	-1.571847427460938	2.282679266867187
O	-0.48700815432093747	-0.9492132774609381	1.768901346867187
O	0.4415606586790626	-1.535526407460938	2.675150466867187
O	1.6259396586790626	-1.7876757874609381	1.9891656368671868
O	2.1063083486790624	-0.9353833154609381	1.0371450368671868
O	1.1905889986790625	-0.009070090700938028	0.7057634768671871
O	0.11973530367906249	0.19235830553906197	1.494710936867187
O	2.8961251586790624	-1.540399757460938	-0.031207693132812908
O	1.7417228686790627	-2.6048421474609382	-0.05565750213281295
O	-1.5923140623209375	-5.133598947460937	2.235120446867187
O	-0.4276393473209375	-4.466770267460937	1.7738343068671871
O	-0.7577287586209375	-4.678280857460938	0.33572435686718693
O	-2.9863127613209377	-4.368756557460937	0.2665240088671871
O	5.495204458679063	-0.484212164460938	-10.336969763132812
O	4.157077008679063	-4.064460777460938	-10.618470953132812
O	1.9470177286790626	-5.355008237460938	-7.709017243132813
O	-0.6970467430209375	-6.362092487460938	-10.213121303132812
O	-1.1386194303209374	-2.742744257460938	-11.165677463132813
O	-2.2152030113209378	-1.6086720074609382	-7.726586203132813
O	-5.870869111320937	-0.6569439654609379	-6.761400513132813
O	-6.925369671320937	-2.383058247460938	-3.433777593132813
O	-6.997705891320938	0.061994989039061976	-0.31129063813281294
O	-8.569436891320937	0.36184169853906195	2.904074166867187
O	-5.436885311320937	1.616618842539062	4.688607156867187
O	-1.5782154753209374	1.752561682539062	4.112428776867187
O	1.3748252186790624	3.101141912539062	6.059110776867187
O	5.0830336986790625	2.6968345925390618	5.255794976867187
O	7.4563306986790625	5.269003962539062	6.365294226867187
O	11.150712558679063	5.541275692539062	5.492178816867187
O	-7.611047561320937	11.155233722539062	-2.113765903132813
O	-4.278953061320937	9.928909342539061	-0.664891645632813
O	-1.6062125163209375	8.102168822539062	-2.5022397031328127
O	2.0926924486790623	8.240170812539061	-1.9844900031328128
O	4.460369558679062	6.044029592539062	-3.928916833132813
O	8.074926148679063	7.027204652539062	-3.901257313132813
O	10.700377058679063	4.348715032539062	-3.958937163132813
O	10.873277358679063	4.889978442539062	1.3452783168671871
O	7.361113458679062	6.223067362539062	1.168323416867187
O	4.239346068679063	4.2334911025390625	0.853763006867187
O	0.9440910586790625	5.850721022539062	1.674485536867187
O	-2.5917757113209374	4.557760432539062	1.375579646867187
O	-6.250076861320937	5.925820342539063	1.3676413668671867
O	-9.790065901320938	4.610500012539062	1.780362096867187
O	-10.435615311320937	6.281512562539063	5.136771646867187
O	-10.776331741320938	4.360690932539062	8.390170526867188
O	-8.057447011320939	3.852205052539062	10.999272936867188
O	-8.920760671320938	9.633161392539062	9.718999836867187
O	-5.934830621320938	7.688798202539062	8.309747766867188
O	-3.4382897213209374	7.832831462539063	11.203435336867187
O	-4.609167241320938	11.428896122539062	11.361620136867188
O	-0.45251968632093753	10.194110722539062	8.376029376867187
O	9.003203048679062	6.4561585925390625	11.805809836867187
O	5.968713608679063	1.703030492539062	11.204070936867188
O	6.347252028679063	-1.8322586874609381	9.815181236867188
O	3.3708506386790624	-4.101588877460937	9.417920436867188
O	2.0975240486790625	-6.332069447460937	6.526403706867187
O	2.9291480586790626	-8.53422886746094	4.714561086867187
O	5.375832268679062	-6.185672557460937	3.0562249368671868
O	8.228165588679062	-7.541132257460938	1.030635386867187
O	9.675902658679062	-5.481173947460937	-1.7957203731328129
O	7.176627388679062	-9.781636237460939	-3.9148876031328133
O	5.037125118679063	-10.419619577460939	-0.960611519132813
O	2.3951111286790625	-7.952721637460938	-0.8630620331328129
O	-0.7358999090809375	-8.688000207460938	1.2180502068671872
O	-4.1897278913209375	-6.576581557460938	1.500718716867187
O	-5.913607021320938	-7.585883177460937	-1.1733646891328129
O	-3.6119276213209375	-10.16939877746094	-2.768969033132813
O	0.04660416567906245	-10.492884977460939	-3.810062093132813
O	2.5568658086790625	-13.088654977460939	-4.852045753132813
O	6.244473118679062	-13.569510577460939	-5.475570363132813
O	-5.452468771320937	-9.902795617460939	-6.933840733132813
O	-5.372859711320937	-6.161356767460938	-7.237333153132813
O	-6.677633941320938	-4.046521927460938	-10.095041723132812
O	-10.187911801320938	-2.580363677460938	-10.386396193132812
O	-4.082909881320937	-10.131966277460938	-11.827365963132813
O	3.4323115586790625	5.198407862539062	-9.469413263132813
O	5.111286938679062	8.644365292539062	-9.334051613132813
