75

O	1.624860687852727	1.1668262299945455	0.41082900658363614
O	1.806766787852727	2.340478238994545	-0.45987367941636387
O	-0.26001337214727305	-1.3082287510054547	3.469236085583636
O	-2.208099803147273	1.3915992869945453	2.168004635583636
O	0.524155267852727	0.4208971299945454	-0.07534600741636385
O	0.2657818278527271	-0.9336144110054545	0.12546019858363616
O	1.4361432178527271	-1.4626447410054546	-0.10026064641636387
O	1.4285473678527272	-2.677195221005455	0.5172189295836362
O	1.1948470878527269	-2.523680471005455	1.8888043955836362
O	-0.10303867214727291	-2.1501175310054546	2.177340545583636
O	-0.562866916147273	-1.3600040810054546	1.107423555583636
O	-1.726935228147273	-0.7890378410054546	1.5387991255836362
O	-2.235747049147273	0.4943797929945454	1.324931705583636
O	-1.783604064147273	0.9936704699945453	0.08745588358363615
O	-2.6768233721472727	1.8462817189945453	-0.3912891084163639
O	-2.177966379147273	1.9438655589945455	-1.725237614416364
O	-1.160123290147273	2.9392599889945457	-1.6948363544163638
O	-0.16506576214727287	2.300108618994545	-1.0349124644163639
O	-0.528890353147273	1.2707505429945454	-0.2918707239163639
O	2.6620078678527266	1.1778196299945454	-0.5858098894163639
O	9.851499647852728	0.6352829082945454	-12.262508664416364
O	3.5437240278527264	-3.1947471710054547	-9.903612184416364
O	0.4436750978527271	-1.8674923010054545	-8.253693334416363
O	-2.542684472147273	-4.160646371005455	-8.085235234416364
O	-4.272016712147273	-4.418003981005454	-4.711702954416364
O	-7.6166277621472736	-3.7857036710054546	-6.380808784416364
O	-6.383771952147273	-0.3774340070054546	-7.329963504416364
O	-5.746715602147273	0.7729697169945454	-3.7336429244163636
O	-8.059191732147273	3.3887393689945453	-2.029152524416364
O	-9.010276632147272	2.1718754589945455	1.428180805583636
O	-6.958528292147273	3.8810932789945456	4.168541605583636
O	-7.819282142147273	4.752391718994546	7.8314781455836355
O	-4.198339412147273	4.018236678994545	8.867726545583636
O	-1.1529197701472729	2.4428929689945456	7.242221505583636
O	2.459242277852727	2.0436922189945452	8.223720555583636
O	5.089243737852727	-0.1088564470054546	6.617042105583636
O	8.677968347852728	0.9034805619945454	7.131874195583636
O	11.739750847852727	-0.5833706110054546	5.438014205583636
O	-0.40321757214727305	15.574883838994545	-0.19136523121636387
O	-0.549295895147273	11.227829338994546	2.6999416855836365
O	0.2847124678527271	8.418808248994544	0.4201335125836361
O	3.707103187852727	6.843001808994545	0.07997466958363614
O	4.4740168378527265	4.017684738994546	-2.3059609944163637
O	8.092421277852727	3.097327658994545	-3.1462334144163635
O	8.759108447852729	-0.6057269010054547	-3.6618994644163636
O	12.300298147852727	-1.8100360810054548	-3.5048615944163637
O	13.686619147852728	-0.6726269910054545	-0.18762448171636387
O	10.330883747852727	-0.6747709710054546	1.494555775583636
O	8.068044147852728	2.2793995089945454	2.099096505583636
O	4.3417227178527265	2.028362158994545	2.7369013455836364
O	2.455414107852727	4.982291268994546	4.074962355583636
O	-1.213579850147273	5.606406178994545	4.4986032255836355
O	-3.578683952147273	8.460508048994544	5.4192647955836355
O	3.0928886478527264	12.225481638994546	10.741731135583636
O	-1.6923648191472729	-6.1379048310054545	9.152116065583638
O	-2.402444385147273	-8.460306591005454	7.440835455583636
O	0.44338710785272695	-7.613052691005455	5.041581405583636
O	1.6985344278527272	-10.313866661005454	2.612578035583636
O	3.357417517852727	-9.013740871005455	-0.6090685824163639
O	3.7679365678527272	-9.969106461005454	-4.243584764416364
O	-1.393024883047273	-11.245357361005455	-1.934427824416364
O	-2.858474392147273	-10.796144161005454	1.501379195583636
O	-3.6659031621472726	-7.194730491005455	2.109753955583636
O	-6.031123382147273	-6.3666803610054545	4.924391525583636
O	-7.287801262147273	-3.0225265610054546	6.256439665583636
O	-10.361153592147271	-2.9872329610054544	3.992086115583636
O	-10.182887372147272	-6.134986011005455	1.9071689155836362
O	-7.545513542147273	-8.097888081005454	-0.02716320041636386
O	-10.678177932147273	-1.5566591010054547	-2.322804874416364
O	-11.326982592147273	1.1206818359945454	-4.864587754416364
O	-1.656306594147273	1.7155746089945454	-10.617640864416364
O	2.0668721378527266	2.298621918994545	-10.577359164416363
O	1.635148607852727	4.0269170389945455	-7.295335284416364
O	4.699739977852727	6.216519208994546	-7.744059554416364
O	7.519916447852727	6.0186447689945455	-10.227997854416364
