28

O	9.701471177114199	11.295185233643345	17.81495120623214
O	8.934004663283302	13.415425748510449	17.305133346987724
O	11.044214655054391	11.269343484550758	18.277313248522624
O	10.4938491559027	13.488964579199214	13.882595140022095
O	11.243257913902092	11.666367703340129	19.56415414733963
O	9.979079205476811	12.00586381322006	15.856445070085712
O	9.980971862749287	11.954795988485186	20.265164171270314
O	11.46946902623002	12.157959963474136	15.258683980705381
O	9.440536190109677	12.825205390665593	19.262184937839024
O	11.821254650400359	16.243741092092037	19.13161607295727
O	9.824863951479735	12.691183585732357	17.980002896484905
O	9.459674649432275	15.000646898614086	20.71361039843793
O	9.219875363140826	10.425726704780544	18.91659242771942
O	8.074542824090956	12.477054464243592	19.251092756760034
O	9.255511900942274	14.124168474009862	14.178615448651863
O	8.406338771548548	13.56203191679415	15.225136391274361
O	8.997796012436046	12.741735650905184	16.153329538238786
O	10.256925805931779	12.297133574639656	14.54177841262052
O	10.79839371213899	14.730221030826605	17.75094803316898
O	11.06293651204719	15.253571242787391	16.434097412948027
O	11.54441961731763	14.531995302742486	15.410157744709608
O	11.89388521672924	13.260939467719073	15.731460390624806
O	12.555552799581022	13.282752410672959	16.91426486475294
O	12.227226860880757	14.379448654229545	17.69987938373785
O	10.586860429468306	15.875392639653283	18.560919038028665
O	11.411237258125352	13.783032586589913	20.430874698720462
O	11.882788922479849	12.857529806948177	19.733058864822517
O	10.297699786405495	14.04973962060659	21.219471973959248
