84

O	-0.5206121073392853	1.531134155821411	1.8683069915892854
O	-1.6812253683392853	-0.22592549817858898	1.2902424215892854
O	-0.9509376003392853	2.912631109821411	1.5611287115892853
O	1.5157848156607148	-2.567908710178589	1.5457082915892855
O	-0.3460958653392854	3.053060979821411	0.31225618658928544
O	0.5110392356607147	-0.333665841178589	2.3271500115892856
O	-1.7347231873392852	2.8583446998214113	-0.29682682841071456
O	1.6298873656607145	-0.5728126101785891	0.6819827615892855
O	-2.1300843143392854	1.542368259821411	0.12327177458928551
O	-1.4908594533392854	-0.13554359117858905	-3.9936186684107144
O	-1.0519528973392853	0.8470753428214111	0.7821537415892854
O	-1.5995223263392853	2.7427030498214107	-2.7062557084107146
O	-1.4425331813392854	1.419819596821411	2.9820452515892852
O	-2.941278724339285	1.704813249821411	1.3122449315892855
O	0.25695733566071466	-3.1297293601785894	1.4400466715892855
O	-0.7719145006392854	-2.140051340178589	1.8339907515892855
O	-0.6218907853392853	-0.772197610178589	1.8633817615892854
O	1.3726239756607146	-1.249412680178589	1.9027111115892854
O	-1.8121420143392855	-0.07781853917858905	-1.7566239484107145
O	-0.34512987333928535	-0.04663121417858895	-1.9662780484107145
O	0.7907102056607147	-0.42894648017858894	-1.2737424654107146
O	0.6590850956607146	-1.037771570178589	-0.017207373410714544
O	-0.18402365733928538	-1.8437666001785888	-0.6754844924107145
O	-1.4167248483392854	-1.328315980178589	-1.1860868614107145
O	-2.4671233743392853	0.15990662182141102	-3.0100548884107146
O	0.33305380566071463	2.026831059821411	-1.2369802454107144
O	0.5838879556607146	2.060119059821411	0.14947866958928546
O	-0.46933218733928533	2.879535149821411	-2.0446479184107145
O	0.9719428656607147	-6.429305240178589	-14.451961008410713
O	-4.070268394339285	-5.739740880178589	-8.614621428410715
O	-3.510703694339285	-6.250700590178589	-4.898872608410715
O	-6.499533314339285	-6.3329811901785895	-2.5905698884107147
O	-6.533460084339285	-4.18866782017859	0.5556938915892855
O	-7.439127554339285	-7.222299160178589	2.6258097915892855
O	-4.148776024339285	-8.813206410178589	1.6906262815892856
O	-1.8697536743392853	-5.87526013017859	3.0272064515892856
O	0.03241740366071466	-6.58993537017859	6.302359581589285
O	-0.49695837633928536	-3.7904457501785895	8.851702751589286
O	2.497542095660715	-1.3832702601785891	8.848040161589285
O	3.9788638356607144	0.9099928338214109	11.591915591589284
O	4.798080385660715	3.5694289098214114	8.899570201589285
O	3.9181617756607148	4.113532699821411	5.169457371589285
O	5.155414905660715	6.6411224598214105	2.6252057815892855
O	3.8511997756607146	7.39193954982141	-0.8032705274107146
O	6.100800845660715	8.795090929821411	-3.4396652284107145
O	5.297515055660715	9.30439147982141	-7.149718748410715
O	10.873111825660715	-2.813817140178589	3.8238006815892858
O	7.885189025660714	-3.218732990178589	1.5165779115892857
O	7.535643705660715	-1.4426740701785892	-1.7775940384107145
O	4.719402175660715	-1.9054531201785891	-4.118334608410715
O	5.067661135660715	-0.731050790178589	-7.774103848410714
O	1.8468501856607145	0.598206652221411	-9.388965438410715
O	1.9528945256607144	2.728497199821411	-12.435134808410716
O	4.320290545660715	5.562888669821411	-11.685219208410714
O	3.6436039856607145	5.506216729821411	-7.975870098410715
O	5.769278665660715	3.851743069821411	-5.271336868410715
O	4.362412065660715	2.682343389821411	-1.8319499484107145
O	6.631572065660714	2.073008299821411	0.9600361815892855
O	6.057524105660715	0.657286348422411	4.410426791589286
O	8.110463825660714	-0.7442877901785889	7.347935051589285
O	15.176210925660714	4.844766189821411	5.0869825015892856
O	12.848853225660713	6.868877299821411	2.8972617015892856
O	-3.5403434243392855	8.98645873982141	5.250073091589285
O	-6.340408204339285	8.19486147982141	4.599944421589285
O	-5.355431304339285	7.2984898698214105	1.0756054715892855
O	-7.902784174339285	6.702728899821411	-1.7303325884107146
O	-7.071948464339285	4.287125419821411	-4.6108224484107145
O	-8.630508834339286	1.771669529821411	-6.947525878410715
O	-11.997914574339285	2.639358289821411	-5.295566828410714
O	-11.025795574339286	2.030935319821411	-1.6401841384107145
O	-10.179970974339286	4.073443739821411	1.4404315515892854
O	-7.043591114339285	2.780554679821411	3.0774957015892856
O	-6.334045974339285	3.7273542498214107	6.656247651589285
O	-3.409147614339285	2.970719729821411	9.041594811589285
O	-5.022626234339286	-0.20610658417858896	10.443986191589286
O	-8.365358374339285	-0.5887170601785889	8.662968981589284
O	-9.724407434339286	-0.27322314117858904	5.088507061589286
O	-5.419834474339285	-6.067696200178589	7.6345787315892855
O	-3.8119401343392854	-9.44589206017859	7.294058111589285
O	-1.4920424873392855	-10.350665860178589	-3.6544100884107147
O	0.28358584566071454	-9.04980125017859	-6.751963168410715
O	2.5394630956607145	-7.12600443017859	-4.3487384984107145
O	5.420585365660715	-7.078461220178589	-6.804351658410715
O	5.590145245660715	-7.90463615017859	-10.505016858410716
