88

O	0.03388996887000062	-2.2121048811883335	-2.314904907546666
O	1.2546952068700006	1.0179021620116666	1.1026872824533336
O	0.7573528068700007	2.2462678788116666	0.9411812624533337
O	-0.29653395912999936	4.999383088811667	4.026888732453334
O	3.604273996870001	1.9257336018116664	2.041394972453334
O	2.583964886870001	1.0537073606116665	0.8909796524533337
O	3.122966806870001	0.24095610081166652	0.0012643084533336957
O	2.3672914668700007	-0.9256598311883335	0.20565804845333369
O	1.0983884568700009	-1.2059243511883335	0.6268567824533336
O	0.4736882168700006	-0.0044648651883334445	0.9993724024533336
O	-0.28949027012999934	2.6916192888116663	2.823542142453334
O	-0.43519903312999936	2.2025650688116665	1.5820747424533335
O	-1.7723073361299995	2.0613023288116663	1.4232447924533336
O	-2.4903342331299996	3.2127522388116665	1.3939032724533336
O	-2.3563652431299995	3.7129172088116666	2.6921895624533336
O	-1.1187566071299995	3.6933015688116666	3.337059132453333
O	0.6526770068700006	-2.3317822111883335	0.15920816045333375
O	1.559295106870001	-1.7831524511883337	-0.8407916515466662
O	0.9581700468700006	-1.3730295011883333	-1.9200201775466663
O	-1.0382772511299994	-1.3945913411883333	-2.1729798475466664
O	0.5009674568700005	-0.11543008118833353	-1.6278096105466662
O	-0.8886797942299993	-0.39219026118833344	-1.2429132565466663
O	-1.5235226791299994	0.7766422688116665	-0.6735305011046663
O	-1.8535364331299995	1.7465152408116666	-1.4342545555466661
O	-0.46699653012999937	2.1447950888116667	-1.5342488725466663
O	0.5719177168700006	1.2783419508116665	-1.8236110175466664
O	-3.152219793129999	4.119700538811667	0.47470466245333365
O	-2.960792293129999	4.8091383688116665	-0.4643727415466663
O	1.0490863268700008	3.4996138788116666	9.658077772453334
O	-0.6889646171299993	0.26050050481166653	10.481140872453334
O	-1.5926179911299994	-1.9276163411883336	7.473715502453334
O	-0.15103143212999937	-4.899032311188334	9.372068672453334
O	3.2247884468700008	-3.2483744711883333	9.088224612453335
O	3.314547226870001	-3.0483133511883334	5.239783252453334
O	5.640253486870001	-5.438077201188333	3.400350652453334
O	3.5968909468700003	-7.065569851188332	0.5942949824533338
O	4.323915466870001	-5.485600531188334	-2.8245160475466666
O	4.22598117687	-6.675340611188334	-6.378905087546666
O	2.8910417268700006	-3.3669435411883337	-7.660515417546666
O	1.575562326870001	-0.19057643118833334	-6.221520967546666
O	0.4223239668700006	3.2446037488116666	-7.447054537546666
O	-1.6075182251299993	5.869504348811667	-5.563800867546666
O	-1.1221841971299993	9.372940838811667	-6.782509427546666
O	-2.5136760931299995	12.522396798811666	-5.172373037546666
O	14.06028335687	-0.29960699118833345	-4.013785217546666
O	10.92985535687	1.8331039218116665	-4.090166937546666
O	8.58469172687	2.620107898811667	-1.1912548915466663
O	6.713951356870001	5.885384828811667	-0.9464706845466664
O	4.334091666870001	6.719483218811666	1.8850177524533338
O	3.535215966870001	10.422180188811668	2.3793490924533334
O	0.07638077887000061	11.076467098811667	3.8237735024533337
O	-1.4477896101299994	14.525289198811667	3.4934318824533332
O	-1.4947909911299995	11.678960198811668	-1.2009348445466663
O	1.399529936870001	9.462965638811667	-2.2285474875466664
O	1.4663198468700007	5.557490398811666	-2.0422184475466665
O	4.252245556870001	4.032506498811666	-4.136658947546667
O	5.161347656870001	0.3629384638116666	-4.141338007546667
O	7.9541282768700015	-1.8113594211883335	-5.579715477546666
O	8.61761728687	-5.369502731188334	-6.617950947546666
O	6.69977983687	-5.912572851188333	-13.058772627546666
O	6.9306257568700005	-0.06155074118833337	-12.516399727546666
O	6.132721506870001	5.860915668811666	-11.832101527546666
O	-4.892616133129999	6.547433558811667	-10.711810227546666
O	-7.371460223129999	4.777027058811667	-8.423883987546667
O	-7.4203926531299995	0.9985032842116666	-8.231272597546667
O	-7.377014223129999	-1.6240610711883336	-5.388331737546666
O	-8.94691265313	-2.2413943611883336	-2.9688099875466665
O	-7.878156583129999	1.0388353107116666	-1.3581507935466663
O	-9.81525968313	2.3991189388116663	1.5402975024533334
O	-8.05214823313	4.619216938811666	4.038862922453334
O	-9.216228543129999	-0.05082462118833342	6.496438752453334
O	-9.52227985313	-1.9562442911883333	3.2930762624533334
O	-6.118542893129999	-2.5587788211883336	1.9112949924533336
O	-5.948599593129999	-5.433119381188334	-0.7325897737466663
O	-2.8552003731299993	-6.571424691188334	-2.753402827546666
O	-1.8943132931299993	-9.295692901188334	-0.2287876145466663
O	-4.3736429031299995	-9.013292051188333	2.6305805724533338
O	-6.031067503129999	-6.212273341188334	4.640408592453334
O	-9.018621343129999	-5.811584741188334	6.926289022453334
O	-11.070945443129999	-3.1533576911883334	8.602764852453333
O	-13.827648943129999	-1.7163917511883335	6.432016742453334
O	-1.7376469611299994	-10.667215601188333	6.055126302453334
O	1.2711069168700009	-8.487934441188333	5.428027422453334
O	4.619303596870001	-8.423806061188333	7.139306782453334
O	7.623882726870001	-10.507068601188333	6.149212262453334
O	-0.8117742473299994	-9.949321201188333	11.014001172453334
O	6.10090036687	5.026656888811667	6.886223882453334
O	8.070674856870001	8.259677678811666	6.371394122453334
