22

O	9.031130953024176	11.563562740373746	22.193084418247864
O	10.270008068385216	14.498553180903661	17.041871735068494
O	10.71736746146344	14.356011851565205	15.792555690164043
O	9.768112830016648	11.994432609408747	23.29247799406896
O	11.726249620924763	15.229413736524062	15.326730242670942
O	9.402914374183496	10.44692004820926	21.906959071738036
O	11.462530865626608	16.49004142483519	15.675520862870963
O	11.342747461400599	16.590076635154833	17.07132304843043
O	11.050756437585282	15.440029572300432	17.64382246581295
O	12.038343573798599	15.2168964213047	18.720654379251013
O	10.377273890828507	13.912852389232269	19.940835103968237
O	11.647566511133682	14.328354606283627	19.71021601956974
O	9.741357759689569	14.58725267358987	20.922759277652034
O	8.732537259247312	13.680874376332604	21.316351457582858
O	8.921102798144531	12.322272820485622	21.008466421549194
O	9.055335743300711	12.131655909263745	19.681142788407058
O	9.541707179306348	13.210964771549333	19.04586932176143
O	9.594136336822464	13.443008686528566	17.693659732061406
O	12.424373883064042	14.602896046163487	20.80521555649953
O	13.042065890001252	14.60933815725079	18.149349504932907
O	9.615735347300026	12.178640289078206	17.02845714664222
O	11.147461848862841	11.959469928048717	16.853220847391654
