21

O	10.123939572914038	14.489423369087085	14.395265273712235
O	6.772296465163463	13.102371426638607	18.95681684271038
O	9.093923565573535	14.283782868405293	15.330652180179195
O	12.038200794780652	13.86538941232735	13.519611693718858
O	7.6852642421786825	14.30133024914785	15.203079137907478
O	11.298573334015213	12.613013105884571	15.18544948403052
O	6.923621161129541	13.430872030683135	16.079103369044557
O	7.328086163418698	13.486033296273494	17.361546204200806
O	8.727452792708	13.486472656123436	17.420359719006022
O	9.419794751119136	13.307306997104561	16.190294935376453
O	10.560038435833953	12.338328800495454	16.223918247067342
O	10.794935849145647	12.66677584162781	17.650710506495432
O	11.34249739723483	13.650521826265487	18.172466894937415
O	11.834070429501757	14.792913099679605	17.304402003455746
O	13.110486386711766	14.077073606936253	16.550214411289843
O	12.6248433053185	15.291231729392589	16.25980298974719
O	9.731238576776581	11.119566701488047	16.41582146554231
O	10.998672597395899	13.49904067395296	14.178689605257187
O	8.813430433821214	11.319853277092779	17.54225565359821
O	8.849519938693934	11.110842438237642	15.562529422783495
O	10.348260224117372	10.428321652792341	17.380689224258838
