20

O	12.784317851964797	13.409125831688794	17.00573318914169
O	13.107898024564772	12.070083323543528	16.728037896606843
O	9.594965737571592	10.905886986013584	18.620899560270765
O	10.009524664203363	11.312171707308977	15.004366810907289
O	11.49713341078293	13.769602747011177	16.690195330699503
O	10.474426435603961	13.896504557012573	17.618902369687927
O	11.016233086446121	14.521020204285904	18.59442278408232
O	10.022733851210598	14.51588757127997	19.53026404596219
O	9.895288243728398	13.092866298475736	19.872097657107822
O	9.16861475614124	12.37494719729492	18.90501260656533
O	9.425515960263986	13.053539931754386	17.697107040716464
O	8.924318125220875	12.386682891308439	16.632107026679137
O	9.385388636494872	12.34169475233134	15.308072875745317
O	9.999711213967348	13.587395796823905	14.91731367597903
O	9.956894572282462	13.592425685782773	13.604013952497667
O	10.766578496980683	14.468097069590193	13.025185993001884
O	12.055043371548004	14.734571566961977	13.374979422522987
O	12.139477102082195	14.698932335117338	14.726009104739035
O	11.213957360631472	14.010157979804456	15.378629472436259
O	13.76068534029716	13.167755011386093	16.011784523316848
