20

O	12.876130632205282	12.624560597087171	17.611842005941757
O	13.989187496315738	13.291107773344477	16.818794110389646
O	9.551702250215856	10.216327219245379	17.961997884404948
O	10.227292219895391	12.014707613869057	14.683199690875771
O	11.723408757899852	13.407851210921972	17.476112847349537
O	10.58855262777835	13.407094209856934	18.30666033629706
O	11.127663227211324	13.548372262908916	19.48607968237075
O	10.187283835834885	13.036502270277342	20.328538625486104
O	9.904128736342308	11.68581713900732	19.98559674925667
O	9.22617079612134	11.512915868096998	18.765306001448927
O	9.542687523571065	12.607294519173452	17.955774444429554
O	9.171535735219036	12.413149646936866	16.66403748767198
O	9.67789903154703	12.846573676483711	15.424292806316453
O	10.466420964689028	14.03751877900591	15.568906008726312
O	10.649700653752458	14.64307112968272	14.399726047794367
O	11.362401414952295	15.845279176040684	14.704548401079746
O	12.712023845747822	15.47352283248198	14.84554255975764
O	12.747170501744163	14.64838361363425	15.926213391078601
O	11.586938031970202	14.128876238247049	16.316988616186542
O	13.832204404633178	13.470190514127756	18.266104045854643
