29

O	8.628579441197932	12.086785047862293	15.400053266092435
O	8.53461164318666	9.747306423242781	18.25420912225383
O	11.363835849375112	12.227728936394586	16.784756650453364
O	9.797770541300746	10.170521409391785	14.942226975533071
O	10.161830734294153	11.29009608384273	14.165865280305546
O	9.521299944359113	13.55050485811439	14.11494068278101
O	8.472119708578484	13.769624986022604	16.2370729601144
O	7.984573730293854	12.556805652485556	16.43871592870486
O	10.648437019099433	13.01258953379245	17.342423474821583
O	11.670053876704708	14.743169079356793	16.287571918602875
O	12.51482014905603	13.949463555344238	15.597033414089335
O	12.202013015668257	12.655682495881683	15.806980129112144
O	9.370353774312404	12.320643105513959	14.377678867017789
O	9.033648707965346	14.261685525608975	15.100687857573174
O	10.952006188404642	14.237383360294077	17.28625313579556
O	11.012675359114942	10.99263344443425	16.633062541093338
O	8.710278862177965	10.061647312481938	15.791826328419287
O	10.310219931117466	13.906636279796192	13.216602365408061
O	8.042295062431641	14.4329911061527	17.167010070076493
O	8.634125133071034	10.172642703466108	19.532597301646746
O	9.913088326100864	10.230447777026946	19.94905613610135
O	10.8095871396743	10.462623957655167	18.910516162550024
O	10.224246218885858	10.655419298031843	17.66345944328338
O	9.132576693711	10.066411028299262	17.139326622750108
O	10.037469773164686	12.781865088491386	18.53385467041852
O	10.667979305176518	14.535152358335985	18.541604514186183
O	9.979476121899964	13.726028845037934	19.33783830661458
O	10.10580904129586	13.446539762153263	20.79232571172293
O	9.940662343390244	12.86746255051025	21.81276383759221
