28

O	9.191129362114548	12.91747410219048	19.419422398310445
O	8.752926252690848	13.184482874369754	17.316623440989925
O	9.704711525827623	12.230707383726946	20.528313389412617
O	10.811956639794392	13.23605748682664	14.147905945311905
O	11.004098065824198	11.804736404061352	20.044475408087507
O	10.021972228592022	11.707002011098428	16.08653980776047
O	10.987159488529631	11.322292633957705	18.75023518630316
O	11.723344137501895	12.237012192124734	15.8305228199971
O	9.718609974515605	11.355780500282808	18.16284337639962
O	11.658949696058912	16.341926977237613	19.65983920119928
O	9.719892311451524	12.745228769102173	18.18522276420819
O	9.881051313223887	14.830663898995233	21.299324225699603
O	8.014575500112235	13.595663887096627	19.40765736984017
O	9.164037755256	10.517791918954643	19.230646450645054
O	9.526920007760841	13.815030349754156	14.152219010295457
O	8.630958485589687	13.305619821316101	15.188846425210595
O	9.035874054206037	12.522922680545264	16.237564626384945
O	10.595102545510223	12.149348183084902	14.953865187289404
O	10.7276751989014	14.879816841842757	18.16779501775562
O	10.733577125065954	15.340322828371448	16.801706499481256
O	11.440820803963195	14.698400446477399	15.726661354009256
O	11.557438455884949	13.43278449312099	16.29702592266288
O	12.587370335648204	13.643253657387671	17.21558638864178
O	12.199333596664864	14.756154732218349	17.99353185216272
O	10.409063105828626	15.895944444824076	19.10727155021396
O	11.787128539117647	13.634348410680616	20.57901966745819
O	11.640674465798217	12.876334440999418	19.550196709268146
O	10.761588852536937	13.848357013221031	21.5247316721693
