92

O	0.25603605927419437	-1.2365738866564524	0.5127831679435486
O	1.6256183492741942	2.9938874433435476	-1.4525139020564513
O	2.941883219274194	0.2657540553435478	-6.103280132056452
O	1.2025370392741945	0.5197368653435478	-1.9845386120564512
O	2.0136582792741944	1.5117376403435479	-2.3843464920564514
O	2.6800404892741945	1.3754649103435477	-3.6443825320564516
O	2.5061526492741946	0.2950511623435478	-4.435286322056451
O	1.6628612592741945	-0.7023001066564523	-4.039882952056451
O	1.0441480792741942	-0.5621471866564522	-2.786086202056451
O	-0.07163416072580575	0.9055155953435478	-1.4543526370564512
O	-1.1132160257258057	-0.09712756665645217	-1.8786542700564512
O	-1.0501243297258056	0.20629971434354777	-3.3349613420564514
O	-0.37221322072580554	-1.0536047166564522	-2.9318126420564514
O	-0.7925368687258056	2.018870723343548	-1.3350554960564514
O	-2.4954370407258057	1.757145388343548	-2.3068034220564515
O	-3.109370370725806	0.6586639953435478	-1.2015475990564513
O	-2.544471710725806	1.5785891773435479	-0.13959305405645128
O	-1.3727356993258057	1.8050120453435476	0.6554905079435487
O	-1.1667711927258058	0.6560273113435477	1.3101134979435487
O	-1.2973466207258055	-0.6596080066564523	1.0169019879435488
O	-2.578930440725806	-1.266971866656452	0.8209906179435487
O	-3.4506016107258057	-0.7542429566564521	1.7572844079435488
O	-3.0955604807258057	0.09412287434354782	2.8087712479435485
O	-2.0023412867258057	0.8729867553435477	2.330548177943549
O	-1.1697272187258057	3.1063111033435478	-1.0741026220564514
O	-3.565323440725806	1.9482781213435478	0.41137595794354875
O	-5.082520120725805	-1.0185867666564523	1.5816669679435489
O	-5.733056500725806	-0.6548186166564522	2.8640773679435485
O	-5.039553100725806	-2.5353446266564523	1.4396903979435487
O	-5.524888420725806	-0.4161335066564522	0.11935345794354868
O	2.8420667592741946	7.447771303343548	-7.762586882056452
O	-0.9393754887258057	7.927490463343548	-8.092614642056452
O	-3.2791378907258055	5.819559173343548	-6.023159332056451
O	-5.121389170725806	8.881464383343548	-4.7763952120564515
O	-1.8824084747258056	9.998174883343548	-3.084355082056451
O	-1.5945080117258057	6.893163673343548	-0.6613706740564513
O	-2.0743673127258058	7.317518923343548	3.004395077943549
O	-4.434359800725806	4.540652333343548	4.256582067943548
O	-2.4457431907258056	1.8012548603435476	6.158389937943548
O	-3.297315230725806	-0.8063876366564522	8.67149283794355
O	-1.0561271387258055	-3.476887256656452	7.127813947943548
O	0.7047824792741944	-3.841848176656452	3.7826371179435485
O	3.1951249092741945	-6.419486916656452	2.4154949379435484
O	4.426162529274194	-6.885549766656452	-1.1315226040564512
O	7.734939149274195	-8.539198456656452	-1.6388783770564515
O	9.588156539274195	-8.869949266656452	-4.9551934220564515
O	7.031185149274195	4.795213443343548	10.86907605794355
O	7.308649319274195	2.384984283343548	7.960282877943549
O	6.6334359892741945	3.1721258333435474	4.337041337943549
O	8.594390639274195	1.4446715913435477	1.5591604879435488
O	7.977655229274194	2.253790583343548	-2.0539503020564513
O	10.472468639274194	1.1295302833435479	-4.676832482056451
O	9.154285339274196	0.15376117034354775	-8.081720662056451
O	9.216559539274193	-4.910200126656452	-6.3150221920564515
O	9.055340339274196	-3.545284846656452	-2.8002741920564516
O	6.036535649274194	-2.506806796656452	-1.0311476203564514
O	5.6873381192741945	-1.9392436566564524	2.5902295079435484
O	3.0678141992741947	-0.5178280566564522	4.868707937943548
O	2.7632161892741944	0.5788156313435477	8.526851977943549
O	0.09774562927419428	1.0702157810435478	11.18007725794355
O	1.1300874192741945	-1.746984136656452	13.534111757943549
O	-0.9308414707258057	-4.912253246656452	14.028087157943549
O	4.609223849274194	-6.239520216656452	15.107271157943549
O	4.163848079274194	-5.974368896656452	11.31486715794355
O	8.782478539274194	-7.482740496656453	7.760835727943548
O	9.094298739274194	-14.058742226656452	-0.7744519440564512
O	3.5570268192741947	-12.886181926656452	-0.3651119680564513
O	0.5710386692741944	-11.957635926656453	-2.5301584020564514
O	-2.6745881507258056	-10.807581526656453	-1.0245381792564512
O	-5.039440240725805	-7.839913316656451	-1.6533241970564512
O	-6.551721310725806	-6.758594496656452	-3.9646910920564515
O	-3.3010292307258053	-5.774172556656452	-5.690087592056451
O	-3.2277305607258056	-4.856627226656452	-9.333168062056451
O	-0.5894835527258057	-2.509511056656452	-10.712400212056451
O	-5.393824340725805	-0.015374896656452197	-11.03529964205645
O	-7.044922540725806	-2.2078706466564526	-8.441379802056451
O	-5.956323540725806	-1.324466536656452	-4.977659122056451
O	-7.889048250725805	-2.427420286656452	-2.051874092056451
O	-7.5035680307258055	-2.0641729966564526	1.7487580379435486
O	-8.997777560725805	1.3833456553435477	1.9635822979435489
O	-10.327022990725805	2.177880353343548	-1.5337059030564513
O	-9.013146570725805	2.055435873343548	-5.124745162056452
O	-10.210799310725804	2.079241173343548	-8.669243292056452
O	-9.111502930725806	1.4897055563435477	-12.22400924205645
O	-10.570119280725805	6.769117323343548	-1.1782755060564514
O	-7.1089552307258055	7.340020293343548	0.20517406794354875
O	-5.461786280725805	10.526453553343549	1.3461073579435487
O	-5.609311920725806	11.983299073343549	4.825781437943548
O	-2.7689892207258056	14.488431573343547	5.453123937943548
O	-9.901405170725806	10.995354233343548	-3.885722482056451
O	7.016010009274194	7.787848343343548	-3.236136152056451
O	10.796204939274194	7.416511973343548	-3.104927742056451
