84

O	2.1123650415534487	-2.600373687413793	1.080195373810345
O	3.0225766615534484	-2.869781087413793	-2.771809096189655
O	-2.0380228784465517	1.861334322586207	-0.8531347807896551
O	-0.7661247959465515	0.768041668086207	-3.528959576189655
O	-2.6651098684465513	1.806581833586207	1.136800633810345
O	-3.1752772884465514	1.054777889586207	3.293298693810345
O	-1.2141663094465516	-2.436694107413793	0.4924608338103449
O	-1.3452636864465515	0.5781255085862069	2.297860313810345
O	1.1015694615534486	1.091596132586207	1.473153943810345
O	-0.7879406447465515	-2.202463827413793	-1.2732502841896551
O	1.0656484815534486	-0.217387667413793	-2.780921606189655
O	0.1750520785534485	1.012434806586207	-1.051852255189655
O	1.5802441115534487	-0.5416229074137929	-0.6384696011896551
O	1.0900730215534484	-2.420412507413793	2.0852923938103447
O	0.4169988915534486	-1.3167566774137929	2.721273913810345
O	-0.9325349714465515	-0.6665207974137931	3.067474503810345
O	2.3841633515534486	-2.052640347413793	-2.371690636189655
O	0.1228150795534485	0.767436940786207	-2.321830026189655
O	1.8822965815534487	-0.826392237413793	-1.8716555761896552
O	0.5324374115534485	0.003463329586206987	-0.19118154818965505
O	-1.4197286044465516	0.056936760586207	0.24478947381034488
O	-0.7683693677465515	0.243697825586207	1.2766250338103449
O	-2.270623838446552	1.166257274586207	0.06750250881034492
O	-2.4574277284465516	1.214456745586207	2.297785543810345
O	-1.2958398434465515	-1.2025597774137928	-0.4155940331896551
O	0.6072843115534485	0.007622819586206919	1.214965443810345
O	5.3426108915534485	-4.587435287413793	9.738691553810346
O	3.1514141515534484	-1.6363665274137928	8.718008513810345
O	4.795843491553448	1.704852984586207	8.143600173810345
O	3.8367890915534484	3.635633442586207	4.982923903810345
O	3.2857767315534487	6.725196322586207	7.217331073810344
O	0.4427664715534485	4.898985822586207	8.903977283810345
O	-1.4919500144465516	4.107781142586207	5.6143524138103444
O	-4.652889988446551	5.968842862586207	4.941204863810345
O	-4.618371698446552	7.473126562586207	1.507110423810345
O	-6.749414168446551	5.424341232586207	-0.8148402551896551
O	-8.792200968446553	6.423444132586207	-3.9680703261896553
O	-7.863552458446552	3.049465222586207	-5.563592426189656
O	-5.434717268446551	0.19707662558620698	-4.686423616189655
O	-4.858509968446551	-3.2455288874137933	-6.252006806189655
O	-1.9593946084465514	-5.621526477413793	-5.641185636189656
O	-2.6196018784465513	-9.298732057413792	-6.173976686189656
O	-0.23331209144655152	-12.124722357413793	-5.256520396189655
O	-12.359894278446552	-2.137633537413793	1.8922640338103451
O	-8.794112388446552	-2.4964092774137927	3.193389503810345
O	-6.812388138446552	-5.649086377413793	2.683036893810345
O	-3.4100726684465514	-6.058767937413793	4.042415833810345
O	-1.8273991584465514	-9.510103757413793	4.234623283810345
O	1.9170021215534487	-9.756788957413793	3.7534889738103447
O	3.4454586815534483	-13.097951357413793	2.952722283810345
O	1.6646128015534485	-14.425218657413794	-0.11113467718965508
O	0.7715863615534486	-10.917990857413793	-1.363637238189655
O	-2.5468799384465513	-9.165232857413793	-0.8951189841896551
O	-2.9934591184465513	-5.454607697413793	-1.091431070189655
O	-6.348916538446552	-3.929734177413793	-1.444407606189655
O	-7.573689108446551	-0.37158217741379296	-1.246964589189655
O	-10.929503378446553	1.4793530285862069	-1.0984111871896551
O	-13.488541278446553	-0.9409389474137931	-7.492814916189655
O	-11.772065278446552	-6.686113617413793	-6.9432157261896545
O	1.3100661015534487	-4.432469567413793	-11.081030546189655
O	0.9898469715534486	-0.648732947413793	-11.225493546189655
O	2.0730690215534486	2.300610942586207	-8.939777146189655
O	4.631599121553448	3.3186123425862073	-7.809539506189655
O	5.077826441553448	0.196195541586207	-5.783710436189654
O	8.376219051553448	-0.785715547413793	-4.125498706189655
O	8.401615231553448	-2.890239527413793	-0.8971492131896551
O	10.257293121553449	-3.3403730474137925	2.336567983810345
O	12.601662121553447	-0.5922297474137931	1.075237803810345
O	9.978651021553448	2.090030422586207	0.33463852381034487
O	8.424488721553448	3.692768982586207	-2.6947625161896553
O	4.643822321553449	3.845646312586207	-2.115059546189655
O	2.8161405915534483	6.304602322586207	-4.3478553661896555
O	-0.8948137794465515	7.226111952586207	-4.675326156189655
O	-0.7120368015465515	9.984341652586208	-2.123184526189655
O	2.9046735815534483	10.208400302586208	-1.0091138831896551
O	5.674234961553449	7.786850412586207	-0.0043280451896551275
O	12.278141321553449	5.492286552586207	1.002094103810345
O	13.696065221553448	4.025587282586207	-2.186959146189655
O	2.2244014815534485	12.071842042586207	3.148064773810345
O	-0.3604909754465515	9.566704792586208	4.285489753810346
O	-2.3592829384465515	9.582918072586207	7.476913053810346
O	4.076434981553449	11.935612342586207	7.873174783810345
O	-2.5760010684465513	-3.7442656174137925	9.171380483810346
O	-4.056650238446552	-7.170723867413793	9.839838153810346
