20

O	11.420013727994196	15.648472374341722	14.225901088696151
O	12.375661193831307	13.66964407659788	13.278804469592588
O	8.112009126922032	12.358656614092986	14.70723638917869
O	11.937779556960912	14.427995216424668	14.351051580159835
O	12.570445797485972	12.779089022076395	17.209363128586702
O	9.864329845668111	11.127513966124482	15.369684637464847
O	11.334290628100353	13.73036102436044	15.403848753463048
O	10.012887311860839	13.648611420578929	14.885725730649558
O	9.44626845985104	14.897521252079894	15.214384122622553
O	10.452415770590312	15.919794373804415	15.198795254097796
O	9.383623868925923	12.808995130319941	17.209920178320058
O	9.5921986688644	14.16501984748947	17.456147505478338
O	10.252871263356138	14.563070630162832	18.575263268086005
O	10.293884196183408	13.696793937547515	19.595641825750285
O	9.901403915412669	12.422159312831505	19.356902274834255
O	9.55112482363197	11.949297251859711	18.16018365409942
O	11.901694241707178	12.79475833074193	16.231622904680297
O	11.226824289632685	15.617599638906537	18.44217519379486
O	9.194625956296147	11.78311815621964	20.48319005041144
O	9.151767045422455	12.338661859576991	15.591547330930624
