28

O	9.019893355111314	11.581644847010343	17.433977873911868
O	8.863440447982152	13.571614859752493	17.651637523101897
O	9.918577322141463	10.59180407503452	17.686211706392545
O	11.48971629997296	14.25509824301518	14.82269718063777
O	10.294356278070365	10.478126327681508	19.009461440619177
O	9.914846751827122	12.618387876135815	15.83753233700824
O	9.22977615261981	11.022527703504117	19.88549021009579
O	11.785174307711822	13.008122708299236	16.632680329368682
O	9.142867932489576	12.384065072167669	19.498813666844594
O	11.715737403857046	15.892946121894003	21.216087837239105
O	9.576642945617705	12.575394127651489	18.16909112978262
O	10.368122453813418	12.177853996584824	22.114957579959906
O	7.8477450550933305	11.016792161994667	18.058198772031997
O	7.778539301196835	12.79514548528322	19.50916908008507
O	11.009280084333302	15.39766942878805	15.440859742879468
O	9.701500192335752	14.935399823667373	16.02178420385782
O	9.505152946506282	13.669715070715426	16.511853707506944
O	11.08723622011055	13.087328005225514	15.421044394260644
O	10.360899103602907	14.432275596929953	20.317437739929485
O	10.424574535183828	15.256493278715103	19.14727645719242
O	11.230737712479545	15.203923346972383	17.997116050760134
O	11.611501623698496	14.066179249161491	17.315315944895385
O	12.297449018504441	13.889658870908507	18.537156130808793
O	11.758552365691976	14.020431793970056	19.833732372397023
O	10.61790806644992	15.055990251173608	21.60340453815586
O	11.377360002903279	11.958135606298848	20.171710164190756
O	11.315319544323192	11.359311199834766	18.96068543829885
O	10.944055891171557	11.251007114765677	21.31721330959934
