26

O	7.54870192047108	14.049454869847866	18.155020180144607
O	7.375455042873494	14.107209193979934	16.801555850438742
O	8.332723871005303	14.455727170056633	15.975930213881977
O	9.48086154493373	15.00231361013398	16.220033086185616
O	9.413839473426185	15.199937964297009	17.59424198032504
O	8.549883641253366	14.924449017149255	18.56048483125104
O	10.647594024207534	15.068022587485789	15.432215593600674
O	10.754565547819343	13.887918090550608	14.774993845115322
O	10.505448913328646	14.084390670889148	13.588016896190794
O	11.022892173531282	12.602130121208171	15.003017167681595
O	9.980868035567411	12.088409992739663	15.614076766663345
O	8.740167187171368	11.777676334311723	15.352255026006693
O	9.184239331708197	11.553593089554292	16.62385179426905
O	9.567561571478011	11.7605454862834	17.891387532292434
O	9.25615764697076	11.437843318977517	19.169926776626173
O	9.822899113208194	12.266091238733852	20.138404832573443
O	10.738829451061987	13.169635040039786	19.580786189251764
O	11.126060097032138	13.222474133852549	18.270212111959356
O	10.779240327371951	12.247181337078947	17.521391814394867
O	11.776684086347366	11.551213387957535	16.796644542735887
O	12.24722294813599	13.807764625370105	17.543600299823048
O	12.981312499380948	13.491659279533192	16.62133775598608
O	12.267003386851131	15.174223879278847	17.86027282142738
O	12.053658810965393	15.431972121175034	19.29694634723486
O	6.663232723524559	13.705212014733902	19.755621599089633
O	8.07312511884479	10.816844872968108	19.215497339908715
