24

O	10.015109998876031	12.32005058648419	15.469936081084736
O	11.68757121494274	13.520833758324397	15.375237681780032
O	11.356996465057161	12.353981109537392	17.338122609323854
O	12.264921211366824	15.503745907609291	17.856363712919944
O	9.79108870256491	13.171867269652925	14.473713299605116
O	10.038766446097352	15.330252981281005	16.572913350572627
O	11.13586846549792	14.522702440314623	13.213415888579643
O	8.526817722568612	13.468449426099498	14.176174225159436
O	10.957476543719777	15.455464785672351	15.377677010952603
O	7.51021362040898	12.669613990234293	14.620661829347174
O	7.814122550389932	11.512575716278764	15.235635656994036
O	9.054894591937217	11.462678624216949	15.765012865311181
O	11.155181319915185	12.612583745980178	16.175284914185465
O	11.030541734826715	13.70441796761265	14.14021077582955
O	12.830703709441025	14.16840202482593	15.693132474149364
O	12.274552996922482	15.442572847928814	14.991525867439407
O	11.269948779962434	15.314045926122759	16.69249276096077
O	9.264524500481423	14.480686206872306	17.237322036679966
O	7.955288689989422	14.258243023788209	17.180188621166945
O	7.43263460058553	13.23985515200279	17.89510469928029
O	8.267214839972056	12.551897177733377	18.70315613144432
O	9.194165626719279	13.329370208632671	19.312795535559136
O	9.653702016763676	14.345014727841994	18.545085730528253
O	7.668142928490351	11.08829394144408	19.912282614904292
