24

O	8.18049800269476	11.599734036666002	15.372338710340488
O	8.888102703126528	10.503704435102446	15.106168008456974
O	7.983133582651225	12.524593399969996	17.816907380818172
O	8.041659593624694	9.682888892521461	16.974560813171088
O	11.06380193689752	10.567038831365231	19.248529305240904
O	11.788222103830721	12.965907935291472	19.44822450157161
O	8.522657787342107	12.572018590515958	19.092156469137038
O	8.862044712129418	13.68376684577085	19.647532481178853
O	9.256339855912945	13.707209739372134	20.923947485069398
O	9.407963092240884	12.511254884391999	21.546012395225883
O	8.816888174191266	11.432841326962233	21.016177384408337
O	8.511249223383228	11.41508330843251	19.714637149505077
O	9.193589714929928	12.176308366955706	17.13907895017549
O	9.176454694674417	12.345467969773956	15.83339618997285
O	10.20387175157116	12.528827454050994	15.029390467194329
O	10.335933669760214	11.94929824103633	13.958039785736887
O	10.93029894228222	13.380117850890294	15.697886676936601
O	11.08317929251066	13.14189101153987	16.946792575088992
O	11.2153602176545	14.093086582980895	17.71826090253441
O	10.4882996636579	12.21247163783909	17.661916455642867
O	9.30636264461309	10.125928622127187	16.400459609518553
O	10.912525237843713	11.917498542219196	18.90289295013889
O	8.962465803267571	14.572815154044724	22.080171702237628
O	8.594000127216514	10.516337360403522	22.118066006282955
