74

O	-0.43188560558333344	0.5464534369592595	-2.264849536185185
O	0.40755857841666665	1.5886475657592596	-2.826111706185185
O	-3.3499000615833334	-1.4463825182407404	0.01908306181481506
O	-2.1249083745833333	2.0529823117592594	1.355123283814815
O	0.03196631841666653	0.29098939675925956	-0.9688333341851849
O	0.0022088784166665043	-0.9342950382407403	-0.2697321439851849
O	0.49568346841666666	-1.7712432882407407	-1.155474038185185
O	-0.03755164158333346	-2.9843878482407407	-0.8322282741851849
O	-1.4529543675833334	-2.9427740182407405	-0.7389301191851849
O	-1.9917965305833334	-2.1425434682407407	0.2878521808148151
O	-1.0573077785833334	-1.1373006982407405	0.5627581928148151
O	-1.5917741175833333	-0.18128788124074047	1.366019253814815
O	-1.2858957561833333	1.1716897937592594	1.587060323814815
O	-0.037528101583333306	1.5635227507592595	1.016345013814815
O	0.48735566841666667	2.6401945917592595	1.5646513438148153
O	1.8304884984166665	2.6879609817592596	1.046965783814815
O	1.6803016684166665	3.2566413917592594	-0.2388464276851849
O	1.0567216984166667	2.2834691917592598	-0.964717399185185
O	0.28280301841666655	1.4567139017592594	-0.2807150616851849
O	0.6193706284166667	0.18806183175925956	-3.172501966185185
O	13.391183138416666	-1.2419093682407403	-7.972815996185185
O	10.334149738416667	-2.8360380782407404	-1.025800262185185
O	8.117832018416667	-0.6963312682407404	1.1151815938148153
O	7.602736828416667	-1.7735092382407407	4.669533923814815
O	4.042344348416666	-1.8126549882407406	5.941329653814815
O	5.142730408416666	0.14344254175925958	9.037219633814814
O	6.0341754884166665	3.0096347817592592	6.766686813814815
O	2.5225434484166667	3.4600396417592596	5.326060363814815
O	0.2652977884166665	6.425537231759259	6.196214843814815
O	-3.2017728815833335	5.21977952175926	7.172770373814815
O	-5.695516101583333	5.701442661759259	4.307183303814815
O	-9.497274361583333	6.3526638117592595	4.332459063814815
O	-9.871720601583332	4.25728437175926	1.1418112138148149
O	-7.6371994115833335	1.9395095517592598	-0.8664854161851849
O	-8.076999121583333	0.16249560875925956	-4.180190366185185
O	-5.939360061583333	-2.5625250582407406	-5.634499036185185
O	-5.913390311583333	-2.9480946682407407	-9.364199986185184
O	-3.6471303315833334	-5.20884318824074	-11.423235326185186
O	-1.1717812015833333	14.775066591759261	-5.486511636185185
O	-3.7463033015833336	10.45092422175926	-4.116315896185185
O	-1.1659537985833335	7.81672683175926	-3.5390750061851852
O	-0.1887610415833334	5.215081251759259	-6.110102206185185
O	2.5040496584166667	2.6493741917592595	-5.498306116185185
O	3.9626446484166666	0.5682187755592596	-8.361725086185185
O	4.797990278416666	-3.0439371482407407	-7.491382546185185
O	5.317782748416667	-5.43563177824074	-10.341551826185185
O	2.210190668416667	-5.28731307824074	-12.469342026185185
O	0.007467978416666687	-4.301976978240741	-9.579860306185186
O	-1.1562164495833334	-0.8181137482407405	-8.702069266185186
O	-2.3893081315833333	0.20308467975925953	-5.273134216185185
O	-4.204766091583334	3.4409417917592595	-4.770474366185185
O	-5.2762168415833335	5.286148411759259	-1.6596419061851848
O	-6.703083271583333	8.62239261175926	-0.6222611201851849
O	-9.063483611583333	-6.10442594824074	2.530886923814815
O	-7.299169681583333	-7.759808598240741	4.243545303814815
O	-4.559587791583334	-7.7231597282407405	1.602941083814815
O	-1.7794753575833333	-10.36727320824074	1.7724325938148149
O	1.5927680184166668	-9.43524800824074	0.17410924781481507
O	5.319923878416667	-9.95235650824074	0.5941698938148151
O	2.2824493384166664	-9.57061170824074	5.540089123814815
O	-1.3707036410833333	-9.03387414824074	6.276815373814815
O	-2.3345015715833335	-5.46765325824074	5.5792245338148145
O	-5.548904741583334	-4.2214483882407405	7.116149383814815
O	-7.289325881583334	-0.8388778682407404	6.872249203814815
O	-5.5626246615833335	0.5632422779592595	9.971573473814814
O	-3.260688511583333	-2.1513258582407406	11.229711273814814
O	-0.7979078855833334	-4.6646701682407405	9.768301673814815
O	0.49501115841666654	2.8074609817592595	10.528688973814814
O	2.6918567384166665	5.846081121759259	10.443253973814816
O	9.892347338416666	3.6581637517592593	2.031499043814815
O	10.416372438416667	2.8679664517592593	-1.6204211261851849
O	7.012636948416667	4.262875471759259	-2.259928576185185
O	7.747010968416667	5.226013591759259	-5.846631606185185
O	10.645630638416668	4.326019251759259	-8.066130636185184
