27

O	7.133492923574164	13.28016051285094	15.298196551639743
O	7.8366160376260385	14.134906175904929	16.192564053972465
O	10.634886630371485	15.031826365452872	16.427675684533174
O	9.030487784445937	13.445479116331441	16.340178610840173
O	10.296049326620139	13.28706530242672	17.803544850820963
O	12.221391761688121	14.515432020330582	13.555979430138098
O	9.860466127466454	14.2742655167594	16.9639562329541
O	10.08684230651281	14.682226614949094	13.573964189961611
O	11.512333326739398	13.501279410665695	18.423234908699143
O	8.962998664496313	12.912597496409981	14.28136825002208
O	11.543103704631095	13.045248081003413	19.653623687265284
O	10.420574745200689	12.484719257461698	20.385272171296656
O	9.647116397132905	11.711060093147085	19.425023603400035
O	9.219050296182225	10.460522757812546	19.639245251958712
O	8.627349245151423	9.79902034270916	18.56286082323482
O	7.76307140797014	10.635218562270213	17.851677978143627
O	8.223014588548196	11.9433942767047	17.757643275182673
O	9.434986562743985	12.316314983787793	18.239421756596617
O	8.60488218717898	15.013285043383089	15.444420660666063
O	9.084932766831853	14.22775324938461	14.297841562640016
O	11.154838764383806	13.883730111592032	13.562019724618278
O	11.078711128566802	12.772350234300294	14.354312170361759
O	12.067354624112621	12.500276434535069	15.219075093549142
O	11.670903011074873	11.435713835853722	15.96887120246371
O	10.595247421924233	10.614864573565056	16.013547788589747
O	9.665303854496031	10.88423020777393	15.074260653716056
O	9.932589594688872	12.05090904885256	14.351114080427838
