38

O	10.253830406858173	11.97265306771337	18.642352196408513
O	11.109610685974873	10.441441455022742	16.698649666574525
O	10.407008864628652	15.001575877123221	17.84964992994232
O	11.132644511045285	14.977446882100264	16.785652708805966
O	10.880443081683678	15.460325167228437	18.850664973395734
O	7.092197584585044	10.272081700540099	13.847998350034013
O	9.265777940033306	14.350817334764562	18.000796237519108
O	9.883929144399161	13.57244693350485	15.823417795645167
O	11.039693662516777	14.788623956699118	14.469477467307417
O	9.084132668037915	13.6534733076174	16.8661799231171
O	6.876578444135717	12.333650753328582	16.80663754617533
O	9.928793387129453	12.417581172502198	13.821726739099816
O	10.63751605142208	14.577312266168729	15.631414678418297
O	7.691603423542341	11.956040743628941	14.093470912397576
O	8.56959797539339	14.419118936938478	19.263365499676112
O	9.39086496338723	12.08881772852433	17.333719525247883
O	10.273226062365	12.480311150738238	15.02485631616357
O	10.136234821477183	10.331891459383858	15.405234887074714
O	9.079484625851617	11.370837805399455	13.92096345022411
O	7.42430723450248	8.854746310684012	13.383089283444107
O	8.414555493838051	12.014169879227428	15.19442541359698
O	5.728003408144924	10.515020496009434	13.467404057263938
O	9.409721802814403	11.788210505281889	16.029272204593887
O	9.321917637806115	10.132840178399425	14.475840669216888
O	7.469521385167308	11.386939417140699	16.003770460620174
O	7.725975517279289	10.195337582037599	15.905913300048487
O	9.487606939345905	11.895268366965064	20.194721148402667
O	11.663994106858993	12.71967975982595	19.638717843546587
O	11.661390615899235	12.716000309931312	19.643534929210784
O	8.131648734175187	11.26152029782671	19.58973797637892
O	8.13073760558087	11.256430915828155	19.58628362008567
O	9.500750271451091	10.687111955605545	21.131185984977346
O	10.423274147213286	10.074733616983872	18.327656518927697
O	12.401743343170875	11.958771399972361	16.832911690568434
O	12.399132790058301	11.965119854286812	16.836865072768052
O	9.175927873073006	9.061972507111815	17.812823095234307
O	9.190007465554983	9.05222581773606	17.81525818897425
O	10.41171347335193	8.803036746309452	19.194056983814537
