32

O	11.256683780818268	12.909426119542127	17.85590139576064
O	10.280434481638634	12.264285207639473	18.540249606417348
O	9.040761725799916	12.793599045229518	18.558229992842325
O	9.19437017485507	14.165059735154639	18.922682296639106
O	10.530149714371202	14.552705594041553	19.386962063371975
O	11.267107536701786	14.209540525702632	18.233929928884116
O	10.969621482748801	11.863933279961865	19.72286499344829
O	10.067626021616793	11.802370563997027	20.808522229738962
O	8.723346113447088	11.50526669624684	20.499580741369254
O	8.114429625668102	11.987792503110335	19.28657138553709
O	8.4674444402885	10.3862861172597	21.383100151492265
O	8.795600468507658	9.308631024519295	21.696532355563335
O	8.75569952872074	12.979512081587844	15.386287179805139
O	9.067926090638315	9.647578343732349	16.830482239665002
O	9.30480050210147	10.501963827937573	14.192949871282044
O	10.414364606850807	11.434078439313803	14.287295937402293
O	10.069099259364359	13.614217522317505	13.832412568952757
O	9.988383608411402	14.566201420746347	15.92844563500361
O	8.873572566446288	13.83282807446734	16.324135503634107
O	9.547032421005586	12.6046238164839	14.37142190048578
O	10.606609527664679	14.391134399858712	14.768625372541372
O	11.347438458027232	12.2045165147847	16.618294868557776
O	8.526298622124855	10.973508238604555	15.203476697066565
O	10.411095183755434	13.577906201579836	12.608975552127681
O	10.617022802826332	15.46121830458712	16.493604266772174
O	9.032672738320382	9.43656001934059	18.225998612530727
O	10.19969345485371	9.66686824216764	18.616459269657
O	11.012811570922356	10.391367574964942	17.74458780722057
O	10.594107131230786	11.106040155835005	16.537540222916594
O	9.290430955729006	10.834023991225909	16.391443270783924
O	10.539125786693285	14.932638146435897	20.650485824742212
O	7.912679444519551	9.077059733551263	18.76414763837135
