28

O	9.358621840582032	11.347262305186735	17.59187154816718
O	8.767727347756866	13.449191319161095	17.626201345349855
O	9.092727673990215	10.421438407360817	18.714467985863113
O	11.446026238547848	14.36977418485613	14.842271653062188
O	10.261604748651653	10.630180834517885	19.446171231667993
O	10.07520640939851	12.440210663351301	15.847081910002423
O	9.420487014220429	11.475124987511673	20.40313137891045
O	11.907402555468671	12.979946372812671	16.453159662323092
O	8.925048703720066	12.551943271338926	19.590979600162036
O	11.734061243929387	15.492334113775872	21.497896946291952
O	9.519240242477768	12.545148521161666	18.27689616071484
O	10.821470835329547	12.526438689434336	22.06715770831395
O	7.992105959177912	11.266729167778387	17.113445933083714
O	7.599205228556594	12.171579021393795	19.14877599277284
O	10.46434322519951	15.282033127809633	15.18217682721416
O	9.338048576259524	14.587022982312693	15.846746641752091
O	9.384567419505888	13.355736159001976	16.460068359336404
O	11.072763282443951	13.135806269440845	15.315954848932012
O	10.27015947201026	14.618991725583225	20.01298458588242
O	11.620649605630126	14.227860590089813	19.54368196861729
O	12.230937383181848	13.921044267145168	18.339806661973686
O	11.480289833232536	13.965401756818398	17.15598477246139
O	11.155531607091277	15.187209953583695	17.598145318009692
O	10.36029996763758	15.334585978133779	18.77790940212957
O	10.371569491110955	15.13335028336478	21.347808258706696
O	11.708223508137014	11.9404791140771	19.77011293915239
O	11.181515085711709	11.26304369792701	18.6520996657853
O	11.418866730311608	11.788897686963344	21.154508237813584
