79

O	1.4062752049464287	2.5893702161785717	-0.015711598687500106
O	1.0943112049464285	0.6162645371785715	1.4843716273124998
O	1.6500568149464283	1.7959835661785715	1.1553835723124999
O	1.8730508849464287	2.6549788661785714	2.0943313473125
O	2.7822289349464286	-1.9550931538214287	1.6513134873125
O	-1.0797889410535715	1.0530917481785715	3.2212238873125
O	1.5429400149464283	-2.3240057438214285	-1.4896431026875
O	-2.9395162050535717	-3.3164799738214286	2.2339361273125
O	-1.7295780250535713	-1.2548947538214286	1.2131711153125
O	-2.0198743650535715	-2.5650347138214284	1.3691168673124998
O	-1.2875124140535714	-3.3505147538214284	0.5764617743124998
O	-0.5125620590535714	-2.5985419938214283	-0.2343635216875002
O	0.049460249946428614	-1.4892366238214285	0.06087040231249988
O	-0.5473452180535714	-0.6278037358214283	0.8279955403124999
O	0.8582392849464285	-0.4529734828214284	2.4014933173124997
O	1.2454533649464286	-1.7440471138214284	2.2678506473124997
O	0.7187543049464286	-2.8805720338214287	2.7951710573125
O	-0.2555099480535714	-2.6467052238214284	3.6714674773125
O	-0.8026706410535714	-1.4486533638214285	3.9438900973125
O	-0.27640543805357143	-0.4590711398214284	3.1491152273125
O	0.8528015349464285	-1.0674918138214284	-1.0385717626875002
O	-0.15789826405357144	0.6494231811785716	0.7899295783124999
O	1.6726680749464284	-0.24540211482142843	-0.8082673426875002
O	-4.276964175053571	-4.722335543821428	-16.460424842687498
O	-1.0958601020535714	-3.919744253821429	-14.5407838426875
O	2.9659245549464286	-5.783757973821428	-8.203910562687499
O	4.642165524946429	-3.4875871438214285	-5.712715662687501
O	6.938136194946429	-4.964753723821428	-3.1267152526875
O	6.699190544946428	-4.114084773821428	0.5050273363124999
O	10.271891204946428	-3.1555653738214287	0.7088863523124999
O	9.74909390494643	-0.3960823368214284	-1.7998292626875
O	7.020140824946428	1.4762991061785715	0.29136607981249985
O	7.933319454946428	4.783007506178572	1.9684918173125
O	6.927924634946429	4.692239376178572	5.6552995373125
O	3.783279634946428	6.770210586178572	6.303468387312499
O	2.4049330849464283	8.689478076178572	9.3363076773125
O	-1.1679869950535715	7.485424236178572	8.4939539773125
O	-2.8027190450535717	4.978542526178572	6.1405147973125
O	-6.395413805053572	4.153896576178572	5.163165747312499
O	-7.701247315053571	1.2240794691785717	3.2083058373125
O	-10.926977095053571	1.6170395661785715	1.3390447973125
O	-12.462767995053571	-0.9032237538214285	-1.0832369626875
O	-14.877860795053572	-0.0770314598214284	-3.8791330426874997
O	0.5268083649464285	15.209973516178572	-4.4075832726875
O	-0.8742079790535714	11.878281816178571	-0.6880979846875002
O	-0.13607539905357147	8.353588116178571	-1.8960722426875
O	-2.7714426450535714	6.167902176178572	-3.4209443826875003
O	-2.1158795350535713	2.8070933961785713	-4.7801354326875
O	-4.6588534450535715	1.0839597381785715	-7.045540542687499
O	-4.971687575053571	-2.6779602038214283	-6.768701552687499
O	-7.986749815053572	-4.4383803738214285	-8.1156269226875
O	-10.99580689505357	-2.7953988138214285	-6.5484135326874995
O	-9.123923975053572	-1.6818055538214285	-3.4780740326875
O	-7.604481445053572	1.7193302761785716	-2.7719514926875
O	-4.875229555053571	2.4641908261785717	-0.3614805936875002
O	-4.012143565053571	5.7578564761785715	0.9234846513124999
O	-1.2701260510535715	7.280426556178572	3.0197714373125
O	0.1672026749464286	10.680640916178572	3.9618091773125
O	-3.3194702350535716	-2.5916736638214286	10.8351070573125
O	-1.7029463260535715	-5.072235323821428	10.556216557312501
O	-2.8572372750535715	-5.596482183821428	6.990319037312499
O	-2.3930424850535714	-8.889174193821429	5.1345345873124995
O	-2.0391230350535716	-9.006859853821428	1.3176884973124998
O	-0.27658414105357143	-10.790856583821428	-1.5147156526875
O	1.2214501249464287	-13.066159683821429	1.1937980803125
O	2.7127329749464284	-10.359293883821428	3.4356815773125
O	2.0008225149464285	-8.802521223821428	6.8060595173125
O	2.3739459749464284	-5.091627213821428	6.6612642273125005
O	2.7645601349464286	-3.0998349238214287	9.8884585373125
O	3.0115321249464286	0.7158483661785715	10.5007283573125
O	6.8038645249464285	0.7619057091785716	10.1226834973125
O	6.803686694946428	-5.712068343821428	7.1820099273124995
O	10.490563804946428	0.5742745831785716	4.774014727312499
O	12.358069804946428	2.6333155661785717	2.2265721673125
O	7.587154634946428	-0.20582030282142844	-7.596270912687499
O	4.457194984946429	-0.38263238682142836	-9.7448794426875
O	2.9124496949464285	2.155975926178572	-7.339370652687499
O	0.5676798049464286	3.5212760861785717	-9.994523642687499
O	-0.4029097040535714	2.1488939761785715	-13.3649022426875
