81

O	-0.7383256675689659	1.7155214254327582	-0.5495602381206897
O	0.592482595431034	1.7965636254327584	-0.3925639091206896
O	-0.7852159055689659	2.7199138454327585	0.45651342887931035
O	-1.646453148568966	0.7723397974327583	-0.3578072381206896
O	0.587083125431034	2.802092825432758	-1.2749279651206895
O	1.199513915431034	0.9098567444327583	0.5517323918793104
O	0.14024476543103415	3.5472267954327585	-0.25091819912068963
O	-0.6015842155689659	2.0440225854327583	1.9359543648793105
O	-1.268316600568966	-0.08108237856724176	0.7145852418793104
O	1.2986561554310343	2.5728708454327585	-2.4780041251206897
O	1.781613105431034	0.8006514964327582	1.8806172848793103
O	-0.2775014545689659	3.1807375854327584	2.8988465048793106
O	-1.1898412766689659	-0.5594726645672418	1.9419234048793106
O	-0.626757559568966	-0.9685484545672417	-0.1933518959206896
O	0.7785519154310341	2.3671152754327585	-3.8479320251206897
O	-0.617278221568966	-1.6935626345672414	2.4227316948793103
O	-0.4965234245689659	-2.2228948945672418	0.1559660518793104
O	1.092712925431034	1.2138527874327583	-4.52125514512069
O	0.1357274654310341	-2.2717613445672415	1.3462722548793105
O	-1.270832886568966	-2.8144134445672417	3.1750828448793107
O	-1.113896164368966	-3.4524214345672415	-0.4004549971206896
O	-1.7041091795689658	-3.916986534567241	3.2615030848793105
O	-2.014046460568966	-3.8856990745672415	-1.0388738481206896
O	3.262912765431034	1.3200199694327583	11.458619084879311
O	3.828088095431034	2.674590275432758	7.947354724879311
O	7.029277825431033	1.6892285054327583	6.23847779487931
O	6.660099775431034	0.7017608143327583	2.5921101648793106
O	9.648578855431035	2.9052817854327584	1.6825377248793103
O	7.560309275431034	5.878839935432758	2.7656080148793105
O	4.562243455431034	5.330867535432758	0.3763397928793104
O	4.200555335431034	7.625305145432758	-2.6503774651206893
O	3.6981527454310337	5.518816965432758	-5.788421705120689
O	0.00880921543103419	5.4073847754327575	-6.81602819512069
O	-1.737371850568966	5.000805795432758	-10.19243627512069
O	-4.502039394568966	2.909088395432758	-8.561346745120689
O	-5.052547924568966	1.2824362284327582	-5.189942255120689
O	-8.054194554568966	-0.4704537745672418	-3.6442199151206895
O	-8.137044114568965	-2.6020100045672416	-0.48894009312068965
O	-11.375197044568965	-2.8893776945672416	1.3680899848793104
O	-11.906277044568965	-4.485811814567242	4.78454014487931
O	-7.157023604568966	10.53145043543276	-2.3386924151206894
O	-5.108014204568966	8.647150015432759	0.22664661887931037
O	-6.590354404568966	6.339221695432758	2.8319693348793105
O	-4.595126954568966	4.431227115432758	5.362628824879311
O	-6.268858794568966	2.9155720854327583	8.381844294879311
O	-4.876513544568966	-0.3477662045672417	9.68602125487931
O	-6.985793844568966	-2.4160104345672417	12.028408384879311
O	-8.671304804568965	-2.736874614567242	6.806735204879311
O	-8.752884194568965	0.35250224743275826	4.6031305848793105
O	-6.2239529945689664	0.9916637674327582	1.8849408448793104
O	-7.039222774568966	3.599518635432758	-0.7421657811206896
O	-4.988154104568966	5.090584855432758	-3.5485244151206894
O	-5.147092054568966	7.961588165432758	-6.042839515120689
O	-11.108773434568965	5.572617795432758	-9.45235238512069
O	-14.243969144568965	3.997743865432758	-4.553129095120689
O	-8.132228244568966	-8.436056004567241	-3.2780602651206894
O	-5.503016004568966	-7.809021064567243	-5.90918499512069
O	-1.800521189568966	-6.853161864567242	-5.855664335120689
O	0.704172705431034	-7.984520914567242	-4.82251308512069
O	-0.42900273856896587	-7.378873384567242	-1.3396703351206898
O	1.1598342154310342	-8.887289564567242	1.6498375748793106
O	1.1295959354310339	-7.063619894567242	4.95102175487931
O	3.1918369254310335	-6.697929964567242	8.037516604879311
O	5.803479405431034	-8.986997974567242	6.472401894879311
O	6.229581105431034	-7.157991014567242	3.1717362048793105
O	5.208968165431034	-7.642103254567242	-0.3984512891206896
O	3.8272073754310343	-4.424507464567242	-1.7858872351206898
O	3.650289025431034	-4.191722504567242	-5.5464368851206896
O	2.342630485431034	-1.4407569045672415	-7.87720058512069
O	5.697781735431034	0.39077291043275825	-8.05241883512069
O	8.145750905431035	-1.6405301345672418	-6.013031345120689
O	8.175239945431034	-3.3915587945672416	-2.6270758151206897
O	10.239010255431035	-5.997667334567242	-0.8136603301206896
O	10.173383655431035	-8.14881677456724	2.2751656948793104
O	8.254637645431036	-11.39088735456724	1.8537371748793103
O	11.175222255431034	1.6986951854327583	-4.916493095120689
O	8.642212405431035	4.1865221254327585	-3.6133575251206893
O	9.158291255431035	7.729280405432758	-2.3983094251206896
O	14.180167955431035	3.2387874454327585	-1.0838440171206896
O	-0.11489933456896595	7.180563035432758	7.42016370487931
O	-3.046942404568966	8.372428795432759	9.48309226487931
