82

O	-1.1601384777803272	2.162217736737704	3.6127521410606556
O	-0.34889160808032715	1.154266832737704	4.322159251060656
O	0.9899006009196727	1.583519801737704	4.308757601060656
O	-1.9654937250803273	0.8023228977377038	1.8777915210606557
O	0.7470815109196729	0.48761776273770385	-1.9587600189393441
O	-2.2819724190803274	1.7687167147377039	2.8541868710606555
O	0.038241320919672805	-1.8954734932622963	-0.6079878599393442
O	0.6685576109196729	-3.126315633262296	-0.4306734099393443
O	1.3092011809196729	-3.1693339932622964	0.7785216650606558
O	0.8957663109196727	-2.2912443332622963	1.7906433510606559
O	-0.2277264230803272	-1.4728186032622963	1.662078851060656
O	-0.8085609860803271	-1.5195308232622962	0.46802616906065575
O	-1.6183906880803272	1.527283281737704	0.6554962860606557
O	-0.9286986560803272	2.665146196737704	0.9954432410606556
O	-1.6434355680803272	3.5599558067377037	1.4618578810606557
O	0.3053492909196729	2.150499046737704	1.2654624910606556
O	0.8854257409196729	1.311945817737704	0.4222987170606557
O	1.7742970309196728	0.6063274167377039	0.8157437810606557
O	0.2649635909196728	0.9702935593377039	-0.7279873689393442
O	-1.0284664320803272	0.9105433547377039	-0.4437213689393443
O	-1.918098603080327	-0.5115447232622962	-0.5210570489393442
O	1.8472739409196728	1.5843930447377037	-11.846973438939346
O	1.453119490919673	3.404563996737704	-8.534950788939344
O	4.584152220919673	4.577799186737704	-6.852924358939344
O	4.9235873209196725	3.954383406737704	-3.172824378939344
O	5.940341770919673	7.627201736737704	-2.6638129689393444
O	2.4759077309196726	8.612319866737705	-3.8365003789393444
O	0.4324333909196729	6.655533916737704	-1.2296429089393444
O	-1.2421030791803271	8.382285736737705	1.656486771060656
O	-0.31806884608032715	6.7037197067377035	4.9193759510606565
O	-3.1030193890803273	4.495621726737704	6.267831201060656
O	-4.201488069080327	3.457191176737704	9.786681531060655
O	-5.121702369080327	-0.05209755326229615	8.554796291060654
O	-4.597409849080327	-2.0564116132622963	5.381035921060656
O	-5.753809719080326	-5.430198193262297	4.085775291060656
O	-4.494618419080327	-7.408133643262296	1.1072570910606556
O	-6.874169359080327	-9.840836463262296	-0.4904716419393443
O	-6.320015559080327	-11.744688163262296	-3.7414250689393445
O	-11.892237979080328	3.6098273967377037	1.8677775210606558
O	-9.079106179080327	3.1413437667377035	-0.6382466219393443
O	-8.901109149080327	0.1645531877377039	-2.9490790889393446
O	-6.108398919080328	-0.2794558632622962	-5.4156930189393435
O	-6.554110719080327	-2.811133353262296	-8.220730168939344
O	-3.441811819080327	-4.608083653262296	-9.379611348939346
O	-3.8450918790803272	-7.750253443262297	-11.457120738939345
O	-5.988782129080327	-10.127957363262297	-9.455711128939345
O	-4.934768069080327	-8.586932973262297	-6.136947978939344
O	-6.841146739080328	-6.0175191132622965	-4.131797788939344
O	-5.3768341090803276	-3.686753983262296	-1.6353515389393443
O	-7.535874699080328	-1.8904140832622964	0.8494083110606557
O	-6.852430149080327	0.8256023907377039	3.3805689710606557
O	-8.718961279080327	3.2337442667377037	5.627175211060656
O	-8.280407409080327	5.276799036737704	8.783828721060654
O	-11.941241079080328	-1.9634714532622963	9.615952331060655
O	-13.380193479080328	-5.658541693262296	5.084821241060656
O	-0.8827620280803272	-11.680325863262297	4.411579331060656
O	0.7768103809196729	-9.292482763262296	6.856617161060656
O	3.1355901209196726	-6.251808053262296	6.585079921060656
O	5.7912855809196735	-5.709617243262296	5.390435731060656
O	4.4679432709196725	-6.333863313262296	1.9066502510606558
O	6.684324830919673	-6.848220303262297	-1.0821504929393444
O	5.562768900919673	-5.8526821932622966	-4.570362228939344
O	6.8928732309196725	-4.505862273262296	-7.837690678939344
O	9.562775120919673	-2.518633353262296	-3.1186512089393443
O	9.087970820919672	-3.164573573262296	0.5638610790606557
O	6.001302400919673	-1.390884723262296	1.7730440410606558
O	5.700456270919673	-0.8366204532622962	5.504944061060656
O	2.911944740919673	0.7458720027377038	7.546364691060656
O	4.442783350919672	4.243897966737704	7.445743311060656
O	7.611846000919673	3.9643618767377036	5.400853761060656
O	8.719138560919673	2.253227446737704	2.170654371060656
O	11.964405020919672	1.310345176737704	0.4620949630606558
O	13.248617420919672	-0.7423293932622962	-2.4146863189393444
O	13.772972520919673	-4.4047978832622965	-1.5888971389393443
O	7.906412010919672	8.310153176737705	3.865535791060656
O	4.395755140919674	8.626313366737705	2.5934242910606558
O	2.5766186509196727	11.545733736737704	1.0731904110606556
O	0.6121465509196728	14.123889636737704	3.0078145710606554
O	9.308226620919672	10.981972436737705	-0.2586162236393443
O	11.732000520919673	9.869698006737703	-2.9464414789393443
O	-4.446630089080327	4.436312616737704	-7.976721098939344
O	-7.495481349080327	3.3269229967377036	-9.942627868939345
