30

O	8.81133328900595	10.379735116783149	21.240333234942277
O	8.510904002537359	11.542430683894315	14.514098717591466
O	9.35707811765961	9.98359660855719	18.268803455306294
O	10.78161399247526	13.354349446257103	18.389264946779274
O	10.909946890875272	13.546213425103176	19.67185760152968
O	9.899537954928075	13.89514870118205	20.456685522792704
O	8.724029515171543	13.552738382495233	19.87037597038544
O	8.600075003707236	13.427581825345804	18.59703879983526
O	9.496808634532583	12.824369458334319	18.08267415008666
O	7.665273630929583	14.086396609892333	17.54822306584759
O	9.334320841061986	10.434587500060086	14.8467757070555
O	10.148890671773524	12.713969448050776	13.599390789752123
O	11.425999769387996	13.34262440706437	15.411843953245334
O	10.447434046997865	13.813631476153525	16.17265232022997
O	9.411508707940667	13.705358226313558	15.3727556037862
O	9.118926570472425	12.813535562039574	14.433532928063926
O	11.24748213372993	13.273318615374112	14.127085347422838
O	11.52627385932625	12.428437361346743	17.53727811959384
O	9.201947896012273	11.069914384619624	16.021719732988625
O	9.321463869318634	10.347425509253666	19.640620164761312
O	10.497455185644245	10.805371955435271	20.076045151309987
O	11.153047788222015	11.388985881803409	19.083936091391138
O	10.83735971934927	11.284995106650879	17.613019997163644
O	9.691795706521752	10.790875909276183	17.228681003188722
O	10.101616180400836	12.194678091467127	12.449148762123968
O	12.497322322538684	13.495878696519721	15.91178147972638
O	7.012905449919553	12.946400121472161	16.96466174469251
O	6.7980844629021995	11.94583808695878	17.94056900244495
O	6.806508941615218	11.757936499139204	19.10282241702955
O	10.260834288726244	13.531250107295834	22.3045851789996
