30

O	11.107940525361359	11.24463977652418	19.86503692993945
O	8.113769525311064	11.001526222382381	17.787857383333407
O	7.79578385182028	13.809363806578299	18.699504265225986
O	10.699928719741326	15.35351757281823	20.95367079737557
O	12.087880080928505	13.914960935042302	19.58075970042279
O	10.927409083658445	15.238091620615	18.656263216299084
O	12.422005516400187	13.240592265756796	18.351258280518042
O	11.773735012385515	15.024250405326296	17.577003220188253
O	10.471027743694243	10.814033984245887	17.600840039121216
O	9.497284281763886	12.498059312137721	18.988906163063053
O	10.210478538703036	11.30039810709296	18.859827546033177
O	8.901004494743452	13.298098416351428	21.67289890198393
O	9.476953133487603	15.95502581392088	20.512058927761196
O	10.27176532354436	13.811867564424187	14.940135895260084
O	11.128791897822072	15.789580784556179	15.642477326194182
O	9.077140765696969	14.882461010726399	16.46781722287968
O	11.768289532739711	13.382649223294878	16.02199441660317
O	9.806731373814227	12.621399105394154	15.77761166099331
O	10.789388334378556	14.450653719946128	19.812095299269387
O	9.29666811335127	11.375529273718783	17.102280449744974
O	8.942242807197143	13.346743729369594	17.98923593636474
O	11.91715520582662	13.658785511307377	17.229798315681453
O	11.251394746173778	14.51703072760984	15.394221054324548
O	9.166417982521835	13.858699095923908	15.629011445567361
O	9.771828602635209	16.019006540606345	16.159777957520696
O	9.473741761040962	12.751442496846924	17.049564726638472
O	8.606364348198424	12.164863944809758	19.970431228338132
O	9.146703581165909	11.101252615686123	20.75150110892409
O	10.41947874281172	11.673673270728063	21.043634726489444
O	10.168374288270295	12.728112011289207	21.90750337443977
