76

O	-0.27508899275925947	1.6656531070500002	2.5938254920370376
O	1.6251639932407405	1.0481650190500005	0.19006888903703748
O	-1.2999430337592595	1.3492411150500003	1.5462778620370374
O	-1.3907686177592595	-2.2526183799499995	0.3985314150370375
O	-0.6008903267592595	-1.3459042899499996	-1.4848487279629625
O	0.7889177632407406	-2.1456600599499995	0.3866170920370374
O	0.6254877132407405	-1.7653441699499997	-0.8299067329629626
O	-3.5642673667592595	-1.4211042599499994	2.054278562037038
O	0.12341327324074058	0.3601388910500004	2.284639892037038
O	0.13239413324074045	-0.7403340199499996	1.6068348720370376
O	-1.1218048777592595	-1.2451857699499995	1.2501260920370374
O	-1.8175751377592595	-1.6550649799499997	2.3852315920370377
O	-1.5222088137592595	-0.7610336599499995	3.4235644420370375
O	-0.17381729575925942	-0.25440859994999954	3.5324638820370375
O	0.4699634532407405	3.1876433800500004	0.25885092403703747
O	0.5181685132407406	1.9067437300500005	0.6226164180370375
O	-0.7063117177592595	1.2017295470500005	0.1409796430370375
O	-1.3009529957592594	2.2383524500500003	-0.42036037796296255
O	-0.7486454497592594	3.4812726700500005	0.1251786680370375
O	-0.3170600267592595	-3.1673592299499993	0.6497436440370374
O	1.8448049032407408	-1.3998824299499995	-1.4468290179629626
O	-2.5582945267592594	1.7061775730500004	2.2891171720370376
O	12.61340029324074	2.9872995700500007	-10.289470527962964
O	11.489448193240742	0.9107853583500004	-2.9085757879629623
O	8.849771923240741	2.0823078300500004	-0.49371787696296254
O	9.18911039324074	1.1892041430500004	3.1440630820370377
O	6.13630264324074	-0.2533260899499995	4.887930602037038
O	6.62099334324074	2.23504028005	7.746866392037037
O	5.917616913240741	5.01448495005	5.299285222037038
O	2.4302713932407407	3.8003286900500006	4.385775712037038
O	-0.7904802147592594	5.5316350100500005	5.478158812037037
O	-3.2590043767592594	3.0418612200500004	6.963126332037038
O	-6.2199943167592595	2.2281914000500005	4.588274072037038
O	-9.87095291675926	1.1408631900500004	5.039014042037038
O	-9.699899636759259	-1.2003210599499994	1.9617751620370376
O	-6.94169520675926	-2.5652099699499993	-0.3368844909629625
O	-6.76433089675926	-4.58066691995	-3.4934321679629625
O	-3.8840613767592593	-6.27522199995	-5.254237847962962
O	-4.073366416759259	-6.83201696995	-8.917877347962964
O	-1.2495498917592593	-8.10508449995	-11.125316227962964
O	-7.040492586759259	11.32305373005	-6.1518220579629626
O	-8.69778985675926	9.78614837005	-3.0849384479629625
O	-7.26828155675926	6.47367500005	-4.279465707962962
O	-3.7595371867592595	5.16767793005	-3.8684345779629625
O	-2.0043244267592595	3.0406995300500004	-6.418583957962962
O	1.5242234032407405	1.8970632500500004	-6.070043747962963
O	3.3523141332407405	0.4918592430500004	-9.082612027962963
O	5.80849661324074	-2.2978329299499993	-8.454571727962962
O	1.8246206032407408	-5.60058525995	-9.760849577962963
O	-0.5906953727592594	-2.8889830199499995	-8.780400457962964
O	-1.6298691367592595	-2.1248133099499995	-5.282555867962962
O	-4.62793628675926	-0.09256489294999959	-4.481581927962963
O	-6.12704345675926	1.3672013360500004	-1.3815335579629626
O	-8.85679998675926	3.8925567300500004	-0.4002094389629625
O	-10.981873506759259	4.85050590005	2.5854021020370377
O	-14.357114606759259	3.8941723100500005	1.1051503620370375
O	-4.16070663675926	-10.088385569949999	3.4997936720370375
O	-1.6383261037592596	-10.59994066995	4.940458522037038
O	0.4323494132407405	-9.63180446995	1.8969600620370375
O	4.0600777732407405	-10.64490796995	1.6663190820370375
O	6.43817895324074	-8.47024023995	-0.3436321549629625
O	7.8162226332407405	-8.02481040995	4.8545396820370375
O	4.42748119324074	-9.09730183995	6.110465922037037
O	1.9579328732407406	-6.34610375995	5.532699342037038
O	-1.2803730327592595	-6.45747061995	7.501180292037038
O	-4.38327051675926	-4.21153400995	7.562607432037038
O	-3.0195121367592592	-1.8647942499499996	10.273317972037036
O	3.488635433240741	-4.58075912995	9.402472972037037
O	1.5161393332407407	2.8173533100500006	9.909261272037037
O	2.1072044832407406	6.48183532005	9.320129382037036
O	-0.2668613797592595	9.279024030050001	10.257062872037038
O	8.56597371324074	6.85148849005	0.0021848020370374976
O	8.957064643240741	6.04355181005	-3.686510567962962
O	5.20553480324074	5.67127977005	-3.8601871579629625
O	5.00722847324074	6.54252416005	-7.555373147962962
O	7.70754945324074	6.80100800005	-10.151456787962964
