26

O	11.536616740723609	13.780546929518676	19.747075442061288
O	10.585880762466653	10.59412725254243	18.94474392553246
O	7.3398266985190705	10.572774578673394	13.673544021652775
O	9.816668225554924	9.709562380425044	16.41050297090528
O	10.618334077159023	10.493541452830641	20.297102099138332
O	8.543144622555808	12.418924149597206	15.056559230930127
O	9.659360227120441	11.166382956678282	20.970194263530143
O	6.078045759239609	12.367570523432537	13.730173485811587
O	8.746755878737876	11.910383136250779	20.29764565469734
O	8.911265633170284	12.012301338824855	18.958720794744405
O	9.363248967437432	10.889032616436852	18.330611417733095
O	9.497198417624741	10.73547580072586	16.87843126454992
O	10.461181451156978	11.69112843146745	16.380532021034735
O	11.446897403326165	11.978817807273368	17.38770648516156
O	11.494856119754704	13.16718652943171	18.121021374395443
O	10.547648116220277	13.86241701895091	17.582660797409503
O	10.576975166569822	13.705202080639246	16.173578203760492
O	9.830430233549421	12.660604908430694	15.700012042594077
O	8.332882739698423	12.902806044038943	13.804095518056133
O	7.21605128380288	11.971129042987272	13.333902242709271
O	6.997131664580834	10.284514580245453	15.042589439636924
O	6.221865224022341	11.167904241149644	15.737707671619718
O	6.45967476202577	11.147114717234825	17.064663725791878
O	6.730721053629958	9.91597216268197	17.67477092538777
O	6.826433394928401	8.882618684206856	16.81564816556175
O	6.925509297016698	9.090373835355686	15.490827504651163
