92

O	-1.182527349813559	4.928290031389831	-3.013086132355933
O	0.30596953618644107	1.5590261723898307	-3.4202550623559325
O	-0.8574587608135589	2.2344565313898306	-3.6142036823559325
O	-1.131127829813559	3.232602881389831	-2.6811157123559326
O	-0.8718873620135589	2.832941571389831	-1.4171340283559326
O	0.10948901618644113	1.967626161389831	-1.1710907273559326
O	0.7884357461864412	1.6314337043898308	-2.1819696623559324
O	0.552155176186441	1.945266681389831	0.1122748076440675
O	1.1914526261864409	1.810310271389831	-4.538435252355932
O	-0.5025709558135589	1.4615186213898308	0.7830346176440676
O	-0.3844130828135589	0.8024781235898307	1.9083056976440673
O	-0.8786799899135589	-0.4640017286101693	2.2139060676440674
O	-1.7672046908135588	-0.8559859386101693	1.3053174376440673
O	-2.3735216338135587	0.32576870438983074	1.0939832376440677
O	-1.640587671813559	1.0803444193898308	-0.0165524563559325
O	-1.6884940578135588	0.30499947538983074	-1.0824108183559324
O	-2.661641193813559	1.0722375013898309	2.0844268176440672
O	-2.0425289438135588	0.020580409389830745	-2.3701178423559326
O	-2.3600515838135587	-0.9377796586101693	-0.8624258007559324
O	-0.8591005168135588	-1.5826406386101692	3.140911557644068
O	1.883029826186441	2.631398071389831	-5.023969462355932
O	-0.5403387728135589	-2.6796798686101693	2.2213921376440675
O	-1.3139539528135589	-3.627895648610169	2.3026767776440673
O	-0.07646339781355882	-2.0031841886101693	1.0762043776440673
O	-0.0998567208135589	-2.786794948610169	0.021427842644067496
O	1.708119886186441	-0.5374755586101693	0.09773737264406746
O	0.928676416186441	-1.023908298610169	1.0634881076440674
O	1.017017256186441	-0.8352498686101691	-1.1213771103559325
O	0.32096574618644114	-1.9317045986101693	-1.0731110363559324
O	0.15690425618644122	-2.506274908610169	-2.2552738823559326
O	0.46473297618644105	-1.7799714286101693	-3.4221144423559324
O	1.6938303861864412	-1.2528345786101691	-3.3403252323559327
O	1.863975096186441	-0.6388900186101693	-2.1582267123559324
O	-7.836895123813559	8.54399637138983	-6.507443092355933
O	-7.304055733813558	6.2594165613898305	-3.4658393423559324
O	-9.556308013813558	3.262799631389831	-3.193766092355933
O	-7.898812393813558	0.0739787903898308	-2.1156531223559325
O	-10.626929853813559	-0.5420198886101691	0.4317529776440675
O	-9.494183423813558	2.611206111389831	2.2138786576440674
O	-5.844674293813559	1.4298255643898308	2.8583062976440674
O	-4.710921613813559	0.5838028883898307	6.3361938676440674
O	-2.953508183813559	-2.8185412086101693	6.3462467276440675
O	0.8840263561864411	-2.354089248610169	6.6271801776440675
O	3.702073536186441	-4.562715768610169	7.897984667644067
O	5.992876076186441	-3.4034561086101696	5.057351497644067
O	5.636702056186442	-1.399794218610169	1.7755829676440675
O	8.189630136186441	-0.08094266161016928	-0.7578722033559325
O	7.442004056186441	1.2760650153898307	-4.228244482355932
O	10.029783256186441	3.648609521389831	-5.645204882355933
O	9.650703456186442	5.675340321389831	-8.859911632355931
O	4.609067576186441	6.72193844138983	11.551615547644067
O	5.3173374861864415	6.34815405138983	7.8380508876440675
O	2.830339476186441	6.58816608138983	5.000081187644067
O	3.7435826861864414	7.96907887138983	1.5994391676440673
O	1.2678500161864412	8.019077901389831	-1.2592023653559326
O	2.105580396186441	10.28699570138983	-4.196816102355933
O	0.8039594361864412	9.081240511389831	-7.551399132355932
O	5.697198226186441	7.057169121389831	-8.266775792355933
O	6.088378736186441	6.98316261138983	-4.488280462355933
O	4.495823526186442	4.273946491389831	-2.2989001123559323
O	5.739481946186442	3.914695901389831	1.2371061576440674
O	4.504798356186441	1.816130331389831	4.110147007644067
O	5.1401351461864415	1.4549995823898307	7.871043707644068
O	4.7665753861864415	-1.070816328610169	10.675007247644068
O	8.462152796186441	-1.636817918610169	11.400005247644067
O	10.310589356186442	-4.873530158610169	10.614521647644068
O	12.10735735618644	-0.3614140786101693	7.270532217644067
O	13.685691456186442	3.703029431389831	3.1339471576440676
O	9.303624256186442	-4.0320824286101695	-7.612417322355933
O	7.656737746186442	-6.747426448610169	-5.506900822355933
O	3.964641106186441	-7.391648618610169	-4.494565192355933
O	1.424703406186441	-8.03413174861017	-5.861888232355932
O	1.266922706186441	-4.50189423861017	-7.235567982355932
O	-1.0687603348135588	-3.692296448610169	-10.038627132355932
O	-2.3730415638135587	-0.1817182116101692	-10.212198642355933
O	-6.553529183813558	-3.485590648610169	-9.109331652355932
O	-4.342715653813559	-6.13268283861017	-7.630724332355933
O	-3.033878283813559	-4.75847576861017	-4.2693453323559325
O	-1.657293809813559	-7.59231928861017	-2.0550544323559325
O	-0.08142122181355882	-7.52676105861017	1.4472723376440673
O	-3.401915043813559	-8.027461798610169	3.298293847644067
O	-6.087499673813559	-8.37084988861017	0.6248241376440674
O	-6.994425333813559	-6.664478918610169	-2.6529059423559325
O	-9.110799093813558	-7.34232982861017	-5.684175282355932
O	-9.787115043813559	-6.127247698610169	-9.181418392355933
O	-9.660312043813558	-6.784203558610169	3.1069045976440672
O	-8.066468163813559	-3.5885341186101694	4.332928697644068
O	-9.435228693813558	-0.9546848386101693	6.678875207644068
O	-9.12140269381356	-0.9257103586101693	10.447358947644068
O	-13.954950443813559	-4.097809748610169	2.5525677176440675
O	-3.842889313813559	9.59270771138983	0.06341997264406751
O	-2.0203932838135588	12.88894257138983	-0.017990974355932443
