21

O	9.418629605547437	13.935915882490491	14.92166043153627
O	8.696898274966314	14.005541787135876	20.896064071850578
O	9.428477867893537	14.19578510681548	16.35724990898937
O	10.29270119738604	12.569322950049093	13.441884976596024
O	9.526935685499536	15.311188976025154	17.138707843066822
O	9.957964634487968	11.785834102548387	15.452628318542072
O	9.573883781552691	15.009327785180448	18.556687814166136
O	8.623104150638035	14.17832431579823	19.143468387966404
O	8.37981392587015	13.218500406000176	18.219597443272697
O	8.975766292697788	13.041355067754903	16.927612607412257
O	9.805749785524696	11.830913836408175	16.73712830455605
O	10.496701853901573	12.476711436406454	17.798799694008498
O	11.659732842021782	12.888067509150495	18.061106934635916
O	12.359989437534185	13.84471823992057	17.098723712242712
O	12.548911538183944	14.144852410202741	15.685783495950277
O	12.383122509473786	12.840240397931812	15.755594010192619
O	9.100360370486062	10.804953690208533	17.548412582867268
O	9.425281570395034	12.606927280028913	14.410392018721254
O	9.993438897048058	10.345452960132693	18.51993539105847
O	7.891717846819066	11.2198197433367	17.86699575388516
O	9.049275082561568	11.365815324264256	19.001732366774615
