23

O	10.120306687194054	12.356265564019914	16.37063178411917
O	9.197962558228209	13.325255666374106	16.23092643112729
O	11.060875915256398	13.402130143684088	16.153414791714663
O	10.503513052787223	11.540469621023606	17.3429443480841
O	9.254251891984513	13.115500704881523	14.914298056565165
O	8.757405219229705	13.979429116697032	17.424044545713244
O	10.385701586621783	13.83533469084511	14.972669986304751
O	11.301610103403037	14.241501846749554	17.536339471993212
O	10.314937581591384	12.16556022775075	18.608261576687134
O	8.059666631738704	12.649286335480399	14.312243322740832
O	8.86359764224774	15.188638608041352	18.22532159442091
O	11.9749772284476	15.537698579261157	17.17797355515985
O	10.610579308347301	12.837036768610776	19.704247149710437
O	9.012992345748907	11.59697291312009	18.71670253486911
O	7.748544733334021	11.313034306464255	13.756872170101452
O	9.902880653226626	13.045741860498543	20.844268604844338
O	8.551780067584223	11.388890536963375	19.926670965261806
O	6.691663833651303	10.602080210056398	14.266248190535029
O	8.577243127879942	12.548306923803572	20.606056502153663
O	10.267162467289438	12.681174732576947	22.250082134166377
O	8.226346504810538	10.12040301149252	20.62847029722385
O	10.177269103258515	12.034197771322063	23.24006023368959
O	8.450407433621493	8.957035035780244	20.679257030204873
