33

O	12.806571450970877	15.466986504788153	19.56159906208186
O	10.686135219466145	12.436047144942824	19.786332801905235
O	10.642429067866495	13.778285160542374	19.995795259426437
O	11.412260897548135	14.544280246374733	19.12260883168373
O	11.291905742965813	14.131742980413744	17.842018295523772
O	11.082717198549055	12.846675538304014	17.564080384195098
O	11.082073698879784	12.07853852938756	18.56699382661632
O	11.38030081413297	12.474376184610746	16.292735602101573
O	11.285851765620396	11.796207115357165	20.938936697093546
O	10.464565655431077	13.131592121667603	15.567563585967207
O	10.040673762916592	12.702505508809596	14.405354049651464
O	8.725893793940642	12.468753499438025	14.007388964598483
O	7.868709002082224	13.010783739447165	14.867678750127935
O	8.544811422418162	14.14102873498657	15.140182296865547
O	9.494034061364074	13.893656751856367	16.313915534719715
O	8.737541861024877	13.51641130463109	17.326296033951614
O	9.096746563258154	14.789026945767894	14.193254131668958
O	8.224673663131123	13.653204605040271	18.584341378850063
O	7.344900018347634	13.445179697673883	17.01108554745674
O	7.846164470333246	11.88174932216584	13.011106896972413
O	12.312137908436496	11.627141406412763	21.492435754971503
O	7.016538996823382	11.025935543905245	13.865463049871725
O	5.812188370970583	11.193393034164306	13.70515595760354
O	7.756918906513789	10.967073901895224	15.062398583085848
O	7.00689503022698	10.56474881380724	16.06377030129546
O	9.867743612256458	10.19429689538267	16.174905538252528
O	9.112829305326557	10.619103112415814	15.161758222811617
O	9.17265919567476	10.612743572675187	17.35570718952059
O	7.880285132122078	10.636340418738722	17.22064141989626
O	7.226417553590801	10.461261876315728	18.359219876492915
O	7.9265118686513745	10.561243419106887	19.57727726409788
O	9.020488121239069	9.787868215060227	19.558570866555144
O	9.711033089878262	9.978263682550008	18.422731411206275
