21

O	8.187208377456692	11.008921912832044	13.600280023152747
O	7.362732682440466	10.031983971617175	14.337285480075138
O	6.103348028572158	10.611846194651608	14.570764366477535
O	9.903898039894141	11.276029617973492	15.178135997941869
O	9.211386192459587	14.56071403185404	18.480787522763276
O	9.578387688204838	11.077688292457168	13.820886064315445
O	9.720919313051965	11.90284631392145	19.306789319313147
O	9.326996377253094	11.143942587273953	20.407971078856086
O	8.252408488239036	10.357119390594885	20.0907998026728
O	8.01431751799381	10.055068405524027	18.74230507064463
O	8.902678114712435	10.408845149967256	17.72532773814112
O	9.935365765281603	11.14181013104898	18.12736154434891
O	9.979950600612199	12.72108932822743	15.392780261729161
O	9.005201642457074	13.332688154959444	14.64325882223201
O	9.26334583703185	13.38130032089557	13.434923545886775
O	7.899875365205812	13.087683302649157	15.404095771276207
O	7.910902376722959	13.325617816881849	16.70557605443485
O	7.094507434291384	12.79124789800292	17.406102002684808
O	9.016982511324814	13.83278503365411	17.292283626371898
O	10.048862695470138	13.291234705863824	16.66039360576549
O	11.142836094937106	12.260696830789309	17.40937598070135
