79

O	1.6663760139464285	-1.3812033836071425	-1.9050221496982143
O	1.4517668339464285	-1.1553405866071425	0.5512690953017859
O	1.7103115219464287	-1.8647692536071425	-0.5532571596982141
O	2.8112283469464283	-2.5500926936071426	-0.5540979096982142
O	0.07128948094642851	-3.0904308736071426	2.501262360301786
O	3.2174857069464284	0.7532274823928575	1.6988083603017858
O	-0.9437405430535716	-0.0639147756071424	-0.9859567696982141
O	-0.6634815030535716	2.7334732263928574	4.226410980301786
O	0.19560601894642848	1.7387218063928576	2.151745100301786
O	-0.7932707730535714	1.8947732963928576	3.0446512103017858
O	-1.9070213930535713	1.2015627963928577	2.7744296103017856
O	-1.7785626030535715	0.7528095583928576	1.381856075301786
O	-0.7410630130535715	-0.046285751607142406	1.322795578301786
O	0.36204346194642856	0.6811867283928575	1.258916544301786
O	1.3589083629464285	-1.0553652746071425	1.987158790301786
O	0.41162025294642857	-1.4871973536071423	2.8572452303017863
O	-0.07890801305357142	-0.9728264896071425	4.008935540301786
O	0.7613785719464286	-0.0713289306071424	4.522119050301786
O	1.8478620109464285	0.4698192203928576	3.9193595603017863
O	2.0099509169464285	-0.02443551960714241	2.6596215803017857
O	-0.7862241430535716	-0.9731011456071424	0.09812837630178595
O	1.2887815529464286	0.23377107239285758	0.30116385430178594
O	-1.8979799130535713	-1.5248219636071425	0.5769767724017859
O	-14.851220833053572	6.212878026392858	-7.267099449698214
O	-13.241093833053572	2.8106002363928577	-6.759727299698214
O	-10.254262733053572	-1.8706640636071423	-1.3380092696982142
O	-7.017547803053572	-3.8410402536071424	-1.4387408896982141
O	-6.3068223830535715	-6.349984853607142	1.2590103243017858
O	-3.059154283053571	-6.583697263607142	3.0548388403017857
O	-2.6439352530535714	-10.196985033607142	2.292171450301786
O	-2.5931131630535713	-9.462040663607143	-1.407091569698214
O	0.5056839109464285	-7.104571583607142	-1.302804089698214
O	3.8633795869464285	-8.280610723607142	-2.654315009698214
O	6.623087786946429	-7.682949033607143	-0.06683269669821412
O	8.782921516946429	-4.665924523607142	-1.010326059698214
O	12.432874066946427	-3.6797954036071423	-0.3437312496982141
O	11.372975366946427	-0.0033740186071423983	0.1678460033017859
O	8.123729496946428	1.9539014463928575	0.5432965153017859
O	7.265812786946428	5.682661946392858	0.6763351099017859
O	3.9719667269464285	7.272707226392858	1.6417237823017858
O	3.1898678469464286	10.674763766392857	0.2554684293017859
O	-0.1315996430535714	12.530908366392858	0.5870089278017859
O	-1.3869772130535716	15.210682966392858	-1.774136879698214
O	6.8572602969464285	-0.5235192776071425	-14.247586089698213
O	7.510087456946429	0.5634408033928576	-9.221485779698213
O	4.187051676946428	0.07158331739285759	-7.453002749698214
O	1.8829705459464285	2.9222093863928578	-6.708189969698214
O	-1.4303715130535712	2.5732885663928577	-5.244130949698214
O	-4.003822773053571	5.389196396392857	-5.303102429698214
O	-6.288325713053571	5.790695296392857	-2.3001033696982143
O	-8.135135953053572	8.971695536392858	-1.715692689698214
O	-5.5683767230535715	11.730193766392858	-1.729435109698214
O	-2.7550155730535715	9.491194386392857	-0.6059031096982141
O	-0.11265201305357142	7.832823346392857	-2.760406379698214
O	1.9173739829464285	4.878435596392857	-1.862551349698214
O	4.928720106946429	3.6927609463928577	-3.439730959698214
O	7.201381326946429	0.6967138893928576	-3.3081692396982145
O	10.019055386946428	-0.9396457326071425	-5.2857671896982135
O	6.606926116946429	2.1902846363928576	9.335689350301786
O	4.575080646946429	0.6889838733928576	10.907853410301787
O	1.7203725609464287	2.2544100663928575	8.977970140301785
O	-1.9036301030535712	2.0862860963928576	10.150083430301786
O	-4.837788813053572	2.1507135263928574	7.681748110301786
O	-8.297320953053573	0.7770595933928576	7.017462960301786
O	-7.972067543053572	-0.9364668806071424	10.433518320301786
O	-4.6685447130535715	-2.7474439936071424	9.848432190301786
O	-1.0734290030535716	-2.4695486936071425	11.005517210301786
O	1.2761431679464286	-2.9524329436071426	8.146771670301785
O	4.938820216946429	-3.7437275036071425	8.767100670301787
O	7.900324836946429	-4.1695847336071425	6.315382340301786
O	7.281867406946429	-7.908234023607142	5.851058700301786
O	0.7764473839464285	-7.391420593607142	8.711980500301786
O	2.8317632169464284	-10.995874633607142	2.224658360301786
O	2.1385394569464284	-12.636789433607142	-1.102557369698214
O	-6.507878503053571	-6.675961513607143	-5.273197849698214
O	-7.908675803053572	-3.3493413536071426	-6.448793079698214
O	-4.271963683053571	-2.1496753536071425	-6.633905209698214
O	-5.080784023053571	0.4132904583928576	-9.329005819698214
O	-8.380974343053571	1.7969406163928576	-10.517395589698214
