83

O	2.031928696214286	0.0389714783571431	-1.1119777218678577
O	1.5995002562142855	1.3175528393571432	-1.0949713173678577
O	1.5478883462142858	1.845128687357143	0.11980577783214241
O	1.0615725162142857	0.2011407923571431	1.8448752278321425
O	0.5978995962142857	0.9342793343571432	2.9547578578321425
O	0.4801241762142856	-1.0709026026428567	1.5269373478321424
O	1.6176941462142855	-1.799393242642857	1.2869252478321425
O	2.8863346062142856	-1.2141959126428568	0.8892602878321423
O	2.4688098462142856	-0.10790030964285685	0.09262514783214248
O	1.869274326214286	0.7800295513571431	0.9286313478321424
O	1.3855720362142858	-1.230963172642857	-1.5155536461678576
O	0.4444898362142857	-0.8858826826428567	-2.4456379321678576
O	1.0184385462142858	-1.234788462642857	-3.6662258321678576
O	0.24520776621428575	-1.2472134226428568	-4.754214072167858
O	-1.0893621287857143	-1.0197069426428569	-4.745636722167857
O	-1.5812620957857142	-1.1214960026428569	-3.5525681821678576
O	-0.8279957769857142	-1.1423550526428567	-2.432234202167858
O	0.4122343662142858	1.3163781743571432	-1.9873193731678576
O	-0.8051160823857143	1.527095427357143	-1.5956838151678576
O	-1.7010577277857144	1.5779355873571432	-2.6615091621678575
O	-1.3073298157857143	1.9196525273571432	-3.8857974221678577
O	-0.013828919785714322	1.7770922973571432	-4.138447302167858
O	0.9377975862142858	1.6488792873571432	-3.1281148621678576
O	-0.9023923027857144	1.122633007357143	-0.33493933216785765
O	2.2371199162142856	1.3763203763571432	-3.3282782521678578
O	2.3138561762142853	-1.4676260226428568	-3.3946860721678576
O	-1.1955258457857143	-1.421795592642857	-1.1258645285678577
O	-13.838964173785714	6.192461347357144	5.041840317832142
O	-7.627705803785714	8.296409327357143	0.8554048178321425
O	-3.9645752037857145	7.577653977357143	1.5075113978321424
O	-1.3400536517857145	9.398959037357143	-0.5339996711678576
O	1.4937218262142855	7.513449047357144	-2.2375177921678575
O	4.056820516214286	9.654772747357143	-0.8018127161678577
O	2.9678633262142853	8.504832967357142	2.6192419778321425
O	3.798253716214286	4.818551097357143	2.0119780078321425
O	6.930202626214286	3.303889717357143	3.856116247832142
O	8.748481506214286	1.2097712793571431	1.2614361878321425
O	8.243413376214287	-2.554917302642857	1.6265057278321424
O	10.452935526214286	-5.641379502642857	0.9602358378321423
O	7.363495806214287	-7.603843542642857	-0.30490465716785764
O	3.7117677762142858	-6.759422192642857	-1.2412575797678576
O	0.6468061162142857	-8.861204602642857	-2.081430741167858
O	-2.7101959237857143	-7.750631622642856	-3.4619566321678574
O	-5.777053843785714	-9.788259422642858	-2.8025188121678575
O	-9.358471763785714	-8.787668482642857	-3.6696974421678576
O	1.9860609662142859	-5.9752409426428565	13.778235537832142
O	5.051149806214286	-6.293196652642856	11.532246237832142
O	2.607823686214286	-6.599611002642857	8.644407837832143
O	0.7062272562142857	-3.835184292642857	6.998832327832142
O	-2.789636543785714	-4.2129073726428565	5.558015667832143
O	-4.678268863785714	-1.4041698726428569	3.8912682178321423
O	-8.441322453785714	-1.699991962642857	3.3572981878321424
O	-9.785443293785715	-0.04628044064285691	0.22463550783214248
O	-13.224705673785714	-1.045322772642857	-0.9819262541678576
O	-13.166784373785713	-4.784125582642857	-1.4501246831678576
O	-9.434899963785714	-4.915464222642856	-2.0440986601678577
O	-6.746657393785714	-5.748763682642856	0.4820725478321424
O	-3.1613507237857146	-4.845713822642857	0.30176551783214234
O	-0.4591535137857143	-6.295407862642857	2.1699854878321423
O	3.2251391462142855	-5.704001192642856	2.7829144378321424
O	6.086933646214286	-6.731371232642856	5.159062527832143
O	9.873143426214286	-6.763936912642857	5.352882057832142
O	3.963365526214286	-4.710618552642857	-9.938615112167858
O	3.6739764662142855	-2.026893882642857	-11.221050262167857
O	0.20822034121428568	-1.4963099126428567	-9.722031802167859
O	-2.2361759637857146	1.1711100663571432	-10.898401322167858
O	-4.704101603785714	2.739406347357143	-8.389567592167857
O	-6.675086203785714	6.055549637357143	-7.937865322167857
O	-1.1249245687857143	6.6014404573571435	-9.908414932167858
O	1.5353103962142856	4.058974597357143	-10.891149522167858
O	3.150546216214286	2.450305027357143	-7.981245102167858
O	6.532799236214286	0.6905564323571431	-8.188230342167858
O	8.445215236214286	-1.3186268826428569	-5.522943482167857
O	10.498799526214286	1.7010360273571432	-4.393276862167857
O	5.755533906214286	6.113093167357143	-7.5176114321678575
O	8.641460936214285	6.523611147357143	-0.40444251516785756
O	8.631377636214285	7.771470567357143	3.1328164278321426
O	11.285745226214287	6.9951477573571434	5.718074977832142
O	-2.339506053785714	8.734786127357143	5.830707937832143
O	-5.782637113785714	7.119510157357143	6.207338667832142
O	-3.9779842837857142	3.7743810273571428	6.276950267832142
O	-6.704449633785714	2.077415777357143	8.314824407832141
O	-10.222482113785714	3.151920857357143	9.071485937832142
