78

O	0.0890130828596496	1.9580242784842101	0.6627961980684213
O	3.90938349585965	-2.23702784151579	-1.3435812229315787
O	0.9526115458596495	1.0610262484842103	-0.09755791593157864
O	-1.8612906431403504	1.9800469284842102	1.6713313570684214
O	1.6936839158596495	1.1675629204842102	-1.2394676829315787
O	-0.7888036651403505	0.07879340048421021	1.6080950370684213
O	2.32218631585965	-0.08075928151578979	-1.6276273329315787
O	3.07425716585965	-0.8172530115157899	-0.7161304669315787
O	2.4209025658596497	-0.6863131815157898	0.46284032206842135
O	1.2023583658596495	0.015296249484210211	0.7433019940684213
O	0.04089468385964956	-0.8047746315157898	1.1541677970684214
O	0.3174441558596496	-1.3409867315157897	-0.13331517893157863
O	-0.28258969214035046	-1.5463361815157899	-1.2234761629315787
O	-1.0035266101403504	-0.39452274751578986	-1.9201088929315786
O	-1.8097798591403504	0.7937750814842102	-1.6750046229315787
O	-2.1034994341403506	-0.04487744251578976	-0.7030155449315787
O	0.6593276358596495	-1.88778164151579	1.9622439870684214
O	-0.6604373831403505	1.4923095084842102	1.7804205070684214
O	0.3446614658596495	-3.1045599815157896	1.3514883770684214
O	1.8998120758596495	-1.5772691615157899	2.2772141170684215
O	1.6847130558596497	-2.5930393615157894	1.0238889570684213
O	1.3573717058596495	-1.1755644815157897	-16.73590563293158
O	5.534649375859649	0.9255011644842102	-10.579114932931578
O	4.41212450585965	2.8093539484842105	-7.4914018429315785
O	7.15648405585965	4.17558553848421	-5.228261652931579
O	6.803665045859649	3.5177918384842104	-1.4858223429315787
O	7.308566595859649	7.144573208484211	-0.7126979969315786
O	4.14490349585965	7.9575563784842105	-2.619431252931579
O	1.7439901558596498	5.80642451848421	-0.45835734293157865
O	-0.6087969861403504	7.5456204084842105	1.9763465070684214
O	-0.35310187814035043	5.92064734848421	5.3926449770684215
O	-3.3298607941403504	3.6730931184842106	6.181176427068421
O	-5.121069114140351	2.5974910184842104	9.355405557068423
O	-5.58767425414035	-0.9601119015157897	7.991740167068421
O	-4.20530371414035	-2.9061016415157894	4.984791387068421
O	-4.926492424140351	-6.38382620151579	3.5478308670684213
O	-2.9916117341403505	-8.32945567151579	0.9110668460684214
O	-4.87323750414035	-10.87580570151579	-1.1285688829315788
O	-3.58206027414035	-12.79495880151579	-4.168340412931578
O	-12.726583344140352	5.54043674848421	0.7002597430684213
O	-10.86814674414035	2.3263456184842104	-0.04369515933157863
O	-7.575644624140351	1.9635674284842102	-1.8735254829315786
O	-6.827327854140351	-1.0476568115157898	-4.0828465829315785
O	-3.5030628941403505	-1.3800349615157899	-5.8966083929315785
O	-3.2409286241403503	-3.8878247115157896	-8.703027572931578
O	0.12935250585964952	-5.548898211515789	-9.205292742931578
O	-2.1226545141403506	-11.142698101515789	-9.686738462931578
O	-1.8740790671403504	-9.55464002151579	-6.251327692931579
O	-4.21323298414035	-7.055522981515789	-4.688046182931578
O	-3.2813882941403505	-4.69971040151579	-1.9004186029315786
O	-6.224999354140351	-3.0314783515157897	-0.023447772431578633
O	-6.215268494140351	-0.23404002151578981	2.5804792370684213
O	-8.66693784414035	2.0882066484842103	4.340604517068422
O	-8.96085716414035	4.2120575684842105	7.460000377068421
O	-15.221102144140351	-4.452052161515789	3.741085787068421
O	-12.575778044140351	-7.02767318151579	2.9082434670684214
O	3.2467706758596493	-6.8695239915157895	7.882341557068421
O	6.061206835859649	-6.22469585151579	7.202813897068421
O	5.353774595859649	-6.7408297915157895	3.4511684470684214
O	8.223522855859649	-7.20988551151579	1.0563918570684214
O	7.836464315859649	-6.20792472151579	-2.573270172931579
O	11.36327005585965	-2.8329359715157896	-0.2952648809315786
O	10.15123555585965	-3.4900899315157896	3.214822017068421
O	6.660479595859649	-1.83217315151579	3.6020401770684214
O	5.760452945859649	-1.32360726151579	7.345189807068421
O	2.5042856458596496	0.1492307988842102	8.813690737068422
O	3.8533525658596495	3.7166016784842104	8.908972617068422
O	7.376698205859649	3.5367642984842105	7.530447297068421
O	9.17873555585965	1.8707555484842102	4.613992997068421
O	7.782885985859648	7.891858758484211	6.069377677068421
O	4.599795685859649	7.926619968484211	4.033468157068421
O	3.0499306658596494	10.82738789848421	2.184900907068421
O	0.6401633558596495	13.364159498484211	3.6147675870684215
O	9.894833455859649	10.61689899848421	2.3394110070684215
O	2.2794798558596496	7.01580136848421	-8.429196432931578
O	0.9427864558596496	4.39942199848421	-10.820797332931578
O	-1.5676837891403506	3.4948922684842105	-8.182412412931578
O	-4.106347854140351	2.2050749184842102	-10.671654432931577
