86

O	-0.19162074794827572	-0.8796586689379311	1.9324600901155164
O	1.5478452780517242	0.02279799406206895	0.6451635201155166
O	-0.3916491162482757	-2.2492535989379308	1.7746432901155165
O	2.307945068051724	1.387073040062069	-2.3193174298844834
O	0.25805754405172426	-2.647546078937931	0.5122919511155164
O	2.8203887680517243	-0.18464944393793103	-0.6263098808844836
O	1.5841694980517242	-2.389382668937931	0.2617416071155165
O	1.7778653280517245	1.805215391062069	-0.3589721031844835
O	1.8190986580517243	-1.2979971289379308	1.1541843901155164
O	-3.8720030619482757	0.7895467681620689	-0.6003887708844835
O	0.5734938480517244	-0.602334588937931	0.8180060301155165
O	-3.021447591948276	-1.426100818937931	1.4581180201155166
O	0.6503797980517243	-0.31252397893793105	2.951069120115516
O	1.8329891280517245	-2.159303728937931	2.3387324101155165
O	1.1165133680517243	0.777908311962069	-2.6823123498844836
O	0.8773402380517243	-0.429030168937931	-1.8567584698844835
O	1.4964384980517242	-0.35494074893793104	-0.7041588528844835
O	2.7285065480517243	1.0976971300620688	-1.0443847408844835
O	-2.089081231948276	0.918321079062069	0.7528232501155165
O	-0.9839036939482757	1.630223861062069	1.1283759401155165
O	0.1733832000517243	2.0007107410620693	0.6143543601155166
O	0.5356932380517243	1.6618154720620688	-0.7384777178844835
O	-0.6831039479482757	1.470098058062069	-1.2168682738844836
O	-1.6014971819482757	0.718077342162069	-0.6176095428844836
O	-3.3623596819482757	1.516228223062069	0.5001243411155165
O	-1.5947164619482757	-1.465444618937931	-0.22069239888448353
O	-0.3889818678482757	-1.920047198937931	-0.49144697258448355
O	-2.315790901948276	-2.2859670589379313	0.6834036301155166
O	-7.241369961948276	9.23449980106207	-0.6834244198844835
O	-3.5740843119482757	8.57044009106207	-0.23417716988448353
O	-2.0478912919482757	8.93651464106207	3.208747830115516
O	0.11020494405172426	6.070604051062069	4.5501521101155165
O	2.851005698051724	8.578260551062069	5.386352720115516
O	3.198718078051724	9.28388127106207	1.6890989901155165
O	3.9762406080517243	5.626186221062069	0.6336737101155165
O	7.571549098051724	4.8098929810620685	-0.39486073758448353
O	8.768878008051724	1.686931271062069	1.4404625601155165
O	8.628692748051725	-1.403972818937931	-0.8422800928844836
O	10.652600958051725	-4.690430738937931	-0.9490815758844835
O	7.452769218051724	-6.642497898937931	-1.9233275398844836
O	3.669947168051724	-5.871048518937931	-2.0527526298844836
O	0.7007543280517243	-7.844442868937931	-3.3807004398844835
O	-2.983864911948276	-7.222089378937931	-2.963976119884484
O	-5.400971361948276	-8.455278458937931	-5.5231400998844835
O	-9.124452891948275	-7.641933038937931	-5.716389569884484
O	6.1988604380517245	-1.189637528937931	-10.437237089884484
O	3.619157618051724	0.688900358562069	-8.356962389884483
O	-0.0774680759482757	0.071856516062069	-8.530768269884483
O	-2.611931031948276	1.960045271062069	-6.632300309884483
O	-6.2808026319482755	1.782132991062069	-7.665376159884484
O	-8.859909791948276	1.940999421062069	-4.919392209884483
O	-12.337551241948276	0.747535969962069	-5.378973209884483
O	-12.168852141948276	-2.703670618937931	-6.875196619884484
O	-8.879663621948277	-3.454060188937931	-5.147782279884484
O	-5.443708071948276	-3.291779798937931	-6.725718979884483
O	-2.2657897319482756	-2.826155518937931	-4.789693289884483
O	1.0466944780517244	-3.6123073289379315	-6.203899399884484
O	4.572340648051724	-3.1167559189379315	-5.0031816698844835
O	8.167975708051724	-3.239768028937931	-6.388805049884484
O	5.627485648051724	-9.81792416893793	-12.463861289884482
O	2.450041928051724	-10.39568396893793	-10.488733489884483
O	-4.040132491948276	-11.74059786893793	1.7491900501155164
O	-0.9443556349482758	-11.13746546893793	3.900399120115516
O	0.5639807480517243	-8.24240190893793	6.0312830201155165
O	-0.33302309494827576	-6.4754028389379314	8.265641340115517
O	-3.028196001948276	-4.947049548937931	6.092690530115516
O	-5.948263561948276	-2.9204740789379313	7.547945240115516
O	-7.5989639119482755	-0.170247832937931	5.408345020115516
O	-9.225163171948276	3.216361811062069	5.673389880115517
O	-8.673556861948276	2.9630714910620686	9.467378360115518
O	-4.907020491948276	2.265884811062069	9.399312030115517
O	-2.619152741948276	-0.6803577789379311	10.032526110115517
O	-0.030767416948275728	-0.863929048937931	7.363762410115516
O	3.062714988051724	-2.901393708937931	7.857053640115516
O	6.140316168051724	-3.7181868789379315	5.692677330115516
O	8.111579598051724	-0.680725348937931	6.859291740115516
O	5.945471478051724	1.128054632062069	9.388693220115517
O	2.2839755480517243	2.201789521062069	9.722634010115517
O	7.706178218051724	5.349719691062068	8.922894540115518
O	7.428532618051724	5.517199141062068	5.174745560115516
O	8.663044898051725	8.270070111062068	2.907029220115516
O	6.359698818051724	10.24912640106207	9.036580940115517
O	-0.6292463099482757	11.463938631062069	-2.6305341798844837
O	-3.534716061948276	10.57204636106207	-4.914173849884484
O	-1.5178823919482756	7.494015171062069	-5.906682059884484
O	-3.200659181948276	7.2177099210620685	-9.278569039884482
