30

O	10.895098331207123	12.357214055007104	22.19432196752654
O	10.21468728963216	15.33174939408306	20.49666373248629
O	10.851535465452937	14.038252511357078	14.590270494717382
O	10.41416204764255	14.609162095048283	17.557339862805982
O	10.535996356075616	11.089024019441565	18.535901861020825
O	10.950175729708842	11.631370058569203	19.65495048712722
O	10.164409804494527	11.906343667401904	20.716661383585265
O	9.053534871719997	12.50182092323944	20.198798838726677
O	8.895546501970996	12.573289943166582	18.876899975659374
O	9.290239799458874	11.422685205326399	18.378041415881427
O	7.668915611159344	12.901887633472047	18.041417455767682
O	9.47276302336294	14.319114525287258	15.009511668889775
O	9.376193223840296	12.164668152031801	13.68516700345566
O	9.24177485695403	10.733588661399653	15.487371429381447
O	10.50647644226089	10.916372749411934	15.694956127578088
O	11.008717347134038	12.073153995624368	15.068581008545934
O	10.586624088014897	12.700474818566681	14.019173926350733
O	8.799747307662042	11.147244698222003	14.32609130012667
O	11.26618914277579	11.41199014455182	17.341940368191686
O	9.255004942706389	13.19487663460709	15.80051783986862
O	10.645425064528089	14.75086284549748	18.934807806657616
O	11.83018595115568	14.137350251996004	19.175612994012347
O	12.01550586685625	13.079786368540091	18.350278471386098
O	11.232216465752579	12.807822553861584	17.17870467407161
O	10.192552075737655	13.496625903643798	16.873388925360825
O	8.921891589403584	12.858353000994475	12.767720981461398
O	9.014384171349507	9.77027023784197	16.17131689467711
O	7.167932376862828	12.104338031313642	17.183170983143704
O	6.517493228170801	10.922232817903973	17.555213699287577
O	6.405944268114622	9.926436823959317	18.181313494927327
