20

O	13.045596449515525	12.765344749243924	18.005198300353467
O	14.100904252395662	13.61537307257411	17.495432272243153
O	9.7500162405529	10.163912856856854	18.27955292755504
O	10.11910781634717	12.227951194392851	14.940865038698043
O	11.848081490839762	13.48413612823301	17.883109523402464
O	10.723266498741305	13.400264207508117	18.7288942214372
O	11.259214988528212	13.529561083051496	19.920476646691963
O	10.413353460310402	12.889268647862801	20.77389148479983
O	10.114260289470526	11.567498317786121	20.35940271441138
O	9.438658672057104	11.415531573063955	19.13523702239032
O	9.733133735443754	12.541070948266363	18.35507302361813
O	9.300655572185386	12.370638687302828	17.078547429282
O	9.68069126740764	12.944222632665731	15.853242088090784
O	10.542902274185751	14.073870612840782	16.005792046361215
O	10.559283382551516	14.873574824065967	14.957575472480315
O	11.251389525911689	16.049657548967616	15.418794310267621
O	12.617880012744715	15.695367156947135	15.327798942075251
O	12.792711155459997	14.770622044107647	16.316576398523924
O	11.72514233880702	14.05883250016913	16.638729601688713
O	13.88884464015299	13.457575736030387	18.929937234248907
