23

O	11.139291705184085	12.080017175421393	15.570571623263543
O	11.69254976265304	11.404059488468068	16.77639911662736
O	9.596996463772706	10.37371751698219	16.272581912377714
O	10.115374596129332	10.214758782292103	14.969842665516794
O	8.731086014105129	10.279215191359985	21.44863322695813
O	9.331257870885814	15.11040715003226	18.57555923633929
O	8.954254501169137	13.900078897985358	19.0276921668186
O	10.740161808979167	16.12702945973755	17.245335725193716
O	9.218415539898938	12.702635324911995	18.559279120642255
O	9.869520268725804	12.93095096143702	17.421704914300467
O	9.454742128428947	12.351967524568558	15.980146558206496
O	10.92140859932067	13.832170436701489	17.835708231131186
O	10.54544846562274	15.178381735529472	18.08591922658049
O	8.33555705138461	11.752423899008933	19.071287710007994
O	8.479541898947623	11.745830484604841	20.498598588854417
O	8.229723960683598	12.910645701035598	21.166767758274226
O	8.58597317796125	14.014390440808958	20.441526908376982
O	11.968199332270213	13.90331188822367	16.806769842432015
O	11.339133537804367	14.722719713131344	15.772848533704913
O	12.247504891425498	14.312493152885889	14.583142788651767
O	10.616736604293262	10.682459468452157	17.445430517621997
O	10.879501163322848	11.232110925991979	14.5164565840449
O	8.825199448823712	13.103575428986339	14.869826163801505
