28

O	11.527420172151995	14.808547018163889	21.571476571389336
O	11.09980455282358	14.354359696188219	16.093189392534025
O	9.429515784574873	12.388860655491769	16.848196399458153
O	10.77929345782514	12.253537580964856	16.954342245782414
O	11.74496404179707	13.150775077233128	16.493568738753854
O	9.131106622247726	13.375783875830937	15.911668274947509
O	10.100291942890872	14.0377842541675	15.166930728363582
O	10.939327434086596	11.425238999178632	17.977129926765894
O	10.463709808019768	11.956726751154534	19.190301462234174
O	10.303914195975077	13.299346773799254	19.52662353882098
O	10.55019084340987	13.592068022123732	20.8379685566866
O	10.133561317551038	12.619762768528243	21.745218815927203
O	10.047155528717662	11.28477490597588	21.355682686405014
O	9.844711684516986	11.087244929213936	19.992980338679324
O	10.271585819197975	10.342341579385032	22.39769208759683
O	7.911702048192481	12.886950130969685	15.482837731649838
O	10.05201358856003	9.638866839414982	23.298990970164585
O	8.194640994386383	9.243488156826974	13.324235373043935
O	7.270946919787995	9.077943524450173	14.225107421720208
O	7.782753129858957	9.021929645596959	15.50358274049483
O	8.796787193621757	9.886721868504502	15.94395615956502
O	9.033454507537831	10.25845752257567	13.726626615959104
O	9.065037390198166	10.832265094024022	14.950571711207553
O	8.589743817111131	12.092933022551762	14.491072672412194
O	9.55887492211389	12.405087047300393	13.553979321710488
O	9.292288344106074	11.322430220412532	12.894011419666462
O	12.77856412239436	13.743777504661413	18.038702697313585
O	8.47343974277199	12.204825584188606	17.88889805811087
