75

O	-1.7923712135011112	-1.4283885178870372	-0.7182415244814813
O	-1.3734119545011112	1.0258708831129626	4.5511285765185185
O	-1.951555086501111	-0.9854837478870373	0.6071510645185189
O	-0.47469190650111115	-1.9266223578870372	-2.4023044334814814
O	-2.7377848065011112	-1.4725288378870374	1.677447186518519
O	0.5436915834988889	-1.2112202578870372	-0.5742985144814812
O	-2.225380166501111	-1.2867768778870372	3.0221232965185187
O	-1.7618406595011111	-0.042975440887037364	3.2443471465185185
O	-1.0110639415011111	0.38954623811296263	2.1439174565185186
O	-0.7829912185011112	-0.5619777578870373	1.1109208395185188
O	0.6183697434988888	-0.6285792678870372	0.5894262315185188
O	0.802247213498889	0.8086388251129626	0.9046779315185189
O	0.40638242349888887	1.8223481421129628	0.3084447315185188
O	-0.4689751965011112	1.6839572421129627	-0.9223418134814811
O	0.6155862934988889	1.0785306181129626	-2.0029193334814814
O	-0.7004611575011112	1.2040642691129626	-2.218855323481481
O	1.222663493498889	-1.1996049578870374	1.8214472665185188
O	-0.5710939635011112	-1.7929753078870372	-1.128703603481481
O	0.834597953498889	-0.39040357688703736	2.9815932665185185
O	0.5684616234988888	-2.1824206378870374	2.1556693965185185
O	2.3356179634988887	-0.4859737188870374	2.025329646518519
O	-2.467953196501111	14.414629972112964	-7.695009553481482
O	-5.539606996501111	10.298297662112963	-1.8959632934814812
O	-6.019450366501111	6.577327812112962	-1.6230881534814812
O	-8.193049226501111	5.252476082112962	1.1483972795185189
O	-6.916156646501111	2.4170184921129625	3.2502297165185188
O	-10.094069666501111	0.44041768331296266	2.700619716518519
O	-9.25990443650111	0.3254523141129626	-0.983033603481481
O	-5.933289266501111	-1.4985296378870372	-0.6781513944814812
O	-5.5383730365011115	-5.1602528878870375	-1.625575553481481
O	-3.7980892065011114	-6.9972825078870375	1.159954486518519
O	-0.19903613650111107	-7.880722787887037	0.3546188035185188
O	2.1591112834988886	-10.698571427887037	1.372890046518519
O	5.113981933498889	-8.279999387887036	1.646564566518519
O	5.6572829034988885	-4.5574503678870375	1.6275013565185188
O	8.538868773498889	-2.1015979478870377	1.612455096518519
O	8.57303303349889	1.6423826121129628	2.2183825365185186
O	11.331573693498889	3.6151897621129625	0.6636148305185188
O	11.621602793498889	7.404509052112963	0.6378031175185188
O	3.0669786834988884	-5.820838417887037	-13.15659866348148
O	2.816308063498888	-8.278867917887037	-10.25164236348148
O	4.259239363498889	-5.495268737887038	-8.105122623481481
O	2.3894458434988888	-2.5142844578870376	-6.712695433481481
O	3.932608933498889	0.8451210101129627	-6.1749801434814815
O	2.227680233498889	3.8713365221129625	-4.974517993481482
O	3.6395481934988885	7.327775812112963	-5.307014683481482
O	2.9565532134988883	9.766815772112963	-2.4948700134814814
O	7.733486943498888	8.334630992112963	-0.6061602824814811
O	7.338414963498889	5.047494562112963	-2.412723203481481
O	5.245029023498889	2.1523958921129624	-1.074509293481481
O	5.791516463498889	-1.2318454378870374	-2.5952280334814812
O	4.026474433498889	-4.532860497887038	-2.2061127534814813
O	3.845310983498889	-7.979930207887038	-3.860967933481481
O	2.744845853498889	-11.526721427887036	-3.100359913481481
O	6.182483553498889	-13.147464727887037	-3.2274366634814813
O	4.912878533498889	-2.0326928078870377	10.146221256518519
O	2.6884654934988887	-0.6438298878870372	11.49808883651852
O	2.9301752934988885	2.3128762821129625	9.130534316518519
O	1.3196835234988888	5.607936292112963	9.96218408651852
O	0.1729061234988889	7.881488382112963	7.154970376518519
O	-4.209464946501111	6.076234402112963	9.73334314651852
O	-2.452157636501111	3.0563546721129624	11.14018193651852
O	-1.8328728325011112	0.5388044468129627	8.41702506651852
O	-1.0848160515011112	-2.9942819878870375	9.46560683651852
O	-0.21481291650111112	-6.095976507887038	7.419808276518519
O	-3.853527766501111	-7.213861907887037	7.0741523565185185
O	-6.104736416501112	-0.8255735878870374	9.221063036518519
O	-8.553439756501112	-4.9008519678870375	3.1655790965185187
O	-10.23925461650111	-5.262585487887038	-0.18159519048148115
O	-10.68473016650111	-8.515791557887036	-2.0535239934814813
O	-8.36018605650111	4.595369242112962	-5.330953233481481
O	-5.830896436501112	7.063499612112962	-6.663520303481481
O	-3.2973530865011114	4.263218702112963	-6.600659173481481
O	-1.2153321444411112	5.815416952112963	-9.36988517348148
O	-1.3229291165011112	9.243463492112964	-10.95989156348148
