84

O	-1.3205644149428575	-1.534245135660714	-0.12349510890892901
O	-0.3944449829428575	-0.41060395066071387	1.8953596560910708
O	-2.2625772099428576	-1.0816448956607139	-1.125605814908929
O	3.4049695000571427	-0.8485051156607138	1.692435346091071
O	-2.0423466699428574	0.2569230833392862	-1.317985363908929
O	1.1344255000571426	-1.2558564456607137	1.536193036091071
O	-2.954074389942858	0.4812621996392862	-0.081515452908929
O	1.6408114400571423	-2.511190895660714	0.823889426091071
O	-2.0778011999428574	0.1709385693392862	1.008442606091071
O	2.0513925800571426	2.780602494339286	0.4391004060910709
O	-0.8539115999428575	-0.46313562566071387	0.684214661091071
O	-0.4854142763428575	2.7002075543392863	1.954020896091071
O	-1.7538889399428574	-2.752740125660714	0.29392792409107094
O	-2.6858470799428575	-1.0540851056607137	1.594661096091071
O	3.2796959300571427	0.4316874873392862	2.301901086091071
O	1.8324988300571425	0.6956525583392862	2.532795956091071
O	0.8594453800571424	-0.09890346166071384	2.032324566091071
O	2.3780380400571426	-1.7469356656607138	1.733061156091071
O	0.7549532300571424	0.8984349443392862	-0.547295897908929
O	2.1222256300571427	0.49277159463928616	-0.407960446908929
O	2.573877640057143	-0.6996609256607139	-0.184208177808929
O	1.7217890100571427	-1.8175531656607138	-0.348378955908929
O	0.8621238300571425	-1.4446349056607137	-1.334582463908929
O	0.8163661900571424	-0.028652100660713775	-1.639068963908929
O	0.9978280600571425	2.2776331143392863	-0.305683771508929
O	-1.0213082389428574	1.996436214339286	-0.05992753890892902
O	-1.9984202199428576	1.5779138943392863	-0.9954321759089291
O	-1.5192588199428576	2.784621624339286	1.0213521060910709
O	0.45547650905714254	10.212601494339285	5.231474416091071
O	1.6070168000571423	6.6670675943392865	5.870342446091071
O	-0.16285791794285748	4.646105554339287	8.520962066091071
O	-1.3412043259428574	1.1214204343392862	7.747768976091071
O	0.3763353010571425	-0.18560495266071386	10.839349636091072
O	3.7022930400571425	0.8692379703392862	9.38425796609107
O	3.4077025600571424	-1.2234549356607136	6.090678916091071
O	5.5691148900571426	-4.377444395660714	5.807506406091071
O	3.438065990057143	-7.341778365660714	4.711438466091071
O	3.8505183200571427	-8.106957005660714	0.978609566091071
O	3.591845150057142	-11.345657795660715	-1.088830220908929
O	2.0257993600571425	-9.370619375660715	-4.015164053908928
O	0.6250801700571424	-5.818079425660714	-4.493054983908929
O	-0.5916035551428576	-3.8745176856607135	-7.524580943908929
O	-2.3938150699428578	-0.5528002856607138	-7.577300593908929
O	-2.1302069499428575	1.5272610413392862	-10.680886963908929
O	-3.442901759942857	5.064159404339287	-11.204957363908928
O	10.313073530057142	-3.4849143756607135	-4.953171473908929
O	8.258178060057142	-0.9336364356607137	-2.992018603908929
O	6.499043850057142	1.9879358543392862	-4.709879623908929
O	4.504036710057142	4.523036904339286	-2.747701713908929
O	3.4031390800571426	7.836795494339286	-4.410993913908929
O	0.02518489605714247	9.233327984339285	-3.319120873908929
O	-1.6994256099428575	11.783401104339285	-5.422569233908929
O	-1.9483515099428574	10.337552714339285	-8.901357323908929
O	-1.9977349999428575	6.774161724339287	-7.645001183908929
O	0.9382756400571426	4.360681764339287	-7.511437113908929
O	1.1664580000571425	1.3739295063392862	-5.093894403908929
O	3.5688685000571425	-1.3989600856607138	-5.864917653908929
O	4.492071470057143	-4.414829225660713	-3.748680433908929
O	7.213821590057142	-7.123407765660714	-3.694155663908929
O	7.974291800057142	-6.519670105660714	-12.98465976390893
O	4.679245270057142	-4.659737075660713	-13.124131263908929
O	-8.262648229942858	-5.969849495660713	-6.337311423908929
O	-8.000490629942858	-6.402845255660713	-2.509881903908929
O	-9.467029619942856	-5.410113795660713	-0.124680911908929
O	-8.448248169942858	-1.8395073156607138	-0.8705749399089291
O	-10.211222939942857	1.1335303933392862	0.7787817760910709
O	-8.332681999942857	4.439813374339287	1.305824376091071
O	-7.938680029942858	7.3457823643392866	3.761965026091071
O	-10.724375169942856	5.693037934339286	5.861592696091071
O	-9.163892429942857	2.206258124339286	6.232565726091071
O	-9.560798019942856	-1.2430107856607138	4.779257566091071
O	-6.332520539942858	-2.790497875660714	3.771741316091071
O	-6.126885919942858	-6.514894735660714	3.314044416091071
O	-3.2901046199428574	-8.857969745660714	2.225938856091071
O	-2.0281888899428573	-9.417121205660715	5.781781846091071
O	-4.286399549942858	-7.417096515660713	8.071122516091071
O	-5.855770899942858	-3.9377036456607137	8.137032666091072
O	1.5044658600571423	-5.443322965660713	9.54422220609107
O	4.979962560057142	-4.517375375660714	10.66534763609107
O	6.0479297600571424	6.261370684339287	7.554738366091071
O	6.023228710057142	8.859259784339285	4.798970036091071
O	6.616547220057142	6.005227224339286	2.390788786091071
O	8.327490060057142	8.230892674339286	-0.171791612008929
O	8.553478700057143	11.999528904339286	-0.435398515908929
