75

O	-1.1411600277472727	1.3261170581090909	1.7363156185454545
O	-0.0893483807472728	2.197821690109091	2.1967085585454544
O	1.0891368592527273	1.393189580109091	2.1997998985454545
O	0.8321701092527272	0.32534404900909086	3.0728563585454545
O	-0.4800191167472727	-0.18719298389090916	3.172224128545454
O	-1.3055534995472728	0.06024607910909091	2.1212999085454545
O	-2.168461636747273	-0.48059174689090906	1.2067974485454545
O	-1.9310648927472727	0.2528135033090909	0.1488465285454543
O	-1.7630949577472728	0.4231214101090909	-1.2578243014545456
O	-1.9769361637472729	-1.152621999890909	-1.8538185914545455
O	-0.6567267447472728	-1.9604320898909091	-1.0301949394545458
O	-1.6973938257472727	1.392115290109091	0.5863097145454542
O	-0.05719110074727274	-1.440668369890909	0.021175150545454297
O	0.4775326892527272	-2.301032889890909	0.8368179035454543
O	1.6695210692527274	-1.8881947398909091	1.6122633385454543
O	0.7427192592527272	-3.499886059890909	0.23823757254545427
O	0.3823065692527272	-3.848129259890909	-1.0697378244545457
O	0.027223609252727154	-2.8087963898909094	-1.8567573414545455
O	-2.5054170707472725	1.358178960109091	-1.9184705314545456
O	-0.47877059674727274	0.7668915211090909	-1.7651980314545457
O	13.918373969252727	-4.939065929890909	5.566627558545454
O	6.424278009252728	-4.871841169890909	7.497719388545454
O	3.4399315092527276	-5.646830119890909	5.439860928545454
O	0.0720063692527273	-6.0161562298909095	7.0078520685454535
O	-3.0240141307472728	-4.200362629890909	5.870201408545454
O	-5.006046820747272	-7.327324829890909	5.578890448545454
O	-2.5981094307472725	-8.64958223989091	3.026465278545454
O	-3.181999990747273	-5.794954489890909	0.4529671365454543
O	-5.063297240747273	-6.388205079890909	-2.8312721214545458
O	-7.609705740747272	-3.622444159890909	-3.2324497614545455
O	-6.598673040747273	-1.051222559890909	-5.842208161454546
O	-8.590657670747273	1.1900759701090908	-8.249150961454546
O	-6.065362890747273	4.019269880109091	-7.730463131454546
O	-3.184222470747273	4.78215991010909	-5.415571111454546
O	-0.5535896237472727	7.4882719001090905	-5.159434281454546
O	1.803274199252727	8.210047760109092	-2.2985070114545456
O	5.009878429252727	9.951802760109091	-3.1182912614545457
O	7.932991019252728	10.605381730109091	-0.7826441104545457
O	4.146750609252727	-5.35900494989091	-13.844727001454546
O	1.6462200092527273	-1.6080606498909091	-11.246288201454545
O	2.464518689252727	-2.1145184598909093	-7.6203809014545465
O	5.115457959252727	-0.14349715489090908	-5.763811181454546
O	5.927594269252728	-0.662762379890909	-2.1557016214545457
O	9.168683469252727	0.7036263101090909	-0.6947155344545457
O	8.980650369252727	1.8595354801090909	2.9132307585454544
O	11.712951369252727	4.097068400109091	4.190562868545454
O	11.898561669252727	7.059368000109091	1.8583862085454546
O	8.264689589252727	6.791390630109091	0.8870432085454542
O	6.764007319252728	5.097672080109091	-2.1298312814545457
O	3.240285079252727	3.7199416901090907	-2.4021310714545456
O	1.9485002192527274	3.0885829701090906	-5.925808421454546
O	-1.2705200856472727	1.432768550109091	-7.066577051454546
O	-2.883256570747273	0.024653782109090916	-10.218654401454547
O	-6.290652400747272	-0.774572559890909	-11.696175101454546
O	-6.851406820747273	9.03499309010909	1.4808821885454544
O	-7.3568709907472725	8.042745810109091	4.220664888545454
O	-3.665259650747273	7.30554861010909	4.762499588545454
O	-2.301520071747273	6.7846923901090905	8.256952278545453
O	0.7727049792527272	4.534994870109091	8.665845228545454
O	2.3767131092527274	2.205502530109091	11.252174698545454
O	-3.472180630747273	2.0002337901090907	10.936198798545455
O	-6.005611170747272	3.9054750501090907	8.878207168545455
O	-5.965769640747273	2.7089193101090907	5.322975748545454
O	-8.945664980747273	3.5339180901090907	3.1669422185454543
O	-9.647517990747273	2.832906600109091	-0.5276935844545457
O	-11.334498750747274	-0.5102710418909091	0.15824789054545427
O	-8.704219550747274	-0.603272750890909	6.740914548545454
O	-8.670020970747274	-6.24665490989091	1.5394904485454544
O	-7.4353959807472725	-9.49846583989091	0.1237068385454543
O	-8.749628140747273	-11.21333766989091	-2.9729146914545455
O	3.568273469252728	-9.69866466989091	2.9466684685454543
O	6.974142909252728	-8.01910999989091	2.7012467485454543
O	5.750098019252728	-6.1390413998909095	-0.32087150745454573
O	9.156249769252726	-5.68389989989091	-1.8516673414545457
O	12.547887069252727	-6.228424169890909	-0.3454842004545457
