20

O	11.823322163973613	16.999351304311652	14.004597738821836
O	10.81979286691654	14.55960577325575	16.899083341995787
O	9.471218731708017	14.536727577742555	16.841680948484562
O	8.946030379683217	15.165387731362948	15.839559555603245
O	9.841500685850816	15.859953133654782	15.095721711414651
O	11.166681545959104	16.123346036850588	15.313565049472736
O	11.4381713572087	15.57244522345072	16.46906729769066
O	10.510479182888297	13.225882364245495	14.002415761070857
O	9.473222837384228	12.385969721018995	14.171561252388543
O	9.166491261359312	12.012528351876975	15.449949780458933
O	9.801282334858007	12.23178133272696	16.5329810503443
O	11.092284008436538	12.415045733721605	16.10154526244021
O	11.355110382635345	13.010536517389351	14.978602518429627
O	12.69593290135496	13.207100004830552	14.675912050164662
O	11.283168405991622	13.779650208902597	13.067709328081612
O	12.51368522928191	13.834920278467287	13.492654106217095
O	10.046469345781418	12.065314590158591	17.9606984605341
O	11.081221028153148	13.596630650901185	18.294346738783904
O	7.740291795901495	14.492833465592184	15.451257774286844
O	10.791282850197518	10.814555016009166	18.11621867249594
