22

O	11.4240380305364	14.583106320982258	17.117340915317687
O	10.642159359196825	13.382412192128132	17.17922075881934
O	11.0968349333072	11.230474140271859	16.204308983503385
O	12.763364223439567	15.50343779777462	15.040385021602665
O	11.485530899109577	14.914791090698465	15.699601899945291
O	10.243637707349153	15.209935858948105	15.187010725954316
O	12.194496755159907	12.901767073480482	15.245968953215066
O	12.0867726457694	13.307822997471083	19.105476366105663
O	9.245776988547625	14.225461940569017	15.502226565558457
O	7.937169245155477	10.409447140635363	15.284770535850273
O	9.444678824996593	13.392254862206695	16.553023871503857
O	8.98941074434116	12.116416957992561	16.42842894005459
O	8.085482646825689	11.797586928451956	15.462088799858726
O	8.519029450941833	12.447097020760182	14.344334709179611
O	8.469442455572779	13.83374079838908	14.473626368403977
O	11.436762296822861	12.388460654802525	16.380746152686953
O	11.862000066071595	12.792421637984507	13.951867191308683
O	11.071818152734153	11.542053680427344	13.969124501537387
O	11.305694946892585	13.511046199137093	12.832699869738931
O	12.549969543486238	13.569649317523705	17.317836386120792
O	10.604364397350643	12.331216931398444	19.20458779914375
O	7.7647492519132815	9.744852905698322	16.498942136101707
