77

O	2.678262961891228	-1.427072862926316	-1.727374920494737
O	1.1682072618912283	-3.183054922926316	-1.125482650494737
O	2.002517721891228	-0.9123380229263159	2.885203779505263
O	1.4754914218912283	-1.851007622926316	-1.344062340494737
O	-1.293048607108772	0.00863120107368398	-0.936591274494737
O	-0.13387774910877182	-1.258996282926316	2.301405659505263
O	0.8599105418912283	-0.9214528029263159	-0.49773955449473695
O	1.7686716418912283	-0.981176772926316	0.593968968505263
O	2.819468641891228	-0.125996382926316	0.20238092650526304
O	2.982788411891228	-0.158765740926316	-1.222354340494737
O	0.5093321718912283	1.053656353073684	1.475062649505263
O	1.238288901891228	1.615343377073684	0.42813182550526296
O	0.6574469818912283	2.523842077073684	-0.399277123494737
O	-0.4228121551087718	3.1640819570736842	0.06593558350526302
O	-0.9950033301087718	2.693397427073684	1.200300649505263
O	-0.6062233901087718	1.591926567073684	1.843761239505263
O	-0.4788050431087718	-0.645805982926316	-0.377869960494737
O	0.9130481718912282	2.405928387073684	-1.813169890494737
O	-1.5439043701087718	3.740053967073684	2.083278889505263
O	1.0188488818912282	-0.4635091929263161	2.051866839505263
O	-0.4627698541087718	8.107462347073684	-14.318354970494736
O	3.422626521891228	8.509234537073684	-7.6438550604947375
O	4.753676731891228	5.691157787073684	-5.502042380494737
O	7.165916521891228	6.614920177073684	-2.718105780494737
O	6.485981351891228	5.135755897073684	0.742935280505263
O	10.053836411891227	3.918577557073684	0.967439669505263
O	9.460488211891228	1.6847990670736839	-1.997945650494737
O	6.704411151891228	-0.367021041926316	-0.325252176494737
O	7.113103661891228	-3.9949560829263158	0.860308483505263
O	5.838130521891228	-4.4204553129263155	4.386352229505262
O	2.4653960518912283	-6.2578966329263155	4.540428179505263
O	0.7956789918912281	-8.464337922926315	7.144575979505262
O	-2.670268788108772	-7.004646542926316	6.403352329505263
O	-3.9096504681087714	-3.9590994229263163	4.387825499505262
O	-7.362359248108772	-2.665403872926316	3.464166469505263
O	-8.373933918108772	0.652779604073684	1.9877974795052629
O	-11.450558888108771	0.8929710270736839	-0.04512337039473698
O	-12.691250688108772	3.859406757073684	-2.083000590494737
O	-0.7856824309087718	-12.499640742926315	-7.596808110494737
O	-0.06339173410877186	-12.914991642926315	-3.877008760494737
O	-2.2702306481087717	-9.869809942926317	-3.407782630494737
O	-1.2185767191087717	-6.264890122926316	-4.036929170494737
O	-3.5450590281087715	-3.544085852926316	-5.241283880494737
O	-2.513887228108772	0.0012146840736839692	-5.898221290494737
O	-4.6737900481087715	2.314970637073684	-7.8465235104947375
O	-4.745317688108772	5.957909357073684	-6.945298620494738
O	-10.736705268108771	6.517727947073684	-7.012348190494738
O	-9.090499858108773	4.805459077073684	-4.046004910494737
O	-7.887817458108772	1.2544226410736838	-3.892794830494737
O	-5.439712488108772	-0.08089876492631598	-1.570254490494737
O	-5.029177518108772	-3.8040363429263158	-0.929797217494737
O	-2.508611028108772	-5.975074372926316	1.0216864495052629
O	-1.3599536221087718	-9.559579142926315	1.469949269505263
O	0.5736489818912283	-11.670749542926316	3.8827035595052632
O	-10.113733478108772	-12.210228742926317	-0.061659366394736986
O	-11.295022388108771	-8.646986232926317	0.485236131505263
O	-4.048539178108772	2.7178297470736843	10.133940429505262
O	-2.2687477781087715	5.064075967073684	10.331289829505263
O	-3.2164158081087715	6.268423937073684	6.919767579505263
O	-2.420492408108772	9.752329927073685	5.6604568495052625
O	-1.8134702281087718	10.414189367073684	1.940024339505263
O	2.8731215218912283	11.071304857073685	4.493397129505262
O	1.8401025018912283	9.020658937073684	7.472621089505263
O	1.8994586718912283	5.420288747073684	6.643483909505263
O	2.005780331891228	2.918868877073684	9.510301809505263
O	1.9679551918912284	-0.935535292926316	9.598813829505263
O	5.786272521891228	-1.240858622926316	9.469692109505262
O	7.121416491891228	2.313927517073684	9.335953189505263
O	6.3451735918912275	5.591721377073684	7.527530279505263
O	9.789064911891227	-0.489018832926316	4.359672029505263
O	11.691290011891228	-2.238223782926316	1.612222949505263
O	12.916319211891228	-5.821620242926316	1.688505309505263
O	7.575976181891228	2.606383127073684	-7.868293190494737
O	4.558757181891228	3.379037737073684	-10.034683880494738
O	2.7012397818912284	0.626518017873684	-8.231670500494737
O	0.37053816189122823	-0.07817210392631602	-11.089475170494737
O	-0.3097354961087718	1.8938899170736838	-14.221911970494737
