23

O	9.517126408848124	13.787446543075717	12.469107361797782
O	10.441762379922077	13.621619412911668	13.395068539671646
O	11.357846113979656	14.572394977907248	13.523217539899143
O	10.921113571360141	15.813515294935717	13.744782432042967
O	10.248871423632751	16.057334475666636	12.486355874626355
O	9.643842202956208	14.969007188094823	11.895935682393903
O	12.27677031483982	14.220339710786831	14.449197914098466
O	12.844603942603623	13.001081529209753	14.463472046136525
O	8.310453274053998	13.046435343377567	12.79970265463523
O	10.195627655856926	13.362873317406095	16.376170890659793
O	10.095532172574154	12.184578900193873	15.694207740113507
O	9.237534565641344	12.183610326265768	14.627366398802998
O	8.166274438682812	13.01583245903271	14.264963735486687
O	8.460054876050659	14.143772131323772	15.027283400896323
O	9.2359117606899	14.254856441969771	16.153035824666627
O	10.146401027624824	10.917605589212872	16.129183624239523
O	12.134160550004761	13.363956689391308	18.05593914896472
O	11.377907134321756	13.540275149368856	17.18392885896831
O	8.783363918300175	10.319691151900008	16.34007792102908
O	8.272204525196932	11.607515112831742	17.020459702428575
O	8.952310706456027	11.742497029420049	18.146495574538047
O	10.032983118996544	10.839372079342839	18.39166439639244
O	9.055083601929905	12.849715778293929	19.0745458704639
