22

O	11.322774288342405	14.583185344768697	16.872074005702736
O	10.597165849789187	13.3373751192457	17.04237820942836
O	10.803072564501559	11.099720830388572	16.302461082372336
O	12.70751754259117	15.209372903522237	14.717617294716382
O	11.398306309662642	14.768460961942575	15.424605901148025
O	10.136149705364458	15.062532216543001	14.936257894443152
O	11.7964860424025	12.668983935893275	14.997782932419813
O	11.829048648591245	13.676183442031313	19.105765862718506
O	9.092049682197558	14.192775457740243	15.424150421842912
O	7.0578815106164905	10.744031275483065	16.12674555102908
O	9.35276307801271	13.401668062990929	16.51031852527972
O	8.78508136385515	12.158678863620597	16.529849583516786
O	7.612479105389953	12.004178999417713	15.868556607716465
O	7.94915815987706	12.423303412643259	14.58648839140806
O	8.154520657702573	13.799518124360917	14.54543067773673
O	11.255446699163482	12.248214444694408	16.25872223869544
O	11.135062503802002	12.394840282867865	13.828940905753463
O	10.786158458873267	13.147376667724759	12.687770731666934
O	10.388262952034804	11.185719314449779	14.022834699649461
O	12.439766847444101	13.710207457945359	17.29306454366075
O	10.361603921571565	12.666888010502646	19.199745631957168
O	7.856901320373449	9.71758372330884	15.637138508053141
