95

O	-2.9885459206271188	-0.09031492808474606	2.4669627889796617
O	-0.060304327627118404	0.565353243915254	3.852384918979662
O	-2.9659632506271185	-0.891495400084746	0.05684949297966152
O	-0.4036095256271184	-3.185752170084746	-0.6213317810203385
O	-1.4850987226271184	-1.0481378500847462	-2.877316631020338
O	4.292581199372881	-0.8230437300847461	-1.6948600210203386
O	1.6346354793728815	0.875113404915254	0.8122398389796615
O	-0.9422268356271184	-0.17726801608474607	-0.07631331502033845
O	-0.6417299866271184	0.5118204959152539	-1.6531506710203385
O	0.3448807013728816	-0.23030361208474603	1.8361756989796614
O	1.4935925193728814	0.741879262915254	-1.3334024550203385
O	2.286772169372882	0.155830691915254	1.8015966389796614
O	3.4110275193728814	0.16537177191525398	0.8992864789796615
O	3.4908488993728817	-1.1263108800847461	1.4575268389796614
O	0.5137597393728817	-2.028346850084746	2.982663308979662
O	0.4197198163728816	1.285912203915254	0.41106743797966155
O	-1.6101379106271183	-1.212776710084746	0.35985592797966154
O	0.8513451193728816	-2.612444500084746	-0.1141569400203385
O	1.7565818293728814	-3.406638800084746	0.25545351097966157
O	2.874249419372882	-2.873007060084746	0.4302301349796615
O	1.6998742593728815	-2.290728930084746	2.9927410589796617
O	3.311358049372882	-3.0583643300847463	-2.3301614210203385
O	-1.7081149006271183	-0.541932350084746	2.528150558979662
O	1.4691023293728815	-1.610408820084746	0.27507825697966154
O	1.3829839893728817	-2.096922520084746	-2.5257824410203384
O	-0.18474830562711836	-1.1701504900847461	4.278591898979662
O	-0.3269552696271184	-0.42824566008474607	-2.5724426410203383
O	-0.3020542386271184	0.373232591915254	0.9140225489796614
O	0.35629425837288164	0.871240571915254	-0.9073038840203385
O	2.584840719372882	-1.642767080084746	0.4877597309796616
O	0.1271431303728816	-1.549060710084746	1.6762559489796616
O	-1.2832868596271183	-1.4590827700847462	1.6565291589796616
O	2.631366449372882	-1.944911640084746	-2.3328170510203385
O	1.8736182393728817	-0.24515893008474599	-2.0783818610203384
O	0.9094127193728816	-0.943343690084746	-2.554911741020338
O	3.051682549372882	-0.7932695800847461	-2.4132718210203383
O	-2.833553000627118	-3.911322250084746	9.177481208979662
O	-2.734386080627118	-7.190106920084746	7.233525728979662
O	-1.3761174826271185	-7.261549700084746	3.6867286589796615
O	0.8094591693728816	-10.268315800084745	4.766481328979662
O	2.6497944193728813	-7.921105430084746	7.095460538979662
O	3.673164599372881	-5.337144910084747	4.342054248979662
O	7.303977119372881	-5.210098690084746	3.3230464389796617
O	7.429854919372882	-5.279275180084746	-0.45808553172033845
O	7.991666569372881	-1.7894994400847462	-1.7341144210203385
O	9.889903119372882	-0.5838368000847459	-4.874045341020338
O	7.301371929372881	2.207382479915254	-5.3168369310203385
O	4.013930589372881	3.197766049915254	-3.691699101020338
O	1.6668342793728816	6.185353529915254	-4.123578271020339
O	-1.9181537506271185	6.570145379915254	-2.9441455610203384
O	-3.1504851506271185	9.991410889915255	-2.1774523610203382
O	-6.452088520627119	10.805797399915255	-0.5208479950203384
O	9.761394919372883	6.436235379915254	3.5655244689796617
O	6.6781443293728815	4.633348329915254	4.808868928979662
O	3.3205931693728816	6.369319029915254	5.2125463889796615
O	0.2921413733728816	4.491157019915254	6.444482918979662
O	-2.6793273106271185	6.517429369915254	7.660131868979661
O	-6.152420570627118	5.111188759915254	7.175888788979662
O	-9.165597880627118	7.235803909915254	7.267601768979661
O	-8.531822240627118	10.138921319915255	4.954650028979661
O	-6.2719878206271185	8.084490219915255	2.672732448979662
O	-2.5185413406271184	8.057798709915254	2.666602038979662
O	-0.4227538566271184	5.097657689915254	1.2595971489796616
O	3.2615506793728812	6.084743209915254	0.7314028289796615
O	5.9901056493728815	3.741657669915254	-0.16938532802033845
O	9.891444619372882	3.711784259915254	-0.49447614912033844
O	10.016807519372882	8.700385209915254	-5.5892546510203385
O	9.692042319372883	12.795511799915255	-2.6797954310203385
O	5.968214949372881	12.601827099915255	-3.3138208610203383
O	-4.3632745706271185	14.208601999915254	-5.920736301020338
O	-3.2775732706271183	9.172478079915255	-8.285753421020338
O	-4.856807060627118	5.725575159915254	-8.685931151020338
O	-2.845876330627118	2.7993173799152538	-10.068576251020339
O	-2.1413769906271183	-0.872950210084746	-8.925103751020337
O	-3.7454830506271186	-3.268218420084746	-8.23368842102034
O	-5.289342150627118	-1.5208632900847463	-5.262890391020338
O	-8.455573860627117	-2.8559251000847463	-3.6535349910203383
O	-9.090743120627117	-2.222886650084746	0.05086229797966152
O	-10.682398880627117	-3.840573390084746	3.1224414089796615
O	-11.539448280627118	-6.814712830084746	0.8733633989796614
O	-8.048007260627118	-7.483151540084745	-0.5364684950203384
O	-6.2322596306271185	-7.002409670084746	-3.7772438610203385
O	-2.8267004206271187	-5.444621040084746	-3.0080066910203382
O	-0.40093776962711836	-5.983618510084746	-5.847770071020339
O	3.2293040593728817	-4.947657980084746	-6.4294491410203385
O	4.701462559372882	-8.111376660084746	-4.914195561020338
O	1.7397971893728814	-10.372389600084745	-4.156582111020339
O	-1.6772986806271184	-9.964130300084745	-2.4992848910203382
O	-8.382789340627118	-11.569582600084745	-1.2015635010203385
O	3.7206957193728813	-12.912460600084746	-0.7928683260203384
O	5.039584159372882	-10.007519100084746	1.2513011189796615
O	7.156998299372882	-10.048689700084745	4.365888098979662
O	2.6174734893728813	-15.184882200084745	3.636097298979662
O	1.2643117893728817	0.5804446649152539	10.545522078979662
O	0.9911021693728816	3.927342509915254	12.396901778979661
