80

O	-3.0839920551563633	-1.3727783162363636	1.7733870987600007
O	-1.9564524991563632	-2.3245552762363637	3.2316721387600005
O	-0.6817351381563632	-0.03963668123636355	1.9041462387600006
O	-1.3098964341563633	2.715682003763636	-0.053503080239999334
O	-1.6376378761563632	-1.0471800362363637	1.0623009947600006
O	0.7505389648436369	3.630851833763636	-0.8815994012399992
O	-1.1507212391563633	-2.4435779862363636	0.8473730387600007
O	0.24061907484363676	3.3391157537636365	1.5169191887600006
O	-0.027149105156363262	-3.0461319062363637	1.6136511687600006
O	-0.5873401741563632	5.076051113763636	0.0025420247600006496
O	-0.0024567451563632936	-2.2324451362363638	2.656428648760001
O	-0.5385759271563633	2.1534803037636365	-2.0590844112399993
O	-0.8621882111563632	-1.0536908562363636	2.8681389087600007
O	3.322743684843637	-1.3964393162363637	-0.2251937232399993
O	-0.8321810011563633	1.1490726307636363	1.6997672787600007
O	-0.7324253651563633	2.3463867037636366	1.1594215257600007
O	-0.6411931131563633	3.236126353763636	-1.2071258712399993
O	0.4164690548436367	4.093518203763637	0.40656589610000066
O	-0.4554250871563632	1.0562313257636364	-1.1342050912399992
O	-0.21609334515636314	-0.3032557472363636	-1.3434797312399993
O	0.9498838648436367	-0.9194795762363636	-0.6810112212399992
O	1.4417702148436369	-0.4579213162363637	0.6556215867600006
O	1.754577544843637	0.8540262227636364	0.20497231676000066
O	0.9339549648436367	1.3821544377636363	-0.7925802012399994
O	2.614075464843637	-1.2194143162363638	1.0500282017600007
O	9.530311014843637	-8.984634686236364	-9.086095191239998
O	10.044605114843636	-4.1395238062363635	-3.0992374712399995
O	8.293686774843636	-0.8799031662363636	-2.5147673512399993
O	9.486976514843636	1.3665384927636364	0.29072367476000066
O	6.976881284843636	2.8013893737636364	2.798868008760001
O	8.255829544843635	6.245040903763637	2.2568463687600007
O	7.2216309148436375	6.051976343763637	-1.3677409112399994
O	3.555333974843637	5.5054126937636365	-0.7239272912399994
O	0.9315208748436368	8.324810453763636	-1.3311745012399994
O	-1.3455757425563633	8.657708873763637	1.8327157487600008
O	-4.756735095156364	7.043157783763637	1.2355870227600008
O	-8.246520735156363	7.853272913763637	2.6062529887600006
O	-9.121262715156364	4.121240533763636	2.761747238760001
O	-7.314264205156363	0.7887015517636364	2.4223642187600007
O	-8.267304515156363	-2.9196087562363635	2.2605774387600004
O	-6.086769715156363	-6.028611866236363	2.4680249387600006
O	-7.209110965156363	-9.191940596236364	0.8715177817600006
O	-5.189558945156363	-12.406304886236365	0.49021708296000066
O	-7.444472815156363	4.095906373763636	-12.24883276124
O	-8.359480865156364	6.084184623763637	-9.13801540124
O	-7.658047155156363	2.8837581437636364	-7.19614003124
O	-4.304638175156363	1.5174591937636364	-6.162373531239999
O	-3.5070794451563634	-2.1392255262363635	-5.879574971239999
O	-0.20906053515636325	-3.5674994462363636	-5.0769885512399995
O	0.5960810548436368	-7.219869186236363	-5.861673851239999
O	2.877189164843637	-8.912923766236364	-3.3282222512399993
O	3.060093954843637	-12.641046286236364	-3.2592021712399992
O	-0.46845854815636323	-13.902153186236363	-2.8477619712399993
O	-1.6528282951563633	-10.801718786236364	-1.0775145712399994
O	-3.469504615156363	-7.838191086236363	-2.584995401239999
O	-3.5435036551563632	-4.374483886236363	-1.2075101112399993
O	-5.916609885156363	-1.7897591162363637	-2.1018667412399994
O	-6.463807375156363	1.9468165637636363	-1.5325016912399994
O	-8.374374495156363	4.968825503763637	-2.818931971239999
O	-9.599125085156365	8.388006323763637	-1.7421833312399992
O	-4.419015765156363	-1.2430294362363634	10.61618973876
O	-1.6970682021563632	-1.0667166662363634	11.77458283876
O	-0.35616727515636315	-3.4896398162363638	9.159560118760002
O	2.971577484843637	-5.185882496236363	9.55134991876
O	4.924335074843637	-6.164935876236363	6.448330788760001
O	7.640457594843636	-2.181413976236364	8.92366350876
O	4.619890914843637	-0.9051424162363636	10.77266633876
O	2.3875567448436366	0.9345810797636365	8.45016411876
O	-0.2391546251563632	3.2955937337636363	9.87965852876
O	-2.990847915156363	5.209798563763637	8.01462035876
O	-0.8206471641563633	8.387325613763636	7.72201168876
O	5.007181044843637	4.502358473763636	9.02558976876
O	3.938097224843637	9.529525223763637	3.376353568760001
O	4.773143814843637	11.061190313763635	0.025770239760000646
O	2.987292644843637	13.984058713763636	-1.5858119712399994
O	8.490568814843636	2.3030670637636366	-6.066255161239999
O	7.834045264843637	-1.1001121162363634	-7.492529441239999
O	4.189136634843637	-0.5063901662363636	-7.0553765112399995
O	3.219618594843637	-2.8530116762363638	-9.87871166124
O	5.217952484843637	-5.4180327462363636	-11.770037261239999
