77

O	-1.1314426475740746	-1.3397071531851852	-2.4184062469444445
O	1.3776087804259254	1.1478664118148147	1.1343417830555556
O	-0.20423440957407457	-0.27957322918518523	-0.35892804094444447
O	-1.8458948565740745	2.6932413968148152	0.6600176990555555
O	-0.1314018895740745	-1.4316208431851851	-1.1027010669444444
O	-1.1182685845740745	3.510130656814815	2.7401287630555555
O	0.7507813804259256	-2.463047033185185	-1.0404551669444444
O	-2.6096246795740745	2.4300638268148145	-0.9934914589444445
O	1.2912289604259255	-2.6183171631851856	0.23000295405555551
O	1.6023235404259253	-1.4212783631851853	0.8139463130555555
O	-1.5130060375740744	1.0672823678148147	2.373407733055555
O	0.7986423404259255	-0.35000240718518516	0.5666473730555556
O	-1.9228892265740747	-4.218029873185185	-1.1427859869444446
O	-0.9616597093740745	0.8535421838148147	-0.6436039499444445
O	-2.1875641995740747	1.5674169568148149	-0.1981889469444445
O	-1.7744656455740744	2.2626410268148147	1.9100738430555555
O	-2.0515013995740743	-0.06693123718518523	1.9641361530555554
O	-1.3416955655740745	-1.1719191931851851	2.255605053055555
O	-1.6072545945740746	-2.374403203185185	1.6780618630555555
O	-2.5003448995740745	-2.543349063185185	0.6706449390555556
O	-3.1688158595740745	-1.4283150331851853	0.36437158005555553
O	-2.998156859574075	-0.31058516718518514	1.1229963730555554
O	-2.2765006095740743	-3.6509355031851847	-0.1816506939444445
O	4.099790370425925	5.248546136814815	-15.175312326944445
O	-1.8307615025740747	1.6941494768148149	-11.644523926944444
O	-3.2613135595740745	2.2953976868148147	-8.248385016944445
O	-6.550872679574074	0.7529794998148148	-7.247577886944445
O	-6.8469682795740745	-1.1233199931851852	-3.9801057169444447
O	-9.920308429574074	0.8489889358148148	-3.062068996944445
O	-7.882285949574075	3.997273346814815	-3.060132896944445
O	-5.5253497095740745	2.8733323768148145	-0.2424113489444445
O	-5.719651579574075	4.392926246814815	3.251554553055555
O	-5.593961559574074	1.572938296814815	5.825164093055555
O	-2.1528979095740746	1.2078360678148148	7.4579518630555555
O	-1.0509047365740745	0.001723488814814822	10.935002273055556
O	2.0321652204259255	-1.7004840731851851	9.430242493055555
O	3.2966671604259252	-2.548786793185185	5.974201753055556
O	6.4983574404259254	-3.9629029931851854	4.553459023055555
O	7.170437910425925	-5.230569443185185	1.0647206630555555
O	10.758549130425925	-5.158639183185185	-0.11959699894444449
O	11.984394030425925	-5.922492013185185	-3.641752886944445
O	6.349951370425925	12.216778056814814	5.248394133055555
O	4.523552120425925	10.068225886814814	7.816766183055555
O	5.664654630425925	7.081623236814815	5.746542103055555
O	4.126128220425925	5.882031546814815	2.4786088030555553
O	6.103108290425925	4.239836036814815	-0.2570211729444445
O	4.671306190425925	3.0367333968148147	-3.4824907269444445
O	6.978993730425925	2.279571716814815	-6.4232209269444445
O	5.955609560425925	-0.5419988531851851	-8.732939166944444
O	9.211757530425926	-3.640285263185185	-5.809374696944444
O	8.713646700425926	-1.2186207831851852	-2.953559076944445
O	5.697739390425925	-1.1795373831851852	-0.6651318229444445
O	5.867798490425925	0.7070082818148148	2.567607363055555
O	3.3736969104259256	1.5670754068148147	5.238593073055555
O	3.0810304204259253	3.756792236814815	8.355283173055556
O	0.9775662704259254	4.061724376814815	11.500102073055555
O	3.7431913104259253	3.309513776814815	14.007263973055556
O	0.11915342042592547	-10.652624143185186	4.2735737530555555
O	-2.0666862395740746	-11.362225243185186	2.4289317230555554
O	-0.27690472557407453	-9.751892643185187	-0.5117393819444445
O	-1.2416996375740745	-10.673331543185187	-4.034322546944445
O	-0.6765708915740745	-8.189171523185186	-6.824351876944445
O	-5.995635439574075	-8.650565233185185	-6.1136440669444445
O	-5.684429739574075	-10.001124743185185	-2.6139939169444446
O	-4.741464619574074	-7.242789503185185	-0.2579613979444445
O	-5.2554847995740746	-7.7931669231851854	3.4189220230555555
O	-4.471262769574074	-5.633464603185185	6.480593523055555
O	-7.8397401995740745	-3.8574943131851853	6.412108263055555
O	-9.096488379574074	-6.240193473185185	-0.13589404994444448
O	-10.012376959574075	0.8789955788148148	2.5061174730555553
O	-10.423081309574075	4.606577366814815	2.0604196030555553
O	-10.886342019574075	7.123604586814815	4.863112643055556
O	-4.376179709574075	6.840477236814815	-7.213083896944445
O	-1.0494357665740746	6.778166796814815	-8.982842466944446
O	0.5337703704259256	6.247710496814815	-5.553435226944445
O	3.791663090425925	7.916698996814815	-6.739056146944445
O	5.104379820425925	8.790444086814814	-10.169306026944446
