86

O	-2.7957204840166665	-0.6090978079866674	-1.8098235098416664
O	-0.30367233001666677	-0.31957778798666725	2.1558216301583335
O	-1.0016407730166668	0.3213376850133327	1.0399315801583335
O	-0.7701268430166668	1.6646099640133327	1.1587968601583336
O	-1.4049232040166668	2.6223557020133326	0.4609527301583337
O	-2.6491076140166667	2.249023802013333	0.16734297915833363
O	-3.1791259640166665	1.1235122491133327	0.6601481601583336
O	-2.330262944016667	0.1841738480133327	1.1038611401583336
O	-0.19393298001666676	-0.9330054179866671	-1.8246242398416666
O	-0.7172226136166667	-1.8720711079866672	-0.3118588778416663
O	0.4831979859833332	-2.197104467986667	0.8434231101583337
O	0.5952731859833332	-1.0136558779866673	1.3736127401583333
O	1.8365148459833334	-0.8317795979866673	0.8558831001583337
O	2.0453225959833334	0.34627725001333276	0.11864270115833364
O	2.5989075259833334	0.6054621180133328	-1.4290050198416664
O	2.348469355983333	2.2856637920133327	-1.6506777078416663
O	1.7597377959833334	2.573136022013333	-0.49667716284166635
O	1.3220163159833334	1.4207549520133327	-0.040417782841666305
O	2.2335860259833336	-1.8106955179866673	1.8245239201583336
O	1.5667543759833333	-2.8572647079866673	1.2531868001583337
O	-0.5148726450166667	0.4963908790133328	-1.9086433898416661
O	-1.791426014016667	0.7801445670133327	-1.9455156598416665
O	-2.3770700840166668	1.840943384013333	-2.630654489841666
O	-1.7411572940166669	3.0148270920133324	-2.8653782498416667
O	-0.43571246001666675	2.8571259320133326	-2.5318853698416666
O	-0.0441801720166668	1.5200835420133327	-2.6570433498416666
O	8.351899455983334	8.112614512013332	-4.285266179841666
O	7.5999875759833335	5.621341402013332	-1.5067975778416662
O	6.655125725983333	6.996338822013334	1.8808799401583336
O	3.6875393159833334	5.423861022013332	3.659738790158334
O	5.760054895983333	5.024851292013333	6.809636380158334
O	7.949491395983332	2.6020298920133325	4.900383990158334
O	5.109445465983333	0.0949316500133327	3.8728214201583335
O	5.038166545983333	-3.2095633479866676	5.612623290158334
O	1.5502183359833333	-3.8523473379866675	6.890075300158334
O	-0.20068378401666676	-6.369081767986668	4.691640020158334
O	-3.0000189140166666	-8.900457917986667	5.334813730158334
O	-4.516539004016667	-8.113149077986668	1.9195570701583335
O	-4.042251004016667	-5.531705567986668	-0.7877300993416664
O	-5.4395858140166675	-5.087737627986668	-4.332711179841667
O	-5.202405594016667	-2.0583992279866674	-6.628347879841666
O	-5.398796034016667	-2.584047837986667	-10.345275659841667
O	-4.778222754016667	0.01578378201333286	-13.056850709841665
O	5.890861435983333	-13.503893157986667	-1.0279014518416663
O	3.9295887259833333	-10.908176957986667	-2.9647359698416667
O	4.610754595983333	-7.189199007986668	-3.1233285998416664
O	3.9034145359833334	-5.137760877986667	-6.206968999841666
O	4.5588032459833325	-1.446248957986667	-6.345444109841666
O	4.677689445983333	0.2310733240133328	-9.754515709841666
O	3.4333180059833333	3.8060712320133328	-9.867253579841666
O	2.5758601559833334	5.295380492013333	-13.225163009841665
O	0.06579703298333328	2.994024892013333	-14.870165109841667
O	-1.2320345610166668	1.7008726170133328	-11.554185209841666
O	-0.2596279030166668	-1.4629856279866673	-9.741811249841666
O	-0.48977457401666674	-2.1153717679866673	-6.009412969841666
O	-0.35649120701666676	-5.588866137986667	-4.727176039841666
O	-0.19604048601666674	-6.976958447986668	-1.2466228348416664
O	0.49863841598333314	-10.279430757986667	0.4959805201583337
O	-0.16126370901666676	-12.100241057986668	3.7579021001583333
O	-5.1633279140166675	-13.807257657986668	-2.4092630898416663
O	-4.567406004016667	-11.807219657986668	-8.064366279841666
O	-11.268779934016667	0.21223180501333272	-5.631685679841666
O	-11.467961734016667	-0.29090395798666724	-1.8623842498416665
O	-9.605289924016667	1.0711214362133328	1.2378981801583335
O	-9.093495894016666	3.7573505520133326	2.3931737801583335
O	-6.886462604016667	4.658257762013333	-0.5968683378416664
O	-5.890676894016667	8.207009902013333	-1.2964519368416663
O	-2.593197384016667	8.826576092013333	-3.0960292898416664
O	-2.0753042240166666	10.641519702013332	1.9884157301583336
O	-4.8652559940166675	8.472654782013333	3.3293030501583334
O	-3.6561408040166667	4.918379842013333	3.537685910158334
O	-5.633325134016667	2.5002652820133324	5.690625340158334
O	-5.137144804016667	-1.284040137986667	6.304698790158334
O	-2.8956198540166667	-0.7834216879866673	9.350439190158333
O	-2.508846134016667	2.982298862013333	9.865764090158335
O	-1.8999128840166666	6.055838432013333	7.6105494601583334
O	-2.0404785540166666	12.868544342013333	5.506158390158334
O	-5.359017054016667	13.713869042013332	3.853375740158334
O	1.6518306859833332	2.978002772013333	11.851345390158334
O	3.3793856859833338	0.7501892670133328	9.327507090158335
O	6.889001295983333	-0.6163183979866673	9.419915690158334
O	8.017901535983334	-3.813025787986667	11.084217090158335
O	5.954133505983333	5.663480842013334	12.071247990158334
O	6.369198585983333	9.335199502013332	11.252877590158334
O	9.315953195983333	0.25508373401333273	-3.7705298498416666
O	10.457320265983334	-0.9692391279866674	-7.166008199841666
