28

O	10.065670951671587	11.803265112131825	16.332328937373
O	8.9126596296433	13.830634818593186	16.526093023009523
O	9.508888700819856	11.843059718492627	17.860566576289145
O	11.333315480680676	14.842021480296932	21.762958222756087
O	9.982836442557774	13.964168848418709	15.641879684986371
O	10.84379537650472	12.93153405467762	16.447852892674444
O	8.736768505940438	11.84100814685565	16.0252453193913
O	8.572999841212887	12.630433905900745	17.233249274970305
O	10.165234233675957	12.157633738632299	19.08783432933231
O	9.174631525541697	14.821601742246955	17.58069135313464
O	10.069735626011308	11.057100548136507	19.849114521013647
O	10.203542925914816	11.20266595886603	21.20333083745441
O	10.267390328757003	12.4957195123007	21.718996365210693
O	10.924615733648	13.420130711828874	20.891019918330237
O	10.433204042133193	13.37371557860038	19.620584241438614
O	7.766929475255049	11.119578769328031	15.900686056191693
O	10.190038199887557	11.400007539539423	14.199160602085314
O	10.110260178779114	12.620904425320497	13.767569537317392
O	9.242465642000916	12.629308848696276	12.744777442636025
O	8.27342477064291	12.01901487125718	13.305718259736414
O	8.86207219519389	10.892528806274171	14.085381331376158
O	7.009451234470549	11.5379320341614	13.109443202059055
O	6.581197532578017	10.351102188877528	13.53664648591143
O	7.432685939177599	9.33920643497203	13.096972755376616
O	8.742253831941156	9.727304154491096	13.436718494405609
O	10.711523131433292	10.863633381441517	15.48427664158306
O	10.28715706005444	10.180663367824568	22.221823849726487
O	10.079673917900847	9.514004472793646	23.16427106823769
