81

O	-3.9232290357192987	3.459791162649123	-0.8033467919807018
O	1.3262118542807015	-1.607598027350877	1.9051889580192982
O	-0.8290508007192988	-0.707945257350877	1.522647068019298
O	0.5319841342807011	-1.486939197350877	-0.21398793598070193
O	1.8753836642807014	1.306436744649123	-1.1830480819807019
O	0.7596965442807012	-1.1037894373508768	3.042588498019298
O	1.0389406742807012	1.598743391649123	1.470727068019298
O	-0.9935448003492988	0.3299600546491229	3.504741858019298
O	1.0990928042807013	-1.9199218173508772	4.120232278019298
O	0.1275374342807013	0.6824963126491229	0.22222590921929808
O	2.4369966342807015	-2.138812387350877	4.128435568019298
O	3.2014357742807014	-1.586223397350877	3.155714238019298
O	2.687698314280701	-1.3240108873508771	1.942580818019298
O	0.30643423428070127	-1.3039078473508772	0.959625327019298
O	-0.4571779747192988	-0.462490367350877	2.768145118019298
O	-1.9260594847192989	-0.19783864735087697	0.7746731160192981
O	-1.0575812844192989	0.4628299156491229	-0.2073776519807019
O	1.3974141742807014	0.9842018010491229	0.37558538101929806
O	-0.2528156147192988	2.101269272649123	1.277348518019298
O	-0.31931753671929874	2.866958172649123	0.08426994801929807
O	-1.4510326877192987	3.479470082649123	-0.366832156980702
O	-2.6004824057192986	3.073279132649123	0.20987793851929806
O	-2.4750360557192987	2.712074572649123	1.5118991180192982
O	-1.2245098897192987	2.618038902649123	2.045475738019298
O	9.8295377742807	4.294750522649123	-11.409362161980702
O	6.018061254280701	7.522849872649123	-5.517528581980702
O	5.392628274280701	6.159520062649123	-2.088161851980702
O	4.076646954280701	8.505387762649123	0.5570041060192981
O	1.1856092642807012	7.384951642649123	2.693080868019298
O	2.9732045242807015	8.253226532649123	5.822805068019298
O	5.491350324280701	5.568490772649123	4.953532448019298
O	2.9822761842807015	2.633205432649123	4.800885268019298
O	2.8916935842807012	0.31436256764912296	7.750614718019298
O	-0.6328382207192988	-0.38797532735087714	8.816899968019298
O	-2.085208985719299	-3.6928555273508774	7.524864348019298
O	-4.742081215719299	-6.106969987350877	8.849137118019296
O	-6.097745795719299	-6.689196637350877	5.310612898019298
O	-5.6010894757192995	-5.071542937350877	1.885450028019298
O	-6.777887245719299	-6.001986867350877	-1.6276954519807019
O	-6.654086285719299	-3.8789497973508773	-4.768723061980702
O	-6.5248741257192995	-5.610186557350877	-8.075340111980703
O	-5.943027845719299	-3.979589047350877	-11.470596861980702
O	-4.511271475719299	-5.704744007350877	-14.524554261980702
O	7.5800910942807	-12.282503647350877	2.239143938019298
O	4.905849484280701	-11.661508947350876	4.876222208019298
O	2.895887014280701	-10.090883547350877	2.081958768019298
O	3.2708357742807013	-6.579570077350877	0.713265020019298
O	2.644255984280701	-5.810534627350877	-2.9436911319807018
O	2.998775834280701	-2.289521397350877	-4.2158017719807015
O	3.2908290842807015	-1.969875427350877	-8.115243451980703
O	1.8065556442807011	1.229920104649123	-9.456721011980703
O	-1.2092197137192988	-1.414319597350877	-13.999215261980703
O	-2.623165885719299	-1.609393167350877	-10.485766061980703
O	-1.519110989719299	-4.001569047350877	-7.776961061980702
O	-2.005378195719299	-3.343283527350877	-4.092067151980702
O	-1.697633203719299	-6.249186557350877	-1.667156361980702
O	-1.6646696937192988	-6.347491727350877	2.150870978019298
O	-0.8656757787192988	-8.781706837350876	4.956292078019298
O	-1.5582432837192988	-9.372363947350877	8.633003008019298
O	-11.7791975257193	1.1126923986491228	1.487337218019298
O	-11.4346168257193	4.050645352649123	1.6287748580192982
O	-9.0795082657193	4.041832842649123	-1.3698085019807018
O	-8.3596368057193	7.249213782649123	-3.2651378619807017
O	-5.001997675719299	7.575554692649123	-5.067719961980702
O	-5.0157328857192995	11.073728352649123	-0.9003235819807018
O	-7.654544825719299	9.158396242649124	0.9960837610192981
O	-6.214167395719299	5.993597762649123	2.4144888480192983
O	-8.1197084057193	4.299967332649123	5.222635128019298
O	-7.422682545719299	1.068738578649123	7.084457358019298
O	-5.460114395719299	2.806089462649123	9.864927868019297
O	-4.7385414357192985	8.560877822649122	5.840028358019298
O	0.7235774642807012	4.901678802649123	9.615342778019297
O	4.309348334280701	4.050159462649122	10.315097238019296
O	5.482827404280701	1.714541628649123	13.052236238019297
O	13.776781474280702	0.7416729326491229	-1.9652526119807017
O	12.4133672742807	2.600902162649123	1.0011533580192982
O	9.3205087742807	4.698792512649123	0.23663248791929806
O	9.4676607742807	3.452319262649123	-3.306217141980702
O	7.457158784280701	0.44674263664912295	-2.194503651980702
O	8.914290694280702	-1.697547057350877	-4.993181131980702
O	10.894047374280701	-0.839553467350877	-8.078108271980703
