37

O	7.7235778150323116	8.97907993153425	15.721691196155307
O	10.01392640350475	12.972006353176393	15.322826614578567
O	10.596632516407185	10.693915240355345	16.372116336988842
O	8.466555201527134	10.071810370081492	15.671541098521542
O	8.954589198033377	14.672938285153958	15.566569731857818
O	8.464885546387276	11.108894810042443	14.76359630400722
O	9.342064688972844	10.265420002808641	16.667451386593743
O	10.997170055775554	14.92650291092355	17.63937490688446
O	9.656400322722414	13.95026976680532	13.432954355204341
O	9.260663468518672	9.411763407600116	17.6851438225211
O	6.502026627617164	9.980519495211752	19.1911180242956
O	8.261910655942067	15.144346716164183	17.50409866751514
O	8.431953383075005	8.385113143806887	17.77479414479535
O	12.569652605725805	14.098610895341906	16.384054861128803
O	7.509618122445927	8.317135509929358	16.84042345441002
O	9.663943708352184	11.260272835267049	14.11205969545044
O	10.755196358636706	12.152463367272096	14.525343628409301
O	9.331331250410086	13.78235894954217	14.654384476860313
O	8.476089023721816	14.215345857154096	16.71816594354038
O	7.985518953035744	12.975552892700135	16.707491824573466
O	9.16038030109082	12.558405725718798	16.238820182065485
O	10.986439680115648	11.473455916331638	17.376847803905008
O	10.719575987482164	11.092062755072497	18.581354936198462
O	9.88855643800553	12.014853198204358	19.0147008760305
O	10.25235856264314	13.270446051963944	19.12814833137834
O	11.019407727763172	13.661062640754674	18.186362754812077
O	11.235669061702934	12.715958693462763	17.227561163993535
O	9.131396844115857	11.581299047440341	20.163488136975026
O	7.841621383815194	11.90953259491233	19.704872070815274
O	7.868076232232443	13.251602464619308	19.876488594442357
O	9.104331082960394	13.8467996046848	19.46720863470033
O	6.87894030913527	11.049813962348596	19.041924943776493
O	10.83353353861934	9.880788710166676	19.300483660753407
O	11.712955570040597	15.037238364206576	16.60469832868751
O	11.857777755795782	16.101755026930768	15.663911265105172
O	11.174809273052096	15.873104639681694	18.689128921852383
O	11.702785739545144	15.238825315932548	14.532697355935316
