28

O	11.432298922597003	13.243517135994159	17.86804099835846
O	10.899865157524223	15.481062028897634	18.302780348054053
O	11.022908068979277	12.013008872330033	18.236238579481185
O	10.695650889753633	14.535550854315812	14.66669935355773
O	10.332840817804652	12.257533785743945	19.281442021966075
O	9.921731394100375	14.14670796346163	16.723518709256464
O	10.241629363987268	13.323318414104968	20.18758346904099
O	9.741870320448275	12.459177542792272	15.300504809375745
O	9.9011334405535	14.399974547721948	19.5275032243539
O	7.2875522425399	13.185055896601126	21.09738613335492
O	10.774689409338515	14.154595897192946	18.585474635767838
O	8.57934714251422	9.48918512518214	19.859150220068322
O	12.3929079791002	13.367861074500068	16.83492277401712
O	8.835245713899202	15.34289505442075	19.36342613245306
O	11.068436668606973	15.758348035095255	14.976514891318613
O	11.101830919610835	15.94379977375798	16.317816677344517
O	10.095824252309463	15.339455262440397	17.125746732712358
O	10.056708041423057	13.796528181151192	15.463530748069967
O	7.534467614914095	12.436011944655245	18.721109376298305
O	7.754520734143083	11.33661482679205	18.03357365968917
O	8.817477153073568	11.358307049910465	17.181512872967225
O	8.753102132234332	12.215670621429027	16.202603733590525
O	8.122985993493419	13.363191502603897	16.74874302934877
O	7.342128208030692	13.386390277146473	17.825629270927767
O	7.122894781211787	12.691419327766424	20.043301426160163
O	9.57073123810205	11.324406356751014	21.41918860803438
O	10.158225710128374	11.432935252518554	20.30275573375203
O	9.099899558410048	10.127616743159873	20.716138001154224
