20

O	10.625323517993165	13.980212376233656	14.348915275630363
O	10.653080943595539	12.702557809622556	16.23560379479701
O	10.639382628766889	14.00773233617331	13.132749915935932
O	11.555447333598426	13.379180587236254	15.36689976943614
O	9.817744619312213	14.845590924557756	15.089088954705346
O	9.643388277884279	11.957495793908226	14.413936981006522
O	9.94004313557429	13.537715657995934	17.08715207851533
O	9.282953767336618	10.762771662876228	16.40514405522829
O	9.720655316448227	14.837717789187861	16.52463814567329
O	9.082978321833577	15.465925773426065	17.583327746750193
O	8.282302767140726	14.693528102430315	18.508559076810062
O	7.714798651390591	13.616816331204292	17.78813375833906
O	8.70309535944824	12.888386034707192	17.195560412796457
O	12.219793284201836	14.373046985076327	16.087952737079622
O	12.135316755333177	14.156116545765352	17.60188145388133
O	9.870179295311697	11.639979018488809	15.785463061017468
O	8.305367776161289	11.753776853520758	13.956999109370733
O	7.39808132301572	12.912224160269494	14.229394233992682
O	7.75917587311459	10.641780671212082	14.804068045147384
O	6.7503238201706	12.97174974648924	18.54330891351213
