20

O	10.18824797151061	12.05870017779144	19.30071747231839
O	10.334305462332592	11.169363817449371	20.39596546274259
O	10.757340388800243	11.982247191221763	21.45470371146766
O	10.296380345088636	13.294051871395384	21.512112047217144
O	9.048339575831603	13.2468628220959	20.767980128322776
O	9.077770382276576	12.765425339215673	19.448818419259133
O	8.725168751015728	13.006989148503585	18.164979479444344
O	9.790492541848863	12.697367986044362	17.502357925273596
O	10.144842029390123	12.620286950675869	16.12837138984833
O	10.787124411944555	14.143821444680842	15.603706548216843
O	11.13424897533	14.95724191136795	17.167441726006153
O	10.813079578945278	12.63828928192341	18.26899118432957
O	10.090187368552584	15.136897691870939	17.918316387251377
O	10.24318130797172	15.651305959640617	19.117411726818744
O	9.119106149090575	15.991161355816889	19.988264617199146
O	11.427337774720533	15.57147829986708	19.72336528629283
O	12.42132888825512	15.633030863676222	18.794626086403802
O	12.304730628714506	14.776905880227762	17.73927254393029
O	9.3378699107398	11.72452645489276	15.574059862094646
O	11.350804320911035	11.839548926957772	15.82567312264879
