37

O	5.3795172459082865	8.51898761030039	14.619567115809502
O	7.895385097346493	10.14600564125912	13.226835298047785
O	9.49399804121505	10.039838505878773	13.380086485932683
O	9.898342293666863	11.075342277093203	14.119686340392839
O	10.238957408391961	12.079882885392692	13.253815174237005
O	10.652799570341363	13.296899639108766	13.724324882755845
O	10.465844009891503	14.07736914810902	14.861724557276732
O	11.27233007997344	15.149531923836763	14.823017291185653
O	10.321345514526953	13.39045770489074	16.066594316849244
O	9.65022023963921	14.012290828527867	16.8699184382156
O	9.075668014979243	12.519633859812876	15.789227997828513
O	9.12111670727113	11.935399249842618	17.004219373870885
O	8.215378489730071	10.879740864671241	16.904460145801103
O	7.22904563227754	11.33418814786737	15.964313526726986
O	7.636484683411197	11.037533667866814	14.676066707484885
O	8.752773071865072	11.658722569821107	14.790874142339254
O	11.125399701467618	13.927641363087448	12.711511181359466
O	10.90553390297853	13.614877332786019	11.471364489349984
O	9.574029008339739	13.125582288526875	11.211700276917878
O	9.483322867059576	11.971451221846905	11.978397491471828
O	5.788635607063942	6.333337952726272	15.61430117443707
O	4.875416021804117	6.160467008585576	14.472815601522498
O	4.390892953529609	7.348652422876899	13.903195022961544
O	6.870953924194298	8.31080879238663	15.14191397225948
O	8.140937628364178	8.111418688235084	15.149639468000409
O	9.040041649905474	8.773096780396578	15.986279897824716
O	8.7637323751664	8.010345057935929	17.156388264158313
O	8.8308782490829	8.856878185787007	18.259012954400724
O	9.753811518041669	9.858859765208948	18.346915482991996
O	10.377611775986315	10.051115900204199	17.17204413966005
O	10.296565492978495	9.118899286284972	16.205533501182124
O	9.360597511235827	11.032209695403576	19.121425476672723
O	8.016343957374941	10.905132491033507	18.319481707441888
O	4.729665825908484	8.194963645665798	16.172202379505908
O	5.680291589244709	8.808015452238408	17.029168378671834
O	5.341360018573043	10.187950582618797	16.578879134110487
O	5.015184103120134	9.943215865327977	14.36508266020526
