28

O	8.74910921136998	9.019116026920312	16.942122983675453
O	13.229520586415688	12.255980370206231	16.501451760947013
O	11.2711045566868	15.246321425128118	20.70560335853022
O	9.425801512787194	12.427587134748933	16.781877480366592
O	9.24839609025408	13.52299986538058	16.004539119658247
O	8.029142526194242	13.833399004521954	15.319325270467647
O	8.356896393530114	13.002020068157556	14.290321730249495
O	8.966282466215443	11.7638659391289	14.07334585989365
O	8.367410650502666	11.754449517588444	12.951971937081208
O	8.669998278756816	10.851163374905566	15.234877584387533
O	7.331649948894665	10.820047252340787	15.382315459145902
O	6.9134372697789646	9.49035951277567	15.573646790559085
O	7.644230008996894	9.332585687356882	14.420425361732715
O	8.864948937071501	9.48025803909227	15.270673684208539
O	10.13798353645015	14.45728138237487	16.547883416646414
O	11.444623481032764	14.070440928037485	16.063038539203216
O	11.596964915253274	12.637273451601885	15.905154648422094
O	10.708367870570617	11.976782492642489	16.78763202039592
O	10.931824978849843	11.214056241009803	17.888269187412288
O	10.371448208910532	11.837357657742306	19.03013026850571
O	10.800318427532538	13.11466454484085	19.256920951740497
O	11.07660317640103	13.572848865999818	20.511259739888562
O	10.376608184086608	12.888867560327313	21.510248277480436
O	10.149737062114939	11.555953868096179	21.300263653533474
O	10.361043237652925	10.705561581353813	22.45676851833624
O	10.765772042651891	9.696343129635471	22.893045687029034
O	9.788509154717412	11.179922003554525	20.026421006708244
O	8.466051653501143	12.241716841788762	17.809265829344344
