86

O	2.548027409413794	0.06262525201724212	4.922259608606897
O	3.5272246894137944	2.053988894017242	1.084731488606897
O	-0.15431538058620614	-0.5473599059827579	4.425323428606897
O	-1.140523077586206	0.33032272401724216	3.927848948606897
O	-1.1129458125862062	0.5291798930172421	2.591877328606897
O	0.14249247841379387	0.721626064017242	2.1474858686068967
O	1.1658853594137937	-0.12826283698275787	2.671084758606897
O	1.175301509413794	-0.5142282759827579	3.9785398086068966
O	0.4957559094137939	1.7358125950172423	1.265000628606897
O	1.2300409794137939	1.0157666090172421	0.413009036606897
O	0.7257380094137938	-0.2378181559827579	0.395966505606897
O	0.909738269413794	-0.8085852759827579	-0.9993455493931029
O	2.141360259413794	-0.6675742659827579	-0.872493436393103
O	2.999225889413794	0.42340049701724214	-0.688839075393103
O	2.380411009413794	1.4010941220172421	-0.11011248439310295
O	-0.2980159395862061	-1.393468665982758	-1.2166076203931029
O	-0.8259851355862061	-0.10464295898275788	-1.049729953393103
O	-0.07021388058620615	-0.1504207259827579	-2.4287298413931033
O	0.0873526824137939	1.1767038770172422	-1.696218011393103
O	0.761736279413794	1.3778516850172422	-2.9208358613931034
O	1.564756199413794	0.5256359490172422	-3.5365429413931033
O	0.8810005294137938	-0.5689791659827579	-3.1025794613931033
O	-1.3196170205862061	1.376758598017242	-1.398336543393103
O	-1.793291110586206	0.9173139540172421	-2.761448871393103
O	-1.4632730645862062	1.560014451017242	-3.985304071393103
O	-0.2186271905862061	1.9750143940172422	-3.7035511713931033
O	-1.6508669005862062	1.1534294990172422	5.0363103486068965
O	-1.431414033586206	2.1134937240172422	5.614603398606897
O	6.1174128294137935	-5.219119045982758	6.435448808606897
O	4.661704289413794	-8.186864555982757	4.585999708606897
O	2.134183829413794	-7.215974185982758	1.882864638606897
O	3.9070400894137944	-9.608246985982758	-0.485114680593103
O	6.936375189413794	-7.360157265982758	-0.30815907639310297
O	5.257393959413793	-4.197025335982758	-1.580081961393103
O	5.908438229413793	-2.907367285982758	-5.1010648613931036
O	2.583638959413794	-2.2819804159827575	-6.915157291393103
O	1.9050935194137941	1.498024597017242	-7.165319331393103
O	-0.1982632575862061	3.743939244017242	-9.472655951393103
O	-1.608647900586206	5.9174166440172415	-6.541427421393103
O	-1.673815210586206	5.7134748640172415	-2.587768861393103
O	-2.857035380586206	7.842286074017242	0.18511759260689703
O	-3.380045170586206	6.908742964017242	3.769111328606897
O	-3.107492260586206	9.762125914017243	6.184940368606897
O	-3.099058330586206	9.526492404017242	9.979061848606898
O	10.225458169413793	8.588421494017242	-6.2769992813931035
O	7.726197509413794	8.541708444017242	-3.4269099213931034
O	7.2479362894137935	5.812564874017242	-0.873830542393103
O	6.116186929413794	6.503231044017242	2.717158248606897
O	5.457261039413794	3.6731573040172423	5.223603628606897
O	5.462707169413793	4.7268023240172425	8.839720308606898
O	3.295081829413794	2.602720824017242	11.098099248606898
O	-0.38951492558620615	6.355856264017242	10.337337348606898
O	1.346719309413794	7.264504904017242	7.0946799186068965
O	0.9848019994137939	5.236269934017242	3.795372278606897
O	2.126465059413794	7.132106564017242	0.736960518606897
O	2.562920779413794	5.944327474017242	-2.807028521393103
O	4.028326719413793	6.9077887640172415	-6.173680981393103
O	3.6420493194137937	6.261432284017242	-9.902449041393103
O	-1.316673017586206	10.371616144017242	-12.060735951393102
O	-0.1273656165862061	12.853799914017243	-6.843687051393103
O	-8.618852190586207	10.106292594017242	3.530850548606897
O	-9.845267950586207	6.502182174017242	3.6675646686068966
O	-10.319028750586206	4.489802254017242	0.5161667706068971
O	-9.162487740586206	0.9874932480172421	-0.662495831393103
O	-9.444190590586206	-1.795376705982758	0.26849374960689704
O	-7.286238820586206	-1.014492055982758	3.3184022386068968
O	-7.360258860586207	-3.3783755859827584	6.232220828606897
O	-4.2569765905862065	-3.580048255982758	8.377885928606897
O	-4.716755160586207	-8.263261245982758	5.770975628606897
O	-6.792746910586207	-6.759984575982758	3.073060658606897
O	-4.623532140586207	-4.641941495982758	0.9114132486068971
O	-6.100677760586207	-3.990498265982758	-2.623540811393103
O	-4.706004000586207	-1.8923361759827577	-5.569402631393103
O	-2.885358570586206	-4.772549045982758	-7.251976401393103
O	-3.572505990586206	-7.756599975982758	-5.026571831393103
O	-3.654278920586206	-8.578832025982758	-1.299534882393103
O	-5.090364810586206	-11.313116485982757	0.8680375686068971
O	-5.7141588105862064	-12.135242585982757	4.4807734686068965
O	-8.959481970586207	-10.750144385982757	5.856198178606897
O	0.12414718841379391	-10.279016585982758	-6.114078061393103
O	2.725981779413794	-7.648515555982757	-5.512238301393103
O	6.460267539413794	-7.755919005982759	-6.0201126013931034
O	8.295651879413793	-6.862918705982758	-9.214226661393102
O	3.409577199413794	-13.564909285982758	-4.037359431393103
O	9.258502539413794	-0.38365375598275797	5.065467248606897
O	10.959556469413794	2.319885314017242	7.050621648606897
