22

O	9.044446564124328	11.564468663971944	22.19684636246961
O	10.285039678870476	14.49254045207078	17.04206774870009
O	10.74741308091582	14.346190792345567	15.798701452093578
O	9.775065711274314	12.022312524256801	23.28993228339032
O	11.75728958277076	15.222919877764898	15.343823041901526
O	9.429666174706417	10.449703774070358	21.92757263592622
O	11.47839251085211	16.481862943611123	15.683212267109148
O	11.343313304969136	16.588488395948303	17.077591648096725
O	11.052928304990159	15.438683690868862	17.65245089472483
O	12.023008838156144	15.240897192124592	18.75306405301728
O	10.340711956879126	13.933751229893984	19.94468263240997
O	11.615088044782087	14.349963505147318	19.7333900363037
O	9.682813587460156	14.596776844640429	20.917601901349023
O	8.691513876527672	13.66381834874368	21.301885670499527
O	8.917108539634526	12.30693427030015	21.004391501277183
O	9.062069791971874	12.120013167315802	19.678491182485306
O	9.528665093526971	13.209723254261894	19.0433598195941
O	9.602895785780609	13.43641867028256	17.690689101067292
O	12.37726805075641	14.602570272674228	20.84355923627013
O	13.033840532461216	14.627111277311997	18.1984233404759
O	9.639800421662711	12.170415051603243	17.03081760335145
O	11.171799197572591	11.963189893766854	16.865656980182006
