21

O	7.490531810813088	14.804671930219671	20.28630237572238
O	8.773986547996431	14.216572130273628	16.74127519049449
O	8.311910171817964	13.168690440125069	16.07203711043058
O	9.282186360856148	12.511069204236396	15.61322731496221
O	9.149355357870009	10.845712673278861	15.880666597023238
O	10.077541635387528	14.147748780594931	16.79043995700533
O	10.328031389019	13.083639694106772	16.042194070495473
O	11.53918349188486	12.510768360051276	15.539907558067954
O	12.35453869627369	12.932205874834837	16.68198167071227
O	11.664112546658869	12.455679819174303	17.752343948057675
O	11.690460497246493	13.581659057294045	18.61581736269141
O	10.54622274510139	14.204865737192202	18.050829630740452
O	10.00418598304498	15.012461247637317	18.98050420698613
O	8.677679632758037	15.072880872878347	19.051278985679822
O	8.212607642539082	14.897510752776665	17.78814789826581
O	12.307930784583903	14.448067024440196	16.472553587221167
O	10.524576123743197	11.783891436883053	17.927808814275558
O	9.769157651247594	12.22072918392529	18.995562487890275
O	9.832738831376785	12.295812261850605	20.242605268043853
O	9.906298101351972	13.198369671194026	21.374041124702813
O	9.398629704809089	11.086637799237035	20.923407762968704
