75

O	2.0763648455614034	-0.9897402283157897	3.605841062157895
O	3.830564635561404	-3.01090576831579	-1.050040327842105
O	2.5604177455614034	1.0236317206842103	0.41513325715789495
O	2.6814650555614032	0.4498395595842103	1.6093507321578948
O	1.7125015155614034	0.3235043546842103	2.512560002157895
O	0.5241949395614034	0.6879594056842103	1.8804945521578948
O	0.39746873756140344	1.5859580316842103	0.866621687157895
O	1.5936262355614035	2.02502336168421	0.301884535157895
O	-0.5396943784385966	1.1597949456842103	-0.210864394842105
O	-0.07683363343859656	-0.024917534315789747	-0.655530517842105
O	0.5624844075614034	-0.43073175731578967	-1.8102219078421051
O	1.2911219655614035	-0.1304307863157897	-2.6789385878421053
O	3.1247122455614034	0.4117374917842103	-0.610879023842105
O	4.029495265561403	-3.39906760831579	0.22863124815789498
O	3.267533065561403	-2.7201446583157898	1.137576092157895
O	2.5137696855614036	-1.6286997283157898	0.675243044157895
O	3.0497308855614036	-0.9283091683157896	-0.30566910784210505
O	3.459868785561403	-1.7187775983157898	-1.225240087842105
O	1.9343689955614036	-0.5117639383157897	11.753370512157895
O	0.9649296155614033	2.28316922168421	9.335113432157895
O	3.5090065055614033	5.00639790168421	8.614288442157896
O	4.184858215561404	5.9902913816842105	4.996929442157895
O	3.6250281855614035	9.63466627168421	5.832293342157896
O	0.020900669561403407	8.91510438168421	6.761792532157895
O	-1.0062219974385966	7.43229808168421	3.320282072157895
O	-3.2052849844385967	9.460141901684212	0.9807789021578951
O	-1.6446676144385965	9.553399441684212	-2.484874887842105
O	-3.4143522444385965	7.26533744168421	-4.951470237842105
O	-4.018843724438597	7.35661529168421	-8.747655317842105
O	-3.5213148744385965	3.53270929168421	-8.886680127842105
O	-2.3765722044385966	0.7733494786842103	-6.5833103478421044
O	-2.2951574344385968	-3.0721623283157897	-6.859157947842105
O	-0.5007498474385966	-5.54522144831579	-4.578268957842105
O	-1.7891568644385967	-9.030638238315788	-4.277137647842105
O	-0.5166959224385965	-11.66646801831579	-1.819318867842105
O	-2.5411100744385964	-14.61593691831579	-0.606790931842105
O	-11.353202134438597	1.8736409616842105	-2.564021297842105
O	-8.710546114438596	1.4192774276842104	0.07543983615789498
O	-7.424714104438596	-1.9630729883157898	1.226405402157895
O	-4.625905204438597	-2.38086738831579	3.736309962157895
O	-4.282630164438597	-5.83214984831579	5.428699872157895
O	-0.7007626464385965	-6.76100991831579	6.3461830821578955
O	0.08487630556140341	-10.381741418315789	7.108466912157895
O	-0.9385212594385965	-12.361324718315789	4.0732968421578954
O	-0.5927124444385966	-9.41621697831579	1.7154903421578949
O	-3.4383408644385964	-7.2084345683157895	0.45431458415789494
O	-3.098046864438597	-3.83136979831579	-0.916512172842105
O	-5.420440154438596	-1.8573945583157896	-2.870459807842105
O	-5.642543304438597	1.7238889816842105	-4.129523647842104
O	-8.190065754438596	4.03041973168421	-5.685898437842105
O	-12.289241134438596	-3.34704347831579	-9.750748917842104
O	-9.225036624438596	-5.45103242831579	-9.032596937842104
O	-4.0931494444385965	-14.340827318315789	-5.688437237842105
O	4.623380115561403	-6.69145640831579	-8.602770507842104
O	5.398892745561403	-3.12779714831579	-9.821009427842105
O	6.537542915561403	0.2242548446842103	-8.121456017842105
O	8.767502785561405	1.1764512716842104	-6.364802627842105
O	7.790207665561404	-1.1412948083157897	-3.5500691678421052
O	10.057470565561404	-1.9589530683157899	-0.524020037842105
O	8.598005535561404	-2.84572512831579	2.998782842157895
O	9.206791245561403	-2.46141009831579	6.734806122157895
O	12.453933365561404	-0.5824738883157896	5.7696228321578955
O	10.936759765561403	1.9736319116842103	3.336721322157895
O	10.773309065561405	2.68103222168421	-0.39736698684210503
O	7.163448115561403	3.53446473168421	-1.373471597842105
O	6.859247695561404	5.4051402716842105	-4.7448159178421045
O	3.6873557355614035	6.6158723016842105	-6.576166927842104
O	3.7189326455614036	10.04132313168421	-4.934395517842105
O	8.354997445561404	7.79063656168421	-0.06900268884210503
O	1.9142136855614034	11.88795668168421	1.0528839421578948
O	-0.8996448644385966	13.24954168168421	3.164287582157895
O	-3.5039947944385967	1.4388441896842104	11.596392212157895
O	-4.894989024438596	1.2676311316842104	8.039948412157896
O	-7.367533644438597	-1.4633506483157896	9.002948262157895
O	-7.643811254438596	-3.69035062831579	12.056362112157895
