78

O	-0.2525441383392856	2.104540976980357	1.7624841825357147
O	-0.47177360633928556	-0.5981309530196428	-1.5435965174642856
O	0.2800963916607144	2.149834276980357	0.46143758553571446
O	0.34757410166071434	-2.3353459930196427	0.5794984065357144
O	2.337083741660714	-2.009265063019643	-0.7129730054642855
O	1.8545390816607144	-0.9864027830196429	1.2394720525357146
O	2.2637030516607144	-0.8319957330196428	0.03337742953571443
O	-2.3171718183392853	-2.817341283019643	0.7584512325357143
O	-0.7514600273392855	0.8209886619803571	1.9683472325357148
O	0.19518072166071443	-0.1464189060196429	1.8036249925357146
O	-0.22525016633928563	-1.4147129530196427	1.4764655525357142
O	-1.3527543663392856	-1.8932702930196428	1.8296040625357146
O	-2.1459297283392855	-0.824872163019643	2.2825760325357147
O	-1.5590640803392857	0.30788712498035714	2.8526998625357147
O	-2.3532439683392856	0.2372019459803571	-0.24821220616428558
O	-1.0699696962392855	0.24577312298035714	-0.2969554978542856
O	-0.23289856433928557	1.154579841980357	-0.3964408754642856
O	-1.4733113763392855	1.858657796980357	-0.7766017054642855
O	-2.6224213083392858	1.489974002980357	-0.018680670464285565
O	1.3553638316607144	-2.4379668530196428	1.5035262725357144
O	2.8476644116607144	0.3798490579803571	-0.3730871612642856
O	0.2438769416607145	3.7941275669803574	0.04511572953571441
O	15.664948701660716	4.484324126980357	-5.112031577464285
O	12.096632401660715	2.758796746980357	1.5439863625357146
O	8.571110981660715	3.6117180269803573	2.6319016325357145
O	7.642742071660715	3.127659886980357	6.261853782535715
O	4.369867201660715	1.358602875980357	7.022239832535715
O	3.3694100316607143	4.104355886980357	9.412716592535714
O	3.3339985516607147	6.483990076980358	6.499279652535715
O	0.6744831216607143	4.601440376980357	4.445863112535714
O	-2.8987652983392858	5.906877366980357	4.117272322535714
O	-5.389258538339285	3.1994786269803575	4.858509112535715
O	-7.126895998339285	1.789192636980357	1.7385157725357145
O	-10.521392338339286	0.17991403198035716	0.9896787725357145
O	-8.903529498339285	-2.312924583019643	-1.4735679574642857
O	-5.282496558339285	-3.361420443019643	-2.3420340774642856
O	-3.756854078339286	-5.617926033019643	-4.992312067464286
O	-0.2143153663392856	-6.929545493019643	-5.316771227464286
O	1.0733475316607144	-7.817214303019643	-8.693483277464285
O	4.648127451660715	-8.758453093019643	-9.596491167464286
O	-4.8749826483392855	9.861360026980357	-9.518649847464285
O	-7.3824293583392855	8.295808466980358	-7.118824537464286
O	-5.231814318339286	5.182884756980357	-7.324013657464286
O	-2.0130958343392855	4.487545186980357	-5.4167918274642854
O	0.8035551316607144	2.512418156980357	-6.897683807464285
O	4.011887311660715	1.9157801569803572	-5.143222477464286
O	7.015810221660715	0.6308096480803571	-7.076039487464286
O	9.429747801660715	-1.690496573019643	-5.324261767464286
O	6.658973541660715	-5.685874343019643	-7.550582777464285
O	3.7312779416607142	-3.330804293019643	-7.847758787464286
O	1.3235879116607145	-2.516478923019643	-5.110550147464285
O	-1.9616985373392857	-0.9382065930196428	-5.899235057464286
O	-4.747247908339285	0.4512335309803571	-3.7386477174642856
O	-7.947458278339285	2.659339316980357	-4.056119047464286
O	-11.073690798339285	3.468426126980357	-2.1261983374642854
O	-13.513140098339285	1.885770026980357	-4.606466657464286
O	-9.293202628339285	-0.8033437730196429	-12.429420987464285
O	-6.827934148339286	-3.567266783019643	-11.729024487464285
O	-3.3871517683392858	-9.984824493019643	3.0736983725357145
O	-1.5700726703392855	-9.997330793019643	5.384808052535715
O	1.3629433116607144	-8.916437053019642	3.2248133325357147
O	4.868286071660715	-9.394864093019642	4.460936322535715
O	7.589001871660715	-7.080910733019643	3.2223475625357145
O	6.783225241660714	-6.033562903019643	8.455428052535714
O	3.3323444016607144	-7.530378753019642	8.507223852535715
O	0.9696118516607144	-5.228389673019643	6.751459472535714
O	-2.7309253483392855	-5.717036463019642	7.4016998825357145
O	-5.860115268339285	-3.9918599830196424	6.027735082535714
O	-5.975049888339285	-1.3161303630196428	8.792248232535714
O	-3.007032818339286	-2.0607402730196425	11.068259612535714
O	0.6746137516607145	-3.0121650530196433	10.673697612535715
O	-2.1965783183392853	3.9996823169803575	9.408484912535714
O	-1.8696358263392856	7.654691136980357	8.615264622535715
O	-4.752721408339285	10.071197916980358	8.235752382535715
O	7.582605711660715	8.312468196980356	2.3952927325357147
O	9.446876801660714	7.333201546980358	-0.7586001594642856
O	6.075506981660714	6.332061186980357	-2.222901897464286
O	7.204961641660715	6.933557486980357	-5.7992822174642855
