73

O	-2.183749600396227	-0.04174144522641532	0.8032401517169809
O	-3.148036337396227	0.2831510707735847	1.7913778217169811
O	-2.662925247396227	-0.3089390692264153	2.9638798917169806
O	-1.953884457396227	-1.5021239872264152	2.862972471716981
O	-2.433848017396227	-2.0764037372264155	1.616616731716981
O	-2.325926557396227	-1.3090613372264153	0.44513287071698104
O	-1.9003068593962271	-1.2875594172264153	-0.839121367283019
O	-1.3075356950262271	-0.14333870422641531	-0.935187356283019
O	-0.6940096733962271	0.5974523267735847	-1.981207678283019
O	0.9938334526037729	0.20574574077358468	-2.0631145882830193
O	1.263016482603773	-0.6034351062264154	-0.48191792828301905
O	-1.041840138396227	0.3400409351435847	0.21921772471698098
O	0.553982622603773	-1.6767542572264154	-0.304687624483019
O	0.6145682026037729	-2.3024427372264156	0.848870331716981
O	-0.060052187396226975	-3.5745418472264157	1.102015731716981
O	1.010599072603773	-1.6430506272264152	1.937052441716981
O	1.9342967226037728	-0.7039328572264152	1.591793091716981
O	1.5874512926037732	0.12378491777358469	0.564710926716981
O	-1.630518613396227	0.8179525847735847	-2.8950910282830193
O	-0.500774345396227	2.0288229227735846	-1.717842008283019
O	10.461192932603774	-3.5519487872264155	10.83601415171698
O	5.772449052603773	-6.966966067226416	5.731866681716981
O	5.265689722603772	-6.193936067226415	2.115511301716981
O	3.354523082603773	-8.645640587226415	-0.03911082928301901
O	0.4061017926037729	-7.576375757226415	-2.219969668283019
O	1.910703342603773	-9.058132657226414	-5.264866288283019
O	4.861939722603773	-6.714094577226415	-4.9353428082830195
O	2.935699112603773	-3.4245667072264157	-5.226111148283019
O	3.012101252603773	-1.3173563072264152	-8.38567330828302
O	-0.536930634396227	-0.4530437512264153	-9.47526632828302
O	-1.451207864396227	3.1347535627735845	-8.593162748283019
O	-3.7901676973962273	5.703855512773584	-10.22546699828302
O	-4.757363367396227	7.033645142773585	-6.76747428828302
O	-4.245877737396227	5.966937402773585	-3.1721963982830186
O	-5.011113937396227	7.5883470327735845	0.162991645716981
O	-4.929287497396227	6.128335972773584	3.607770111716981
O	-4.287678557396227	8.357382972773586	6.556102931716981
O	-3.724502167396227	7.216267482773585	10.151898151716981
O	9.848827532603774	10.941914572773586	-5.383835388283019
O	4.880507572603773	9.594799452773586	-4.644858978283019
O	4.901276612603772	6.370688332773584	-2.687746938283019
O	4.376459362603772	6.220198672773584	1.038729881716981
O	4.443782082603772	3.1030486627735847	3.0228499717169806
O	4.813272652603772	3.1958487727735845	6.845313461716981
O	2.9122399326037725	0.46131701277358467	8.72070448171698
O	2.400864942603773	0.9409112617735846	12.427747851716981
O	0.7109971526037728	4.287132132773585	12.887231551716981
O	-0.874125132396227	4.215815212773585	9.476941571716981
O	0.36199885260377296	5.8630610927735844	6.303208981716981
O	-0.444865396396227	4.801360402773584	2.803394611716981
O	0.088082692603773	7.0095487527735845	-0.10921671528301902
O	-0.15446105739622706	6.573238692773584	-3.847985438283019
O	0.7839744026037729	8.300914272773586	-7.076134598283019
O	-11.275044957396226	0.9246919157735847	-1.300573742283019
O	-11.416061667396226	-2.0152917572264153	-1.000259465283019
O	-8.959192637396226	-1.9546383172264152	1.847770841716981
O	-8.603147117396226	-4.982378527226415	4.181297711716981
O	-5.196083487396227	-5.5923413972264155	5.916290351716981
O	-2.860063307396227	-8.341561507226414	7.13025675171698
O	-5.941603817396227	-9.578340987226415	2.264453121716981
O	-8.446118797396228	-7.570076977226416	0.21899988471698095
O	-6.599135707396227	-4.872628517226415	-1.719582808283019
O	-8.462670297396226	-3.3696703472264153	-4.64759703828302
O	-7.4669058473962275	-0.6047072712264152	-7.091557528283019
O	-5.9018962973962275	-3.0196840872264157	-9.608924568283019
O	-5.812701367396227	-8.163903157226414	-4.753915118283019
O	-0.11968369739622697	-5.936238667226416	-9.331936988283019
O	3.4885107726037727	-5.7592630472264155	-10.37337444828302
O	9.115658932603774	-5.651274247226415	-0.581973407283019
O	9.731011132603774	-3.9761218472264153	2.762992121716981
O	8.177507242603774	-0.8538673472264153	1.255026351716981
O	10.126428732603774	1.4618680427735848	3.5410335217169813
O	12.126089432603774	0.7481669317735846	6.657715981716981
