20

O	12.700626930134742	14.07344943545546	16.672941753519925
O	13.095984475710566	13.667817600973208	18.026433046041575
O	10.070346712256741	10.825006299273294	18.81379514493423
O	10.321928554310812	10.87216938995864	15.33782939100069
O	11.309097953117455	13.995844077971537	16.460198198164996
O	10.512777292336631	13.752858235900137	17.512291685838665
O	10.743653997976942	14.720244360516197	18.280707918209707
O	10.103308552854097	14.450763073953647	19.39416339934607
O	10.251113953370092	13.076361323150522	19.766236360353542
O	9.545591033959864	12.251363883213429	18.962124305206473
O	9.489919105176416	12.868830082097768	17.691493202066013
O	9.15849199438117	11.920864187328004	16.782621285758164
O	9.495751907049396	11.798606672657781	15.437234887312396
O	10.001555005364054	13.007243438731212	14.847901950578049
O	9.819980284568611	12.838404639615005	13.570133415908423
O	10.435128686097334	13.694622251675272	12.745410467700824
O	11.590242110416606	14.285036175853364	13.091132778164638
O	11.564162512964858	14.669184476794165	14.368333629565544
O	11.022449299290303	13.776393290324885	15.183423226522216
O	13.324245691985622	12.831489066332987	16.84315699168872
