84

O	-0.4943706373785717	-2.030131628928571	-1.4732178786339287
O	-1.7456236713785716	-0.5645778199285711	-0.9089911826339288
O	0.7343833686214284	-2.511148688928571	-1.1418182506339287
O	0.5480761386214282	2.215141001071429	-2.451548249633929
O	0.8627602886214284	-2.906239558928571	0.1744434573660713
O	-0.035146012378571734	-0.2029003929285711	-2.4085011496339286
O	-0.46493029737857167	-3.268739438928571	0.7248629803660713
O	1.1390291286214285	0.6879794230714289	-0.9559431896339288
O	-1.2069301933785717	-2.0642306189285713	0.6276495503660713
O	-1.3239255883785717	1.350908892071429	3.822030290366071
O	-0.7135962268785717	-1.2314161789285711	-0.3999550920339287
O	-0.5683241563785717	-2.608460038928571	3.3996483403660713
O	-1.2602749193785718	-3.252251718928571	-1.4236695276339286
O	-2.549664221378572	-2.361690378928571	0.2547286793660713
O	-0.5800437213785716	2.699682571071429	-1.8104726896339287
O	-1.5049568333785717	1.5140341010714289	-1.8255757996339286
O	-1.0659022913785716	0.2199077550714289	-1.7109182096339286
O	0.7453153686214283	0.8667874910714289	-2.288035469633929
O	-1.4740896293785717	-0.1352149199285711	2.226535390366071
O	-1.6574432423785717	0.9838939450714289	1.3509535403660713
O	-0.7591529773785717	1.7254110910714289	0.5643414703660714
O	0.29633228862142824	1.221819130071429	-0.16821580563392874
O	0.7313545586214284	0.954813622071429	1.1486138703660713
O	-0.0173811223785717	0.3470927968714289	2.177541170366071
O	-1.8376499013785716	0.027190697071428904	3.6230426503660715
O	0.7317897386214284	-1.624189598928571	1.9218247103660715
O	1.2277662086214285	-1.703648458928571	0.6661519003660714
O	0.5532575786214283	-2.8093732089285712	2.672442250366071
O	-0.13176037637857174	10.627867941071429	11.750737310366071
O	-5.108158921378571	6.712628321071429	7.298456910366071
O	-5.028905191378572	6.158299531071429	3.531923050366071
O	-8.030399851378572	4.608724941071429	1.8720355603660714
O	-7.572948381378572	1.685321041071429	-0.5175755041339287
O	-9.606007711378572	3.4958281310714288	-3.142054089633929
O	-6.979856661378571	6.197327021071429	-3.2704480896339287
O	-3.9801213213785718	3.807211781071429	-4.151418029633929
O	-2.660412971378572	3.966342281071429	-7.7588411796339285
O	-2.407665841378572	0.4854270160714289	-9.291635989633928
O	1.2087786286214284	-0.7921485089285711	-9.179821889633928
O	3.1525230486214286	-3.269503588928571	-11.426336489633929
O	5.0306318886214285	-4.598496708928571	-8.30872184963393
O	4.692581938621428	-4.184800708928571	-4.4683230896339285
O	6.891070968621428	-5.300256988928571	-1.5757825896339286
O	6.179587208621428	-5.269597718928571	2.1055052703660713
O	8.955350828621427	-5.038050868928571	4.592258830366071
O	8.633155748621428	-4.577857218928571	8.377727190366071
O	8.979006638621428	4.576299381071429	-6.270808729633928
O	6.1991513086214285	4.751345491071429	-3.674683279633929
O	6.734039578621428	4.089827441071429	-0.01625263663392873
O	4.087496218621428	4.366506721071429	2.5620846403660713
O	5.103082248621428	4.581075991071429	6.283930990366072
O	2.6480374486214284	2.9405337710714288	8.729539300366072
O	3.684770338621428	2.009570271071429	12.175017410366072
O	6.795143848621429	-0.07965741392857112	11.824351710366072
O	5.866533778621428	-1.401211398928571	8.422404100366071
O	7.1123299386214285	-0.1211475629285711	5.048371150366072
O	5.177449238621429	-0.5417307499285711	1.7260483003660714
O	6.851681318621428	-0.1996256509285711	-1.4978959996339287
O	5.595975848621428	-0.1765742449285711	-5.062067209633929
O	6.812321078621428	0.776932544071429	-8.580009019633929
O	15.503892978621428	-1.443216878928571	-6.137728669633929
O	14.169148678621427	-3.2816881289285713	-3.1109585396339288
O	-0.7169661291785717	-10.83734255892857	-1.8973063696339287
O	-3.5680921613785714	-10.722522658928572	-1.0306649956339287
O	-2.6877451113785717	-8.48646661892857	1.8657638303660715
O	-5.063170691378572	-7.842269348928571	4.823982030366071
O	-4.863684121378571	-4.522714068928571	6.7597863303660715
O	-6.996184441378571	-1.9909040989285711	8.576394510366072
O	-9.999843981378573	-4.2784110689285715	7.812339890366072
O	-9.553229581378572	-4.578775798928571	4.015725480366071
O	-8.337796401378572	-7.155426788928571	1.5046331903660712
O	-5.949004851378572	-5.570250798928571	-0.9396284826339287
O	-5.194911071378572	-7.317577588928571	-4.182412859633929
O	-2.8837022313785714	-6.505680238928571	-7.1422100396339285
O	-5.560856601378571	-4.563752728928571	-9.041685209633929
O	-8.694149221378572	-4.6526739289285715	-6.8985470896339285
O	-9.615646871378573	-4.224721628928571	-3.202524719633929
O	-7.699949611378572	1.467043421071429	-7.9230873896339284
O	-7.311136671378572	5.095444751071429	-8.811328339633928
O	-4.587102381378572	10.047857931071428	0.8979325103660714
O	-2.2415101013785717	10.366492341071428	3.862793720366071
O	0.3273085386214284	8.524614601071429	1.7203240903660715
O	3.2358517186214284	10.11453376107143	3.5627593703660714
O	3.4040184586214286	12.071997841071429	6.807931690366072
