88

O	-0.330663028590164	-2.5214733347540985	0.7708660760491804
O	0.530349476409836	-2.6798387247540982	1.8537112360491803
O	1.6004031564098362	-3.5359491847540987	1.5425219960491803
O	1.340887426409836	-4.524686464754098	0.7204353260491804
O	0.35840124340983603	-4.392399694754099	-0.18065044995081964
O	-0.697733809890164	-3.7516430947540984	0.3201696300491804
O	-1.3787813965901639	-1.6855486847540986	0.6733318860491803
O	-1.835967083590164	-3.6499530347540983	-0.36060593265081964
O	-2.103325103590164	-2.3975693247540986	-0.33521027995081965
O	1.489558146409836	0.16213381524590142	0.3760712810491804
O	1.674024286409836	-0.8889611947540986	-0.45139460988081964
O	0.4051623964098361	-1.1330907947540987	-1.0506216969508198
O	-0.630505300940164	-0.10714551575409859	-0.6890547409508196
O	-0.22245462459016396	1.0872525282459016	-1.0960258799508198
O	1.036992206409836	1.2248101102459015	-0.47919378415081965
O	2.083274926409836	3.3982116652459013	1.4612644760491804
O	0.884315806409836	4.025097445245901	1.6347413760491802
O	-0.296137570590164	3.3409103452459017	1.9013784660491804
O	-0.20014851859016397	2.0160138352459014	1.5997152360491804
O	0.976778216409836	1.3892525402459015	2.0431307260491804
O	1.9567782864098362	2.0541515552459013	1.2394132860491802
O	3.354000386409836	3.8440990752459014	2.0536865560491804
O	-1.4540323515901639	4.155846045245902	1.9433136360491803
O	-2.172559913590164	5.057035235245902	1.6864408960491803
O	1.238490426409836	0.07354084824590146	1.76365590604918
O	-1.500505780590164	-0.31745762475409844	0.5480428130491803
O	3.364057736409836	-1.2736040147540986	0.37384685104918036
O	9.882361156409836	2.3675212052459016	-0.6137921139508196
O	9.046579766409835	2.1599976352459014	-4.2837028139508195
O	5.548519696409836	1.0597330712459014	-5.1994333839508196
O	6.960579356409836	-1.4981176647540986	-7.63896702395082
O	8.516929586409837	-3.3001822147540985	-4.711812723950819
O	5.250277206409836	-4.022600314754098	-2.8191272739508197
O	3.766078676409836	-7.495573254754098	-2.68392012395082
O	0.10565679140983597	-7.236925014754099	-3.5644254439508196
O	-2.2186420135901637	-7.717156844754098	-0.5921792339508196
O	-5.7506138335901635	-8.9661731447541	-0.044412932950819606
O	-6.505495103590164	-6.135202354754099	2.4156425860491804
O	-4.927299153590164	-2.8963229347540986	3.57508518604918
O	-5.617493743590164	-0.33291746475409856	6.25693778604918
O	-4.150118383590164	3.1181171452459018	6.63409950604918
O	-4.071043623590164	4.518187415245901	10.12709512604918
O	-2.341980613590164	7.763421195245901	11.14980422604918
O	1.031817596409836	-8.9491280747541	8.66932216604918
O	2.925285686409836	-6.129550044754098	6.98699627604918
O	3.296778636409836	-2.6929112747540986	8.444668656049181
O	5.091389996409836	0.12148163424590142	6.72925487604918
O	6.174483766409836	3.0659367452459017	8.90277620604918
O	6.227503236409836	6.439018845245902	7.19489610604918
O	6.300175236409836	9.5666016552459	9.331075696049181
O	1.346309606409836	7.167441065245901	9.221370076049181
O	1.016161326409836	3.4106923052459015	9.39376895604918
O	0.09938574840983605	1.1841411302459015	6.46195592604918
O	-0.9943571345901641	-2.2988431447540982	7.18723598604918
O	-1.758257233590164	-5.1790902147540985	4.97284214604918
O	-2.376566173590164	-8.982949364754099	5.09926885604918
O	-3.961551923590164	-11.7843826247541	3.1032184360491804
O	-10.542485453590164	-11.6811035247541	4.53946215604918
O	-8.491926023590164	-8.372406834754099	8.942402276049181
O	-8.556984433590163	6.311935255245902	13.25046852604918
O	-9.766999113590163	5.133062125245901	7.83505338604918
O	-9.194156483590163	6.451069335245902	4.311837406049181
O	-10.020364093590164	4.323099965245901	1.2895690360491803
O	-8.132918893590164	3.2897770152459014	-1.9043613939508197
O	-6.801105923590164	4.6642052852459015	-4.138866003950819
O	-4.102971223590163	5.953702025245901	-1.8279663639508197
O	-1.986667323590164	8.902933785245901	-2.91228984395082
O	1.4968905364098362	9.3457580152459	-1.5304848039508196
O	4.975124396409836	10.4985205752459	-2.44958277395082
O	1.996500496409836	8.009513735245902	-6.72999906395082
O	-1.451490503590164	6.5231637752459015	-6.94156512395082
O	-1.471147572590164	3.1890107652459014	-5.18349575395082
O	-4.336920953590164	0.8819641242459014	-6.0409139439508195
O	-5.3931964135901636	-2.5482351247540986	-4.84975795395082
O	-3.361253543590164	-4.419955084754099	-7.47082113395082
O	-1.777534013590164	-1.7550380747540983	-9.62899594395082
O	0.06715089340983604	1.5438896362459014	-9.142522163950819
O	0.974614706409836	4.5655939952459015	-11.23648647395082
O	2.311128006409836	8.0675109352459	-10.887473173950818
O	-0.336583408590164	10.668493155245901	-10.089114993950819
O	2.349897856409836	-0.8375417147540986	-12.970006373950818
O	1.807638226409836	-4.161443054754098	-11.21043647395082
O	3.041110176409836	-5.376477374754098	-7.86921758395082
O	5.874357406409836	-7.774371314754098	-7.164055023950819
O	5.592678016409836	-11.5448482247541	-6.943075613950819
O	6.690531206409836	-3.6030358047540982	-12.525924173950818
O	9.807798056409837	-1.4442282547540986	4.08619352604918
O	10.826431256409837	-1.1287842147540985	7.68688412604918
