88

O	-3.256380463288136	-4.096827864272882	0.32465398105762716
O	1.8170302567118641	-3.292392264272882	0.5405753890576273
O	-3.580250023288136	-2.112526684272882	-1.6364546919423728
O	-2.815272653288136	-1.5978611142728818	-2.693943441942373
O	-1.750603057288136	-0.8557725142728818	-2.2650644419423727
O	-0.9291271132881358	-1.7217910942728816	-1.697244831942373
O	-1.5261607162881359	-2.6828693942728816	-0.8719750589423728
O	-2.898617943288136	-2.7224848842728817	-0.5867756189423728
O	0.41408985671186427	-1.4844000842728817	-1.6161613019423728
O	0.45323410671186415	-1.1967563142728816	-0.30365960394237285
O	-0.6287822502881357	-0.30644759827288176	-0.007803135942372863
O	-0.3581841882881358	0.30609771372711825	1.225050208057627
O	-1.0788468925281358	-1.0007237942728817	1.5578377480576273
O	-0.34773134128813576	-2.2837274742728817	1.5937952480576272
O	0.3966773267118642	-2.3591540342728816	0.4616955230576271
O	-0.1216146652881358	0.43677172092711825	2.4566037880576275
O	0.6794815567118642	-0.8403266342728817	2.3352247280576273
O	1.9973278167118642	-0.16898387127288178	1.9957943780576273
O	1.803667126711864	0.5761736879271182	0.7728890780576272
O	2.4441967967118643	1.7560517257271182	1.407860048057627
O	2.511418776711864	1.6521455557271183	2.6433018980576275
O	2.4107280667118642	0.35677736572711827	3.0132616080576273
O	1.3691494767118644	0.7419185637271182	-0.41339221344237287
O	1.3699566967118644	1.8589772657271182	-1.238192130942373
O	2.1550546367118644	2.822876905727118	-0.46406626340237284
O	1.8248632167118641	2.7674570357271184	0.743158228057627
O	2.930703846711864	4.017440575727118	-0.6969654109423729
O	-3.196969933288136	-2.1764602442728815	-4.001460941942373
O	-2.7682222932881357	-3.0490521042728815	-4.682579011942373
O	-8.218086693288136	-4.599931024272882	3.9953204780576272
O	-9.251928313288136	-1.0254887442728817	4.529493168057627
O	-6.796772963288136	1.6284087457271184	3.3185443180576275
O	-7.253455863288135	3.4126438757271185	6.680781798057627
O	-5.6291008432881355	0.4362415197271182	8.339051298057626
O	-2.3357900132881357	0.5719363298271183	6.342580678057627
O	0.8288076967118643	1.8029772257271184	8.059148628057628
O	2.513388716711864	4.523132115727118	5.9065577880576265
O	5.581175746711864	3.104845425727118	3.956823008057627
O	8.871916876711865	4.544913085727118	2.6608929680576274
O	8.668363906711864	2.314432865727118	-0.5111238673423728
O	6.054886696711865	-0.04470912227288176	-2.138377471942373
O	6.006919166711864	-2.3027544742728816	-5.098639801942373
O	3.110472636711864	-3.869461554272882	-6.878677401942373
O	3.8149429167118645	-7.055077114272882	-8.697600871942374
O	1.2715443367118642	-9.383447274272882	-10.295614741942373
O	10.546801656711864	-5.844972554272882	8.222913958057626
O	8.732901756711863	-6.289067064272881	4.923430828057627
O	4.9715239967118645	-6.168075144272882	4.337344838057627
O	3.286869236711864	-8.257392634272883	1.683443838057627
O	-0.46054329528813576	-8.118530454272882	0.9834188080576272
O	-1.8904536752881358	-11.036401664272882	-0.9956716629423727
O	-4.935983563288136	-10.114977864272882	-3.0820739019423726
O	-5.983660793288136	-12.426997464272883	-5.871393231942373
O	-1.4797120142881357	-9.535741264272882	-7.122794861942373
O	1.2267253967118643	-8.905682394272883	-4.553395781942373
O	1.7654965567118643	-5.519740884272882	-2.728702631942373
O	5.162122306711865	-5.163760044272882	-1.0729517229423728
O	6.245145266711864	-2.3583183242728816	1.2309741380576271
O	9.145632056711865	-1.5666983342728815	3.563785168057627
O	10.947590056711864	1.3579050727271182	5.120647108057627
O	15.620886456711863	3.3414985157271184	0.664948678057627
O	14.239169856711865	-1.9448130442728817	-1.5156176419423728
O	12.270595756711863	-6.797122764272881	-4.393731371942373
O	2.862682276711864	0.022191980727118255	-11.969626001942373
O	3.304421996711864	3.3440494357271184	-10.265398661942372
O	1.2658966367118643	5.307826355727118	-7.6762333919423735
O	-1.4793157912881358	6.331723565727119	-7.345392751942373
O	-2.783523843288136	2.782117395727118	-7.114400031942373
O	-6.435816823288135	2.211158065727118	-7.683598061942373
O	-8.070317613288136	-0.7934231842728816	-6.091239761942373
O	-9.998698083288136	3.5944261257271184	-3.637409281942373
O	-7.102355353288136	5.737993665727118	-4.6555471819423735
O	-4.137424943288136	4.736157875727118	-2.5906814119423727
O	-1.4288412762881357	7.598943985727118	-2.5898956119423726
O	2.051808386711864	7.624438395727118	-0.8229018639423729
O	0.8138557667118642	9.060056385727117	2.4615456180576274
O	-2.906196093288136	9.618529185727118	1.925947038057627
O	-5.869598013288135	7.692571515727118	0.47761161405762714
O	-9.336198973288136	8.495490555727118	-0.7242883439423728
O	-12.219814443288136	6.942300295727119	-2.5547846019423726
O	-11.962639143288136	7.176077545727118	-6.331120721942373
O	-4.230680203288136	9.513891245727118	6.3325177780576265
O	-2.5706371532881356	6.266368385727119	7.255728838057627
O	-2.378204203288136	4.555147525727119	10.610922198057628
O	0.28879364671186414	5.098865505727118	13.243885598057627
O	-8.116567473288136	8.006406895727118	9.234599478057627
O	-3.562943993288136	-7.969258114272882	5.585416338057627
O	-2.6460763132881358	-11.663824164272883	5.360608658057627
