88

O	-4.091828676033899	-1.7801730426578606	2.1976424285457634
O	2.8375093839661014	-0.4196882526578607	-1.030171717454237
O	-0.36432491903389885	-2.3062256326578607	-1.762802368454237
O	-0.4494467330338989	-0.47046834265786064	1.662964988545763
O	-1.5426801890338988	-1.0947071626578608	2.010762408545763
O	-2.802572896033899	-0.5649390326578607	2.127383048545763
O	-2.906155566033899	0.3473880123421393	1.130052088545763
O	-1.821458864033899	0.8895528073421393	0.595760528545763
O	-0.9698096970338989	-0.15164509365786072	0.4639728685457629
O	-1.6713045370338988	1.4703218223421393	-0.815586974554237
O	2.231752663966101	-0.6580571526578607	-2.346378181454237
O	-2.123155356033899	0.5146596893421392	-1.488188929454237
O	-1.8482047260338987	0.31851016634213924	-2.8121229614542367
O	2.479425613966101	0.9628825593421393	-0.964605162454237
O	-1.931397471033899	-0.5023636726578606	-3.639303501454237
O	0.8756917839661011	-0.8675616426578607	1.1510200485457631
O	0.916294753966101	-0.46811981265786073	-1.988047311454237
O	-1.6436386100338989	-2.656023592657861	-1.346529502454237
O	-1.6947216350338987	-2.8519129926578604	-0.038989011454237055
O	-0.45017844803389884	-2.6000731926578604	0.5948861385457629
O	0.5504994039661011	-1.6507306726578606	0.11345895054576305
O	0.4069744339661012	-1.3694343326578606	-1.154863629454237
O	3.170614853966101	1.8226420173421392	-0.30748747045423697
O	2.609787903966101	1.9873024973421392	0.9303468385457629
O	1.330657523966101	1.9028552873421392	1.213026268545763
O	0.6283064339661011	1.6212235233421393	0.12821414554576305
O	1.226652293966101	1.3396570283421392	-1.013214585454237
O	4.427664063966101	1.8331789273421393	-0.474121355454237
O	0.7243760839661011	1.9449418773421392	2.2654807485457633
O	-6.242405226033899	6.170679427342139	9.012848748545764
O	-3.790019526033899	6.541814657342139	6.1108783485457625
O	-4.998701186033899	8.181528427342139	2.971362378545763
O	-4.0661388560338985	6.630165607342139	-0.321268717454237
O	-2.898327436033899	9.96618572734214	-1.661501302454237
O	-0.2424922870338989	9.920376997342139	0.9900798885457629
O	1.468141623966101	6.701484877342139	-0.12292183445423699
O	4.839818053966101	6.763444007342139	-1.835119008454237
O	4.688612543966101	4.602521527342139	-4.959125271454237
O	6.412629503966101	1.2330188473421393	-4.431824591454237
O	8.233578553966101	-1.1553578926578607	-6.820785821454237
O	6.829116143966101	-4.205691342657861	-4.962856301454237
O	4.157048853966101	-4.803055072657861	-2.2813205814542368
O	3.0826951339661006	-7.863809242657862	-0.23266107545423698
O	-0.07095374603389892	-8.16492299265786	1.9210537185457628
O	0.0017693039661010879	-10.649114122657862	4.720130908545762
O	-2.609577756033899	-11.145976122657862	7.444529858545763
O	14.287979643966102	0.6721862066559393	3.252170258545763
O	11.1074818439661	-1.3132282326578608	3.826701588545763
O	7.683982433966101	0.07748380634213925	4.633242818545763
O	5.191434603966101	-1.7719781626578606	6.764205408545763
O	1.769152373966101	-0.44794993265786065	7.506045118545763
O	-0.10250758403389892	-1.9342047726578608	10.503542628545764
O	-3.873302646033899	-2.056796102657861	10.162938528545764
O	-5.832444336033899	-4.339008752657861	12.458031928545763
O	-4.416971616033899	-7.824683912657861	12.058437528545763
O	-3.1910585960338986	-7.139304682657861	8.527094158545763
O	0.3050543239661012	-6.159743272657861	7.443987218545764
O	1.167857383966101	-4.278166062657861	4.217461648545763
O	4.7593637739661006	-4.320611802657861	3.0848336885457632
O	6.431752003966101	-2.4504358226578606	0.296571908545763
O	9.955198043966101	-1.694001222657861	-0.943080304654237
O	11.8309774439661	-0.6999581226578608	-4.066221021454237
O	11.6636460439661	-8.63562738265786	-2.248571411454237
O	9.315918643966102	-10.99607422265786	2.7671926485457634
O	-3.6173239960338988	-11.64884042265786	-2.3138809614542373
O	-2.810777936033899	-9.70114902265786	-5.501992521454238
O	-3.3605929960338985	-6.065466302657861	-6.730832941454238
O	-5.706503476033899	-4.312190642657861	-7.081859311454237
O	-6.266621296033899	-4.152146922657861	-3.317068971454237
O	-9.492852316033899	-2.941310742657861	-1.912501471454237
O	-9.663144056033898	-1.373335422657861	1.5169492385457628
O	-10.730562986033899	2.5126380073421393	-2.120203691454237
O	-9.094314346033899	0.6355803835421393	-4.940646671454237
O	-5.3658627460338995	0.7685458766421392	-4.578443741454237
O	-3.336887126033899	-0.05420448965786073	-7.800732131454237
O	0.48831652396610115	-0.33844307265786067	-8.411372451454238
O	0.8127041339661012	3.352987287342139	-9.256927661454236
O	-2.651941936033899	4.890332217342139	-9.111475081454236
O	-5.6499761060338995	4.806064647342139	-6.7181926414542374
O	-12.511213756033898	5.172524757342139	-4.783340951454237
O	-14.2665074560339	1.8518400173421392	-5.395544501454237
O	-1.4679224510338988	9.27771315734214	-8.323325281454236
O	0.8896404539661011	8.60703247734214	-5.468278371454237
O	3.055138213966101	11.04970037734214	-3.5773253414542374
O	6.584046603966101	12.05185297734214	-4.490358931454237
O	-2.996330686033899	13.380023777342139	-5.7217642114542375
O	1.5778371539661011	5.122818777342139	8.466949088545764
O	2.7333451039661014	3.696241437342139	11.786085828545763
