28

O	8.942093606869928	11.937189820772634	18.5813604262482
O	9.365970627745014	12.618433381087202	16.69467577193407
O	9.247512856504615	11.192363618186908	19.812078832871983
O	11.07855178320792	14.894035279469591	14.045305290968395
O	10.665615340389055	11.445727266308637	19.92752727019922
O	9.631522390372721	12.93656874537125	14.78586086924722
O	11.182967591573703	10.723667488734824	18.883326414138246
O	11.262123441857417	12.71495044866731	14.515884533082975
O	10.383661047803557	10.742659755891477	17.621033870447587
O	11.954387609867961	15.924984790198014	19.57745044529947
O	10.002714511589481	12.089858904746764	17.654073254228127
O	7.894421157668204	14.494583635090965	18.519863799969823
O	7.979624687117662	11.08491221568919	17.88448666908868
O	9.579230481126592	9.595287248632008	18.120632154941614
O	10.22541461160274	15.75788800775418	14.780709474973637
O	9.535625588366587	14.982553731092988	15.845464880566649
O	9.46579087239295	13.602471673703645	15.923533408120004
O	10.402128761210337	13.661883515887185	13.884831215453858
O	11.90802537492984	13.883759328214099	18.342639021170612
O	11.61842024597527	14.84424158121804	17.40408502305852
O	12.041495404958122	14.52203746592609	16.08314733702658
O	11.768110461857395	13.29038707089116	15.621452515784908
O	12.4288077234325	12.325382930828667	16.378048028907507
O	12.682158991706842	12.915908743180436	17.642558628733436
O	12.500798441523974	14.658200391793837	19.477420900572618
O	9.61799519018312	13.634555020921038	19.79630349490727
O	10.674733281911797	12.80563211080774	19.981747102450463
O	9.134798087962565	14.7263234587601	19.111763305036426
