96

O	-0.860723831907667	-3.122858551033334	-2.6100154791833328
O	0.18481908409233294	-0.44869721103333404	1.0659530408166673
O	0.22263182409233306	2.189837598966666	-0.08979501618333263
O	-2.248230145907667	0.917506006966666	1.3515229908166673
O	5.366640854092333	0.5598254869666659	-0.20686969918333264
O	-0.990929673907667	-0.5711639610333341	0.5130366208166675
O	5.593558134092333	0.3246440249666659	-1.8611811391833326
O	1.108823134092333	0.6406820279666658	1.3305875608166675
O	-1.515373826907667	-1.768206301033334	-0.08438333018333266
O	1.886874634092333	3.3954772989666657	1.0620535008166674
O	-0.726648106907667	-2.345036691033334	-1.0801878451833327
O	6.169977144092333	1.5856155719666658	0.48988702081666746
O	0.5108044240923331	-2.348911951033334	-0.6070930041833327
O	6.006549874092333	-0.5913737510333341	0.2885937308166673
O	0.661555894092333	-1.716543451033334	0.6383151608166673
O	-1.839082745907667	0.5494660759666659	0.2727729708166673
O	-2.423692045907667	0.251847916966666	-0.9939329631833327
O	-2.614563715907667	1.133341703966666	-1.9276484291833327
O	-3.296373415907667	0.9636820464666659	-3.036428449183332
O	-3.192248585907667	-0.362751641033334	-3.6444986291833326
O	-3.362805895907667	-1.299103001033334	-2.701021479183333
O	-3.038970005907667	-0.9498622210333341	-1.3968890201833326
O	-4.362219625907667	-2.325507311033334	-3.1439463791833324
O	0.758589574092333	1.771724026966666	2.0646845308166677
O	0.749493974092333	2.889529338966666	1.0554042008166673
O	1.089906624092333	1.648952947966666	-1.0533769131833326
O	1.6313312040923331	0.47568409596666594	-1.3866810901833326
O	2.835326864092333	-0.02165481103333411	-0.8786179738833326
O	3.6397152940923334	0.7772569149666659	0.010020363816667377
O	3.5505073740923327	2.0443122489666656	-0.48571216718333265
O	2.257417074092333	2.3391913789666656	-0.7028782201833327
O	0.456960504092333	0.04751736096666592	-2.1326243591833327
O	-5.284868855907667	-1.742795511033334	-4.077507689183332
O	-5.159778505907667	-2.290016771033334	-2.126820719183333
O	-3.754887275907667	-3.118333551033334	-3.9557013591833323
O	-4.504824815907667	1.484974741966666	-3.542134459183333
O	-9.241268565907667	4.212516208966666	-2.9182092991833324
O	-7.010556025907667	6.959948538966666	-4.389850149183332
O	-3.2047542859076668	6.614925428966666	-3.9844425391833322
O	-2.997212975907667	10.148209448966666	-2.771530549183333
O	-5.096950585907667	9.096257698966665	0.2022271128166674
O	-2.556908465907667	6.361068768966666	1.5481611308166674
O	-0.806535185907667	7.104189188966666	4.729429570816667
O	2.8030851840923328	6.153440818966667	4.098983820816668
O	3.591948184092333	2.855807548966666	5.8022375908166675
O	6.858959604092332	1.405726608966666	7.053225380816667
O	6.029807274092333	-2.017225531033334	5.719812030816668
O	3.5153421240923333	-3.5002765210333338	3.457407930816667
O	2.492118434092333	-7.052812971033335	2.4295786608166674
O	0.15404517409233298	-8.226710151033334	-0.38125563718333266
O	-1.5725274039076669	-11.498592001033334	-0.08705710118333265
O	-4.2316111359076665	-12.872106601033334	-2.450016889183333
O	-2.3790815759076667	-0.3681559510333341	14.397856570816668
O	-2.6389659859076673	-2.4814419910333343	11.257071570816668
O	-4.279654595907667	-1.4769769610333339	8.042273670816668
O	-6.007807055907667	-3.960716521033334	5.723419190816667
O	-7.541837425907667	-2.916745131033334	2.4398248208166677
O	-10.035372475907668	-5.390151881033335	0.9019946108166674
O	-10.187374825907668	-5.424617301033335	-2.8747701091833324
O	-6.724406905907667	-9.555333401033334	-2.6486739491833324
O	-5.697508505907667	-8.305931411033335	0.7467810108166673
O	-3.305674255907667	-5.542266681033334	1.3865148808166674
O	-1.6463825249076671	-5.023537611033333	4.7307167708166675
O	0.4746062740923329	-2.255351081033334	6.092120160816667
O	1.7747396840923328	-1.1736267610333342	9.524764370816667
O	4.622431924092333	0.8452984819666659	11.035011670816669
O	9.928072354092333	-3.2584351210333344	11.610295670816669
O	5.664820504092333	-7.184639251033335	10.740252970816668
O	1.555673534092333	-11.184424501033334	8.883427650816667
O	0.8155912240923331	-16.667903101033335	-0.37999450718333266
O	4.273756564092333	-12.417321601033334	-1.7681756491833327
O	4.813567224092333	-9.957437401033335	-4.601538489183333
O	7.199119234092333	-7.104276771033334	-4.200144859183332
O	6.9821533640923334	-3.322430521033334	-4.8289604691833325
O	6.357991064092333	-1.504906081033334	-7.092745069183333
O	2.7689569540923333	-2.661841031033334	-7.131240819183333
O	0.5461922740923331	-1.953690841033334	-10.050919999183332
O	-3.231774315907667	-1.6662693310333339	-9.597264979183333
O	-1.243361835447667	3.2380930089666657	-10.939878729183333
O	2.247864544092333	2.425682508966666	-9.872982599183333
O	2.499911874092333	2.423339858966666	-6.056263249183333
O	5.984327894092333	2.841737238966666	-4.587075099183332
O	7.2275228140923335	3.016523808966666	-0.9865789091833326
O	6.723783124092333	6.535192948966666	-0.39972599218333266
O	5.617097474092333	7.887162858966667	-3.8049599091833324
O	3.0347115740923334	6.9894803589666665	-6.502465659183333
O	2.349475464092333	7.777232768966666	-10.121768299183332
O	0.17570872409233296	6.672561798966665	-13.003796029183333
O	1.538293534092333	3.730702628966666	-14.958569029183332
O	3.5973208640923326	11.709073798966665	-2.2489471891833324
O	1.516915834092333	10.060056588966665	0.4426085508166673
O	-0.827587211907667	11.710480998966666	2.9355950208166677
O	0.11812583409233302	12.943757998966666	6.370312700816667
O	-0.33713717890766703	14.723002898966666	-3.200043649183333
O	-10.274433255907667	1.9773674079666659	2.563351520816667
O	-12.777353145907666	-0.4926862110333341	3.974588790816667
