84

O	-0.5575225608964908	0.9853260026140352	-2.8957648856736844
O	-1.6767855718964908	1.1662483856140353	-2.189420795673684
O	-1.7986623948964908	2.0927933966140353	-1.2120764456736839
O	-0.9413557776964908	3.078706056614035	-0.9993289596736841
O	0.15153381910350916	2.821195126614035	-1.7826403456736841
O	0.15136149910350927	2.1808699166140353	-3.0220297756736842
O	-1.1557825978964908	3.574644036614035	0.2584576163263159
O	-1.3034295788964907	2.4760950166140354	1.114382084326316
O	-2.3261116908964907	2.640494636614035	2.3563463243263163
O	-0.08839730189649075	2.418106406614035	1.635621514326316
O	0.4690311091035093	2.1471703166140355	0.2921565313263159
O	1.6593540991035094	2.0102583066140354	-0.30961783667368403
O	1.2225265291035092	1.1603286676140354	0.7850194343263159
O	0.24223977910350913	0.29343649761403523	0.45133678432631585
O	-0.7854818408964908	-0.0437088943859647	1.161222114326316
O	-1.7732424468964907	-0.3888669803859648	0.3459791643263159
O	-1.2099315718964907	-1.1682531933859648	-0.6614465263136841
O	0.07055812910350912	-1.4312665333859647	-0.869436351673684
O	0.6762062491035092	-0.2695545363859647	-0.602298607773684
O	1.7643579091035093	0.14258206961403525	-1.2347462216736842
O	0.8038192991035091	-2.628194693385965	-1.3742513656736839
O	1.8017995291035094	-2.129146073385965	-1.9034748756736841
O	-0.23209825789649075	-3.532777913385965	-1.8792341756736841
O	-0.5211470588964908	0.014992061614035213	2.491999884326316
O	-0.2344854298964908	-0.10776684638596479	-3.7634747156736843
O	-0.009449640896490807	-1.1692854133859647	-4.132404025673684
O	-1.6809368598964909	-0.5330089133859648	2.972722484326316
O	-1.7624246708964908	-15.560933273385965	5.347769744326317
O	-4.0542827508964905	-10.816379773385965	-0.33290372867368406
O	-5.0069802708964914	-7.164427363385965	-0.09755733567368408
O	-6.7164507908964906	-5.678476633385964	-3.1011084856736844
O	-5.534221530896491	-2.428656823385965	-4.449192105673684
O	-8.99571867089649	-0.9945038533859647	-4.381675185673684
O	-8.98313042089649	-1.4093258933859647	-0.631006224273684
O	-5.76365815089649	0.7870317216140352	-0.006669820673684046
O	-6.468358580896491	4.161392586614035	1.5329250543263158
O	-4.58904300089649	6.830667586614036	-0.44065964667368407
O	-1.2857100468964908	7.791552256614036	1.308946354326316
O	0.6928389291035093	11.089144526614035	1.4070016343263159
O	3.948993399103509	9.061201546614035	1.540749044326316
O	4.962398539103509	5.413453636614035	1.1425471243263159
O	8.189786399103511	3.4869293966140353	1.5693954343263161
O	8.960691029103508	-0.02727517538596469	0.4744801243263159
O	11.610827929103507	-1.8600560633859646	2.379305524326316
O	12.502005729103509	-5.5218366333859645	1.985744714326316
O	-0.9738817977964908	6.833066946614036	12.336187314326315
O	1.3864275291035093	4.644660906614035	10.330383414326315
O	0.4198325291035092	1.7431242866140353	8.155228904326314
O	2.6352206191035092	-1.3219659733859648	7.6526929943263164
O	1.506968019103509	-4.1063653033859655	5.308106824326316
O	3.402853499103509	-7.397830673385965	5.645323934326316
O	3.814227549103509	-9.398623913385965	2.4851233943263162
O	6.405878559103509	-12.121956573385965	2.326969174326316
O	9.69016712910351	-10.554957473385965	3.292764884326316
O	8.630342949103508	-7.1286972433859646	2.071303704326316
O	7.25709947910351	-4.282350713385965	4.087597234326316
O	5.112541319103509	-1.4832474633859647	2.744249764326316
O	4.9300063191035095	1.5823784166140353	5.064109614326316
O	2.628702529103509	4.619074856614036	4.540534454326316
O	1.542084809103509	7.725609586614036	6.483967584326316
O	0.1025041191035092	11.143934126614035	5.901210984326316
O	9.614693229103509	7.7873698866140355	10.977405414326315
O	6.655977839103509	4.5010431866140355	-7.429664095673684
O	5.066875539103509	3.1339107466140352	-9.497922435673685
O	5.188904899103509	-0.12272948338596479	-7.544377405673684
O	4.41955547910351	-3.3670609633859647	-9.315526305673684
O	3.0737368791035093	-6.249081863385964	-7.271993265673684
O	-0.8938025968964908	-4.540073143385964	-10.450588365673685
O	0.6271385391035091	-1.1500615233859648	-10.970324185673684
O	0.20307089910350928	0.9291245766140352	-7.903922855673684
O	0.5860601791035092	4.649931786614035	-8.259482375673684
O	0.4246526291035093	7.340125616614035	-5.573308085673684
O	-3.333520530896491	8.015396976614035	-6.089618225673684
O	-4.511677350896491	5.537428556614035	-8.734743425673685
O	-3.971975160896491	1.8449676666140353	-9.612825995673685
O	-8.96446385089649	5.156769486614035	-7.436189165673684
O	-8.287737400896491	4.435014576614035	-3.779985815673684
O	-10.670299940896491	3.968000006614035	-0.923880914673684
O	-12.074878370896492	6.745698726614036	1.218426924326316
O	-12.70817007089649	1.7142272266140353	-7.073902655673684
O	-8.43929427089649	-6.229264323385964	3.1046884443263156
O	-5.954684670896491	-8.650033493385965	4.619450004326316
O	-3.935086600896491	-5.679797873385965	5.659468434326316
O	-2.3136135208964905	-7.426261923385965	8.614969954326316
