85

O	-0.5806344570824575	2.154414158001754	1.1867580731929825
O	-0.24786792208245756	-2.021121261998246	3.4730336731929827
O	-0.26056080308245755	-3.039108831998246	3.989410523192982
O	1.0852109869175424	-1.6831492919982463	-1.0533855838070174
O	0.20387803691754236	0.1785889510017541	0.2514747421929825
O	0.5590301669175424	-1.048265461998246	0.14052131419298253
O	0.9367134869175424	-1.6268152119982462	1.3262935431929825
O	0.30024483691754256	-1.2214561819982461	2.4412854331929825
O	0.11251280691754251	0.10698199900175409	2.4930663831929825
O	-2.1887876030824573	1.067152279001754	-2.9897716068070177
O	-0.08285810808245753	0.8264123600017541	1.3600957231929824
O	-0.9578442092824575	1.790618708001754	-2.7777814168070174
O	-0.21829945408245754	1.043394684001754	-2.0156257968070177
O	0.6038051669175424	1.602990774001754	-1.1857196438070177
O	0.6872147569175424	2.900523908001754	-1.0295220618070176
O	-0.13675417308245752	3.659863228001754	-1.7765602368070175
O	-0.7480466180824575	3.098733608001754	-2.8087021468070175
O	1.2225889269175423	0.7309128085017541	-0.4365627768070175
O	-0.11352537708245758	4.994264458001754	-1.3570016028070175
O	-2.4696686830824577	0.02826959200175405	-2.0360678768070173
O	-2.5234840030824577	0.14522438200175408	-0.6775716263070175
O	-2.5689285430824578	-0.9800617819982459	0.18573761519298249
O	-2.1309985430824576	-2.185639101998246	-0.22070922980701752
O	-1.9343245030824576	-2.190066001998246	-1.5431996598070175
O	-1.6107501470824577	-1.0103008419982458	-2.2278724168070174
O	-1.6456725540824575	-3.261794401998246	0.5720136131929825
O	-0.8614630495824576	-3.9646637319982463	1.0828068431929825
O	2.3395308769175425	3.432697288001754	-0.2680881158070175
O	-1.0047950773824574	5.416568718001755	11.113147403192983
O	-2.2750603430824574	5.349411678001754	7.532515123192983
O	-5.801942933082458	4.183759768001754	6.957178613192983
O	-6.406204743082457	1.730646168001754	4.188319293192983
O	-9.184262213082459	3.905458798001754	2.8085184831929824
O	-6.605247863082457	6.550654828001754	2.1080838531929826
O	-4.408119973082457	4.448988078001754	-0.2387242208070175
O	-4.405047473082457	5.126828408001755	-3.9340815868070176
O	-4.966093033082458	1.890671168001754	-5.906522236807017
O	-1.5974904430824575	0.668742326701754	-7.338649466807018
O	-0.7747205190824575	-1.438006751998246	-10.493592636807017
O	2.0514907369175424	-3.223321081998246	-8.584684126807018
O	3.1450388469175423	-3.4292167719982465	-4.914264036807017
O	6.154221546917542	-5.007865041998246	-3.1769533668070173
O	6.687869086917543	-5.499226901998245	0.5310834331929826
O	10.226441856917543	-5.699905661998246	1.7728353631929825
O	11.379216356917542	-5.808201931998245	5.399354773192982
O	6.210423476917542	8.073441818001754	-9.531564666807016
O	7.078603336917542	5.481194758001754	-6.904091726807017
O	5.478744286917543	5.339495128001754	-3.4772259668070173
O	7.206455296917541	4.058600108001754	-0.3371506298070175
O	5.429193866917542	3.772201468001754	3.0367304431929827
O	7.663211096917543	3.441810568001754	6.078361253192982
O	6.269128736917542	1.425114564001754	8.947680203192983
O	11.307411956917543	-1.856786101998246	9.823427203192983
O	8.985097876917543	-2.702270421998246	6.905211643192983
O	8.851202156917543	-0.955969951998246	3.560447023192982
O	5.802024956917542	-0.991700831998246	1.2582701431929826
O	6.3664454769175425	0.026883179001754076	-2.3232218868070174
O	3.977678096917542	0.630650709201754	-5.148829916807017
O	3.9297709769175424	2.090040698001754	-8.687404086807017
O	1.8196125069175424	2.040605928001754	-11.803199896807017
O	12.656273756917543	-0.541591701998246	-9.932723796807018
O	12.418934356917543	-2.803429131998246	-6.924849536807017
O	2.3216618669175424	-11.903921631998246	-1.6388572368070176
O	-1.1901781650824574	-10.290195831998247	-1.5275656748070174
O	-3.4442869930824576	-10.335218831998246	0.3922545351929825
O	-1.3383658890824575	-8.368703831998246	2.9490170931929827
O	-2.4137511330824575	-8.334588101998246	6.573766603192983
O	-1.4388218890824576	-5.395758081998245	8.776792473192982
O	-6.777933283082458	-5.164879201998246	8.023010463192984
O	-6.649631643082458	-7.238433741998246	4.900845703192983
O	-5.234723713082458	-5.194935721998245	2.0420321031929825
O	-5.963823193082458	-6.539768431998246	-1.4071040258070175
O	-4.977960733082458	-5.356093571998246	-4.917738016807018
O	-8.037980153082458	-3.099774301998246	-5.302412826807018
O	-10.079578863082459	-3.531202001998246	-2.1574267068070174
O	-9.529866023082459	-3.713023751998246	1.6023916431929823
O	-12.390500943082458	0.49300906500175407	-2.2075293168070176
O	-9.337648713082459	2.691321178001754	-2.5738293768070175
O	-9.112186043082458	6.433199158001754	-3.0155654768070175
O	-9.183465143082458	8.278039078001754	-6.3023873168070175
O	-14.192210643082458	4.068675188001754	0.9606572931929824
O	-2.7517728330824576	9.725148058001754	5.625968693192982
O	0.5488013169175425	9.614592058001753	7.450733443192982
O	2.0141796169175423	8.035768498001755	4.267833883192983
O	5.494537156917543	9.432468178001754	5.1216815831929825
