23

O	9.865669774290884	14.531376174115705	18.208214134344438
O	10.762995531346002	15.623915403640142	18.357645390647427
O	11.405513857219614	15.951078309302934	17.096866059017685
O	10.809053667100386	16.053292212151625	19.466914509765488
O	8.734664710874316	14.560956646370347	18.83890220960461
O	8.011188186074758	13.46013077826227	19.006243756179092
O	8.408466830531143	12.356443642634868	18.492328756608014
O	7.437412768793814	11.280513785498528	18.281503300250776
O	9.044552635663472	12.711678965055281	17.33587440588684
O	9.888060367425142	13.797389763197959	17.093310189665488
O	11.397694288471193	13.706198584548195	17.224514529454428
O	11.517193745562864	12.391330899675852	17.346741913142033
O	10.873901940571844	12.447770616437667	15.990283111734405
O	11.17345082268924	13.44677705589102	14.958294017266809
O	10.203815366341008	11.62070070341887	15.419614212868055
O	10.837191921449786	12.176975445669145	18.695207497331314
O	11.119531730204518	12.85521510642989	19.892691993438895
O	10.388569100666261	12.914229191370739	21.030053779229107
O	9.722090742607618	11.801473402830815	21.347221164002534
O	9.831302301506751	10.761564108495667	20.492531716055744
O	10.427696515708426	10.969896279039746	19.297262878831848
O	12.727495298024875	13.755340805156363	19.749742609737133
O	10.297710083627837	9.70169524964163	17.88471831473896
