23

O	10.648377676571984	11.419212909416755	17.008171740006212
O	9.87408972222478	10.827364650268938	18.128094016330195
O	9.578904707531052	14.710819329982984	19.151847578070072
O	7.611408133636344	13.422137717668491	15.306628176258966
O	8.153461377473304	14.578427654642672	15.376312526585238
O	8.451091077147078	15.146807439380773	16.551032784908916
O	8.509633143788673	14.515320424527212	17.795010442830538
O	7.871250383980405	13.347110399022283	17.732043428513908
O	7.670421875141494	12.71236851373785	16.539032561439047
O	7.5806931671659825	12.72288579203498	14.13946093825869
O	8.72217414439117	11.93732644843637	14.338511525516983
O	8.307713250495688	10.729926104967094	15.108895520319829
O	9.020053568763593	13.28902232763333	13.930330108386528
O	9.026359182540942	13.25235969721654	12.38872434194616
O	10.20636592957149	12.35763656979993	12.604643077518226
O	10.771904127700278	13.426428952065622	13.571479042592784
O	10.608697030496467	14.727026134667401	13.393252158209785
O	10.934012146957862	15.541306306745934	14.380706897876042
O	11.332766601611066	14.874227824992916	15.587554746898558
O	10.849596462143213	13.592295762727094	15.856252949619709
O	10.715022358383038	12.778995450046082	16.923977068644177
O	10.813268742197247	12.776180193794263	14.75179231512078
O	11.46767112610727	11.623380568300208	14.854435663369028
