30

O	-12.857026264767745	6.790514678664103	43.28059478313848
O	-14.98610241093805	9.363430982730506	44.80695941939122
O	-12.978729506202042	6.066774529203569	44.20990438822217
O	-13.586164545893638	6.134679539455783	42.402459013011324
O	-11.838878080795716	7.326083600747625	42.4207193117427
O	-12.137675977507794	8.312185464551362	43.40111191563274
O	-10.78489424271519	8.855433114312788	43.44666556737174
O	-11.525406972647316	7.39595329948708	44.67786282541531
O	-12.31772672053524	8.406857525809775	45.39119486233517
O	-12.712766648728158	7.700659402161071	46.45266266144787
O	-12.50926003046897	9.420109215189902	44.424930318732805
O	-13.086533136096822	10.161165623179599	43.543375302904074
O	-15.311498595416584	9.384867205232728	42.93862114218576
O	-14.54263773475074	10.028606547129021	43.70762792128182
O	-15.517355704460654	8.101555441462976	43.34382561265533
O	-16.534619348479755	7.277572710478447	43.01460546268737
O	-16.357256432821544	5.965416689681717	43.35405206054348
O	-15.836529197571892	5.818557989213327	44.54973806924937
O	-15.463393322953072	6.912386862551488	45.2342291751156
O	-15.236449048082024	8.11727908869197	44.628947905961326
O	-15.175688614611095	9.700903233822407	41.54237888758071
O	-16.389124995784133	9.389446615573403	41.109209647518476
O	-16.48375165763974	8.31715074564218	40.29555874423298
O	-15.533748043116672	7.359124557379829	40.42315386330403
O	-14.338382563069835	7.950685368524736	40.2654337992479
O	-14.13115991730741	9.015616062806782	41.056427200228086
O	-14.276015466877798	9.769039747239189	45.979386360257884
O	-15.245642512357698	9.420709602035567	46.96663711545112
O	-13.997926581100494	11.218151605285447	45.93792631495269
O	-15.868284927547503	6.10497165712521	40.59911362817297
