42

O	-14.921074872368818	7.979098060980501	44.01697110735745
O	-14.579324083855973	7.412487185138427	46.213554199931934
O	-12.680513939343143	5.965314527683301	43.782305810396444
O	-14.288526108754866	7.157689782120161	44.9465927081428
O	-14.645004619924828	5.2205451226519735	44.417981349267706
O	-13.57929201756674	6.022927423025299	44.61256632016615
O	-11.418970627430902	8.385970524248627	44.146280591316874
O	-15.331211234018232	8.467715670101027	45.992407663158204
O	-14.535867642482781	10.425812637613516	45.697792122492416
O	-15.822358135001977	8.709461847380272	44.6988531358818
O	-14.325075709002771	6.8077673319910925	47.48613947269208
O	-13.567621967426359	10.198657947242054	41.77985066712134
O	-15.77454107470537	9.268983687540725	47.08794289225909
O	-15.126146088628236	11.289496937862836	42.87694951720203
O	-14.310482613701383	9.444433539092966	47.70147600477053
O	-13.785977038178043	9.503682077139661	46.32790269456673
O	-12.634920611951372	8.79246249174354	45.906797236800315
O	-12.62404975608121	8.925507414233003	44.34274826371294
O	-14.387629690322498	5.380192941809728	47.134475688156435
O	-15.313634023189302	7.08083381106041	48.56476882797532
O	-18.002604280020396	7.187627907044754	46.53523695721366
O	-14.293412834785318	7.039683594821559	41.98118312180106
O	-15.622808064530862	3.5379116496653538	43.24447743576238
O	-17.907292300523633	8.217453928812912	45.59816669307161
O	-14.844453929906269	6.2643969618584485	40.95470375452496
O	-15.526279584519633	2.6626184919542846	42.207561060669406
O	-17.392622002223018	6.862000877639688	43.96657598906921
O	-16.717053522810154	7.30659932593249	41.01283975868326
O	-13.513221104113354	3.552537160818309	41.67022672381759
O	-17.474523098524468	5.760018270791496	44.76520947477164
O	-16.244988323501993	8.165804931603201	41.956115822688304
O	-13.487730577130208	4.132336761277102	42.84540945036552
O	-17.20799918662615	8.18450471949536	44.43365263029396
O	-16.15849385781027	6.026299937081628	41.068561726428456
O	-14.672730729037475	3.020406645055429	41.228503430370424
O	-17.305042670365612	6.102295532482556	46.07719216356472
O	-15.176763770119127	7.723165553708606	42.681742859836774
O	-14.703285926401822	4.391121632986736	43.38778611945175
O	-13.146919915799067	10.122062804980914	44.01064241343605
O	-13.81643572745707	10.759787016936396	42.9012566604236
O	-17.482278174680218	5.366772485490012	47.15909839963663
O	-16.996361756436148	5.0585208964547315	41.35346727916276
