95

O	-0.19649045723157754	0.5153601494035084	-3.044999096614035
O	-1.7734251562315775	1.0446105444035085	-4.321280716614035
O	-1.0710518352315774	1.2943367155035084	-2.460224876614035
O	-1.8404036692315775	1.3431322224035085	-0.5509187866140347
O	-0.06652003723157751	2.4699170404035087	-0.9513974406140348
O	-1.0066921662315775	1.9600191384035084	-1.2114195746140348
O	-1.4356316821015775	5.0065131104035085	-1.9820897196140348
O	1.2845283527684226	1.3101995244035085	-5.505714046614035
O	0.05287937276842247	3.7747484704035084	-3.484944566614035
O	-0.5832162612315774	0.7193231204035084	-4.320496696614034
O	-3.4058378372315774	0.9935245794035084	-2.7491266666140346
O	-4.750632527231577	1.9546973804035084	-0.40411144661403475
O	-1.9512589232315776	2.1025604514035083	-5.393302486614035
O	-3.3420230772315778	2.9033137004035083	0.8347870233859651
O	-0.9454499852315774	3.1851363504035084	-5.402833176614035
O	-1.1790880462315774	3.6636189104035086	-4.000132326614034
O	-2.438734767231577	4.199761580403509	-3.584135386614035
O	-2.5798355572315774	4.118763830403509	-2.066110796614035
O	-2.1595905372315776	1.5525343794035085	-3.2392685966140347
O	-4.416731057231577	1.6010609424035085	-3.624262096614035
O	1.2209613927684224	0.7213052094035084	-2.8309691466140348
O	-0.5169649052315775	-2.5792861595964918	-3.145259436614035
O	-0.34821645723157735	-2.5402567595964918	-4.473686176614034
O	-2.9110115472315776	-0.47991477959649154	0.11521440338596523
O	-2.7127451672315774	-2.1208521295964915	-3.338113326614035
O	1.8210761227684225	-0.22807379959649166	-3.813267146614035
O	-3.017033077231577	-1.4647193095964917	-0.8009136126140347
O	-1.4071610783315776	-2.3065210495964914	-5.242759926614035
O	-1.7160272812315776	-2.4521557395964915	-2.5595795466140348
O	-0.7913621762315775	-1.6512498495964918	-0.5701885786140347
O	-2.5330505072315774	-1.9795655395964915	-4.620346446614034
O	1.8006690627684228	-0.1380424095964916	-5.262683266614035
O	-0.7078900812315775	-0.5354892895964916	0.17810092338596517
O	-0.00816246723157743	0.5219401464035084	-5.705867046614035
O	-1.8549315372315776	-1.8914763295964914	-1.2828014846140348
O	-1.7546049962315775	0.2826470924035084	0.24623762338596533
O	-3.6370606772315774	3.9564142704035086	-1.3155862476140348
O	-4.143121107231577	3.0703910304035085	-0.3297560966140347
O	0.5387842327684225	13.84044578040351	-2.152389037614035
O	-0.5862159522315774	10.34595261040351	-2.6142379266140345
O	0.2807622527684226	9.034491710403508	-6.137707576614035
O	2.7477707527684228	6.074754750403509	-6.241819296614034
O	3.5856652527684227	5.907888710403508	-2.5333325566140346
O	7.235347032768422	6.676887400403508	-2.8404495866140347
O	7.774236612768423	4.435818400403509	-5.849698636614034
O	5.989318712768422	1.6423920984035085	-3.9463353066140345
O	8.026716842768423	2.009389357403508	-0.9869340106140347
O	11.190753912768422	2.1755007424035084	-3.1718377366140347
O	10.213747412768422	-1.2568536995964914	-4.589781216614035
O	9.993204612768423	-2.5771766695964917	-1.0645880966140346
O	13.508958712768422	-1.1749627695964917	-0.3860776166140347
O	2.3286673727684226	-13.197445019596492	0.8910946033859655
O	-2.5948493972315774	-12.572542019596492	2.6033671433859653
O	-0.7194961132315775	-11.397964619596491	5.701196303385965
O	-5.783048437231578	-9.54883871959649	6.1794071933859644
O	-1.4931012200315774	-2.9209629195964912	5.434547603385965
O	-0.3825589272315775	0.8236230604035084	5.711628563385965
O	1.2183375027684227	6.080263420403508	4.826249763385965
O	4.954554502768422	5.765205650403509	5.6185059933859645
O	3.0049787327684223	10.26548613040351	7.951446573385965
O	10.673750012768423	1.9900602894035084	5.775365453385966
O	7.336427142768422	0.7300917894035084	7.094394203385965
O	8.564220552768422	-2.845285709596492	6.468329503385965
O	9.498739612768423	-1.7932914295964917	2.9069252133859655
O	5.985146962768423	-0.3426403995964915	2.260514483385965
O	4.551400722768422	-3.5319311395964914	3.8457995333859656
O	6.394601052768422	-5.793462579596492	1.4146705733859655
O	5.429019512768423	-3.8535840395964915	-1.6412792296140348
O	1.8489999227684224	-3.1009873495964917	-0.9969222016140347
O	0.9720631327684226	-6.5625057295964915	0.1471795933859652
O	2.601264802768422	-8.00531359959649	-2.909415286614035
O	0.3042846227684226	-6.009212749596491	-4.937832886614035
O	-2.8572591772315774	-7.285963589596491	-3.0815265166140344
O	-1.6362945612315773	-10.75758441959649	-3.363411566614035
O	-1.0928268072315774	-10.47869401959649	-7.139853466614035
O	-4.714057827231578	-9.28939241959649	-7.5800956066140355
O	-4.101496027231577	-5.644508709596492	-8.798013736614035
O	2.8101173127684227	11.123793010403508	-12.202749186614035
O	-0.17023446723157742	11.96890208040351	-9.952226146614036
O	1.0036740627684224	12.906181480403509	-6.384685366614034
O	-13.706872187231578	-1.0255772495964917	0.9857819933859653
O	-10.452076867231577	4.757560570403508	-5.950008876614035
O	-12.381102087231577	0.03417466040350847	-5.136624226614035
O	-13.299350887231578	0.09090970040350843	-8.815584736614035
O	-9.397282827231578	-6.429614849596492	-2.5298635466140347
O	-8.692948647231578	-5.029930479596491	0.9491581833859652
O	-8.713457567231577	-7.54101796959649	3.788269623385965
O	-8.499184017231578	-4.714496529596492	6.3421478133859654
O	-12.703284087231578	-1.2804313195964916	5.3136024933859645
O	-10.907188117231577	-0.1836626295964916	7.431962153385966
O	-8.421273317231577	2.2136053024035083	5.946393813385965
O	-5.599322537231577	3.9309998204035086	7.916966413385964
O	-2.9778602272315773	13.007550080403508	6.2712187533859645
O	-2.4505504872315775	9.27635743040351	6.950670103385965
O	-6.232321107231578	9.037549310403508	7.208487543385965
