102

O	1.7311998720923332	-0.09508350769333318	0.4807377170333328
O	4.009157512092333	0.28453627330666675	0.15771633403333274
O	3.0154988520923336	-2.862893901693333	1.2604981370333328
O	2.9927195820923336	-0.5960695316933332	0.5692359570333329
O	3.2498398720923336	-2.028698341693333	-0.8051572089666672
O	3.2573401120923333	-1.9512959216933332	0.5652563670333327
O	4.558397792092333	-0.7799511616933331	3.1347082470333327
O	3.2487152720923334	1.3357680673066668	0.4314057870333329
O	5.974523892092334	2.6401134783066667	-0.023513081966667237
O	1.8936044620923331	1.1613168143066668	0.06462126403333279
O	5.157168122092333	-0.23914872969333323	-0.4359400059666672
O	0.5980575350923333	0.46694982430666676	3.173828527033333
O	3.5376667120923333	2.6508329883066666	0.6976058370333328
O	1.1016678140923333	2.528995988306667	2.7458908570333325
O	4.511142442092334	2.654397588306667	1.7817809270333327
O	5.516763702092334	1.8815171183066668	0.9346135170333328
O	5.251110712092333	0.9651697713066667	1.9499783470333325
O	4.041024292092334	0.4247560543066668	2.5794810470333327
O	5.567536402092333	-1.443305981693333	0.22785152703333267
O	6.129572762092334	-0.08861148769333327	-1.4249348749666673
O	3.8253509920923334	2.281097528306667	-2.181743702966667
O	-0.20440157090766675	-0.40605903169333313	-0.9265841819666673
O	3.1231432120923333	-4.187278171693333	-0.6607690759666672
O	2.4877126420923332	2.4044093083066667	-1.8096676929666673
O	-0.6216030779076668	-1.2908509616933332	-1.8498327529666674
O	2.5145998720923335	-5.200776001693333	-1.2637165589666672
O	1.9886662720923334	0.35781191630666676	-2.3388275629666673
O	0.20683853709233327	-2.999358581693333	-0.8607255019666672
O	2.9464104620923335	-4.3524511916933335	-3.294022552966667
O	3.1667141420923333	0.13929947430666678	-2.9786385129666675
O	0.6791128510923332	-2.177750891693333	0.16183966203333278
O	3.4154345020923333	-3.1977743016933333	-2.7114471229666672
O	1.6857549420923332	1.3725160173066668	-1.4259103609666672
O	0.25469988109233327	-2.3640915016933333	-2.0333746229666674
O	2.1245824220923333	-5.113266691693333	-2.547999242966667
O	3.9966936420923336	1.2060694293066667	-2.9422233829666675
O	0.5919201080923333	-0.8268175816933333	0.08231808003333274
O	3.2930785520923336	-3.119511551693333	-1.447842846966667
O	2.8811650320923334	0.7583776108066668	3.1881877470333326
O	1.5792395020923333	1.3036495263066668	3.268310537033333
O	5.025820752092334	1.6502252513066669	-3.6625698629666674
O	0.7982104520923332	-2.437204331693333	-3.2168762529666672
O	8.988413882092333	-7.407324931693333	0.021215749033332787
O	11.167706382092332	-4.447869571693333	-1.0581300909666673
O	9.756459582092333	-2.288936681693333	-3.9630777429666675
O	6.7027371220923335	-4.252791481693333	-4.988856272966667
O	8.587596912092332	-1.4298529016933332	-9.183284222966668
O	5.387197892092334	0.01778369530666679	-7.811932222966667
O	3.1503672320923335	-2.273901711693333	-9.877243492966667
O	5.221025122092334	-1.380180121693333	-12.887101702966667
O	4.303112922092333	2.290468638306667	-12.207213802966667
O	0.6176171170923332	1.3515902293066668	-12.157449502966667
O	-11.320643717907668	10.692033718306666	-1.8416690129666673
O	-8.772829777907667	8.248933898306666	-0.4354812219666672
O	-10.448594617907668	5.3322918283066665	-2.206764012966667
O	-10.166911117907668	3.983828278306667	2.9915921070333327
O	-5.475142097907667	-1.407226181693333	-0.5755090789666673
O	-3.8487792079076666	-4.638434121693333	-1.2001049469666671
O	-4.837689887907667	-6.863492051693333	-3.883853072966667
O	-0.02139068890766671	-8.643322281693333	-2.3913811629666673
O	-0.42439630890766666	-9.019166971693332	-6.213151342966667
O	-2.2690335579076666	-6.387577141693333	-12.259893602966667
O	-4.231482617907667	-5.866751461693333	-9.032480332966667
O	-5.702756907907666	-2.723393291693333	-10.582870062966668
O	-2.1629872479076666	-1.5491584516933332	-11.500270702966667
O	-1.0629442779076665	-2.115481641693333	-8.048176232966666
O	-4.258616097907667	-0.25306065969333325	-6.763366632966667
O	-3.3677026079076664	2.803797178306667	-8.734963972966668
O	0.1458253060923333	3.076464958306667	-7.634984122966667
O	-0.3576204079076667	2.577195338306667	-3.9000698529666673
O	-3.1658905279076666	4.451270558306667	-3.3723378129666672
O	-1.3576289079076669	7.390024078306667	-5.110240812966667
O	1.3846579850923333	7.051021608306667	-2.5014465429666672
O	-1.1566780179076668	7.268179628306667	0.4396039570333329
O	-2.812233107907667	10.107322778306667	-1.1351439349666672
O	0.4050056675523333	12.134425818306667	-1.5934988129666672
O	1.2537652860923334	11.628004518306668	2.1397107270333326
O	4.3101280920923335	9.246041198306667	1.7592469470333327
O	17.451713482092334	-2.8068842116933332	-3.2146202229666674
O	15.931687882092332	-4.523417291693333	-0.12985042796666724
O	-1.7669063379076668	0.7774470499066668	11.933501097033332
O	-5.137918397907667	2.443054298306667	11.353212797033333
O	4.735296622092333	-2.868036431693333	10.389220797033333
O	7.513027642092333	-0.30966136169333314	9.607127897033333
O	4.411526822092333	1.1444722823066669	13.990027697033332
O	3.969432302092333	3.315152348306667	10.908467497033334
O	6.949906382092333	5.511639158306667	11.808113897033333
O	5.4360449820923336	5.945773968306667	15.266520197033332
O	-4.071616897907667	8.243054058306667	4.587790277033332
O	-1.5129544379076667	6.755316128306667	7.027371087033333
O	-3.5920699379076666	3.6433447483066668	6.520341157033332
O	-7.348315267907666	4.022722188306667	6.1978019870333325
O	-7.852120607907666	0.22545755130666678	6.264987527033333
O	-8.559260487907668	0.2282903613066668	9.966650497033333
O	-5.3372435879076665	-1.6330335916933332	10.816536097033334
O	-6.268367597907667	-3.894811771693333	9.094726427033333
O	-3.4529441679076665	-5.166266991693333	6.956633157033333
O	-3.7607847379076667	-7.881354851693333	4.327222837033332
O	5.1782956220923335	-11.890097981693334	4.192445577033332
O	2.9489485820923336	-14.510592581693333	2.6219911570333325
O	0.2712744960923333	-11.907374581693333	1.7381036070333327
O	-0.29631714690766675	-11.566948781693332	5.4762542370333325
