102

O	-0.8904828426333342	-1.6343556541000004	1.1367182830333338
O	-1.0132413896333343	-3.3919963241000004	2.6058841630333336
O	-3.574682797633334	-2.8288146841000006	0.43042978503333384
O	-1.5550018406333344	-2.7815751541000004	1.562544233033334
O	-1.7868340856333345	-4.0080211641000005	-0.05025467696666619
O	-2.5711201676333344	-3.3886556141000006	0.8545688830333339
O	-4.110885767633334	-1.0282136221000004	2.4438514530333335
O	-0.06404062763333429	-2.5101864241000005	2.8276417930333335
O	-0.37575858763333425	-0.7150990021000004	3.938500263033334
O	0.2618159823666657	-1.5774047741000004	1.8293003330333337
O	-1.2078241664333342	-4.6204515241	3.3149941530333336
O	-1.9754575276333344	1.6181058558999997	1.0512035030333338
O	0.7341880323666656	-2.6040933941000004	4.007803523033334
O	-0.03924049763333426	1.6324936258999996	2.0872583430333336
O	-0.5225043216333343	-2.6905242441000006	4.9896012330333335
O	-1.2249617634333343	-1.7445578141000004	4.108113183033334
O	-2.5697550676333343	-1.9206739241000004	3.697494033033334
O	-2.7932693876333343	-0.8538274071000004	2.567915273033334
O	-1.5637803486333344	-5.5265679441	2.2114556230333338
O	-0.02500828763333418	-5.1740396141	4.028955603033333
O	2.2489713023666655	-4.1249137141	1.7730040730333338
O	-2.047861985633334	-1.0509202921000003	-0.7974400849666662
O	-1.4629908006333343	-4.7042300841	-2.189152776966666
O	2.2700142223666657	-2.7338065941000003	1.6629819630333338
O	-1.8793156446333343	-1.0835552501000003	-2.186289476966666
O	-1.9395597106333344	-4.7406314141	-3.4628122469666662
O	1.1792894323666658	-2.7359432041000002	-0.2276638479666662
O	0.18059625236666577	-0.5013046981000003	-2.068212936966666
O	-3.7216400776333343	-3.5033475541000003	-2.8098144769666664
O	1.1054001423666655	-4.0969162641	-0.2620382953666662
O	0.0954986623666656	-0.36020898710000043	-0.7177685809666662
O	-3.4143124876333344	-3.7701116341000005	-1.5639178269666663
O	1.4103996023666658	-1.9701010141000004	0.9390993730333338
O	-0.6669179696333343	-1.4776059741000005	-2.6000172469666665
O	-2.818598217633334	-3.7693695441000004	-3.7775399669666663
O	1.2369068223666657	-4.6183276441	0.9941512130333338
O	-0.9215662926333343	-1.0402142251000004	-0.11217823596666618
O	-2.1029719236333344	-4.0289554041	-1.3356576769666662
O	-2.0445538436333344	0.23071233789999956	2.8483272530333337
O	-1.4194448526333343	1.3410198558999995	2.1685211730333336
O	1.3911808823666658	-5.8770675641	1.3611675730333337
O	-0.06625582763333426	-2.4971599641000006	-3.1652647269666665
O	-7.9164844376333345	-8.5192939041	-0.46262611896666617
O	-5.673733467633335	-10.4974021041	1.9391585730333336
O	-1.8816493346333343	-10.5349899041	1.0376717830333337
O	-1.8893463926333343	-8.9144648741	-2.4049529669666665
O	2.3077645223666656	-12.2670752041	-1.9534462469666662
O	3.363554052366666	-8.6320076441	-1.793382026966666
O	3.579131122366666	-8.2736157241	-5.594749246966666
O	5.542104102366666	-11.4838178041	-5.684656006966667
O	8.058682522366666	-9.8052820841	-3.317817596966666
O	8.353038602366667	-6.8761450641	-5.730285336966666
O	12.095332652366666	9.9489004959	0.47829826003333387
O	8.728745992366667	8.242543295900001	0.9114060630333337
O	8.133431432366667	8.2347061159	-2.8403709069666663
O	3.8401165923666656	10.6023724959	-0.6628956559666661
O	0.8545494423666655	4.0367120059	-4.040129336966666
O	-1.6114290466333343	1.8523484558999996	-5.639229886966667
O	-1.3316803716333343	0.9080454058999996	-9.144620906966665
O	-4.875308417633335	-2.5583131041000002	-7.096929576966667
O	-2.6751534576333342	-4.3324098641	-9.758772826966666
O	3.531372662366666	-5.6809613041	-12.346264896966666
O	2.4471939123666657	-2.2257592541	-11.142564696966666
O	6.118876742366666	-1.3903575341000005	-10.635045996966666
O	6.575255952366666	-4.6412929641	-8.641689126966666
O	3.7234132523666656	-3.7694709141000002	-6.540902736966666
O	5.156255762366666	-0.15421574410000038	-6.128530076966666
O	8.379839402366667	-1.5051683341000004	-4.779299356966666
O	6.936807032366666	-3.7883236541000005	-2.241041736966666
O	4.3917632323666655	-1.4022301641000003	-0.7239949159666662
O	6.183882702366665	1.4495958258999997	-0.5182634799666662
O	8.969046152366666	-0.5192558701000004	1.2970319130333339
O	6.375177322366666	-1.4575439541000004	3.911963973033334
O	5.3736511623666665	2.2633850758999996	4.494842583033334
O	8.877101152366667	3.2007288358999997	4.668834423033334
O	9.788808152366666	0.6021287948999996	7.321446223033334
O	6.838343812366666	1.7806683958999996	9.517151023033335
O	4.477645622366666	-1.3474344741000004	9.188944643033334
O	-4.742779787633334	-16.5663253041	4.968467483033334
O	-7.538466457633334	-13.9316539041	4.808749133033333
O	-6.364416437633334	8.1226021959	6.496146133033334
O	-3.8414006776333345	10.8350988959	5.5642440830333335
O	-9.882457767633333	1.2245212558999996	6.411146813033334
O	-8.179990467633335	-1.1621189741000004	8.973397093033334
O	-9.010240117633334	4.0338805159	10.926691103033335
O	-5.382907607633335	3.0453858658999997	10.365401703033335
O	-5.109869277633335	1.3534768258999996	13.763865603033334
O	-6.530818687633335	4.5326204759	15.316560503033335
O	4.3639668623666665	7.1020141259	6.065382523033334
O	1.0563282223666657	6.1202296259	7.737709463033334
O	-0.3501935556333343	7.1403748459	4.366780293033334
O	1.1326762723666657	10.0685436959	2.559693863033334
O	-1.5899259466333344	9.8749841659	-0.12012301696666619
O	-3.677554167633334	12.501242295900001	1.612311453033334
O	-6.457402247633334	10.0364356959	2.4813678130333336
O	-6.797928377633335	9.5110683459	-0.4388779909666662
O	-7.179414597633334	5.8609222859	-1.1430462189666661
O	-7.450901997633334	4.2645497359	-4.555099816966666
O	-12.768324247633334	-3.7839837841000006	-2.9638786169666664
O	-13.110328047633335	-3.1698108441000006	-6.680267286966666
O	-9.914922277633334	-1.0442809511000004	-6.784518936966666
O	-11.818828747633335	1.4849191558999997	-4.676390966966666
