119

O	-0.5989389204104921	-5.845328839114753	-4.053262279868852
O	0.547533580589508	-5.504230849114753	-4.250553639868852
O	-0.7534174564104921	-7.283106189114752	-4.174187749868852
O	-1.0448568114104921	-8.051421439114753	-5.437299009868852
O	0.48314839058950787	-7.953071019114754	-4.329202979868852
O	-0.886811823410492	-5.939738739114754	-0.3981345298688521
O	-2.565732847410492	-6.211778309114753	-2.1836423431688523
O	-0.37196132641049207	-9.920781929114753	-1.9574802208688522
O	2.384110042589508	-3.107273417114753	-6.417318369868852
O	0.5783027285895079	-3.3656754891147527	-6.577094739868852
O	0.714516662589508	-4.651402209114753	-7.193672209868852
O	0.17301622358950788	-5.187848869114752	-8.347294609868852
O	-1.167624231410492	-5.522491939114753	-8.111070389868853
O	-1.4865354874104921	-6.829114889114752	-7.870829539868852
O	-1.5769705274104922	-4.496041699114754	-7.036578259868852
O	-2.897537907410492	-5.254630539114753	-6.622059039868852
O	-2.153091147410492	-6.274185769114753	-5.960255879868852
O	-1.531538957410492	-5.490622509114753	-5.004401029868852
O	-1.986874847410492	-4.277761159114753	-4.8710547298688525
O	2.977811242589508	-4.490997059114752	-5.4259998798688525
O	2.921577992589508	-6.987818639114753	-1.0417598598688522
O	5.251821002589508	-5.221280599114753	2.752092380131148
O	-1.115364263410492	-7.228414849114753	0.4322025901311477
O	2.441636022589508	-5.631073619114753	-6.136636849868852
O	4.120217252589508	-4.460715669114753	2.3123542701311477
O	2.310080692589508	-8.390723749114754	-1.365538280868852
O	2.9319923225895077	-4.205921339114753	-4.102685439868852
O	-2.282764757410492	-5.2103089391147535	0.12035533013114774
O	2.808449612589508	-9.458974789114754	-0.7288768898688522
O	3.1940808825895077	-6.974922479114753	-5.973155379868852
O	0.9622084125895078	-7.860297349114752	-1.0082699198688523
O	3.286967312589508	-4.966621429114753	1.2882406901311478
O	1.612394412589508	-9.107563409114753	-6.932687839868852
O	-1.087516049410492	-5.662231829114753	-1.9076469638688522
O	0.07571245358950787	-8.403945999114754	-1.7430222248688523
O	2.9415891525895077	-7.319848949114753	-7.339544979868852
O	3.6698412025895077	-6.2417896891147535	0.8884295901311479
O	1.156183652589508	-6.513932419114752	-1.5522843978688523
O	1.199828102589508	-8.045986819114752	-8.704119929868853
O	-3.6027298874104923	-5.228710739114753	-1.5700765298688522
O	2.3991610525895077	-6.410095629114753	-2.227802043368852
O	1.454055932589508	-7.716290849114753	-7.335323639868852
O	3.7632867925895077	-7.018566669114753	2.083190530131148
O	1.190096252589508	-5.189309169114753	-1.1102102598688521
O	-2.6831283574104923	-7.501062319114753	-1.2333093318688522
O	0.45538618858950797	-5.191506279114753	0.001301720131147821
O	4.443524332589508	-6.251217729114753	-5.414752819868852
O	4.610312092589508	-6.456552659114752	3.0466879401311475
O	5.678052162589508	-7.284914059114753	3.4411279701311477
O	-2.967356787410492	-6.524546359114753	-3.6885154098688524
O	3.611100452589508	-8.277007919114753	1.4785747701311478
O	2.739085612589508	-7.4117636791147525	-4.830580159868852
O	-1.372141557410492	-10.298213879114753	-3.206991159868852
O	2.336701662589508	-8.003806889114752	0.8791296501311479
O	1.061242262589508	-10.414231959114753	-2.406884986868852
O	2.478548672589508	-6.724796329114753	0.24025349013114772
O	-1.179434664410492	-10.107743089114752	-0.6899632298688523
O	-2.0609690074104923	-7.4916016291147525	-3.6859378998688523
O	-2.901078407410492	5.346924320885247	-5.098312349868852
O	-6.607174577410492	5.313167360885247	-4.655718889868853
O	-9.365974827410492	5.689105610885248	-4.281833479868852
O	-8.501276467410491	7.248374550885247	-0.9075505998688522
O	-11.821541117410492	7.817105740885248	0.8926607201311478
O	2.733277772589508	9.971987540885248	-5.478695579868852
O	6.1933276925895075	10.723978240885247	-6.8907975898688525
O	8.699148572589507	8.088734040885248	-5.884167709868852
O	11.358431282589509	5.710584940885248	-7.148643009868852
O	10.970230482589509	3.2521445708852474	-4.447889449868852
O	9.494085362589509	0.07810997088524685	-5.987487939868853
O	6.025021282589508	-0.729985059114753	-4.5958000998688515
O	5.301000212589508	2.0726662108852474	-2.465920649868852
O	2.321640472589508	3.276219920885247	-4.441861449868853
O	0.612547337589508	0.01980118088524696	-4.516022599868853
O	1.138161582589508	-0.615513879114753	-0.8825398898688521
O	-0.3412150054104921	2.540639970885247	-0.15625868986885227
O	-3.169144077410492	1.6273141508852471	-2.541626709868852
O	-3.774271407410492	-1.564735142114753	-0.3954266898688521
O	-4.040929887410492	0.628492230885247	2.600518960131148
O	-6.519067037410492	2.7696723308852467	0.6408172601311479
O	-8.713527237410492	-0.16438910911475313	-0.20250083986885214
O	-8.786810287410493	-1.210162329114753	3.4355704701311476
O	-9.758105387410492	2.248474730885247	4.466829730131148
O	-12.464303017410492	2.398236850885247	1.7373931201311477
O	-8.444152657410491	-6.201997529114752	8.252349580131149
O	-8.732071977410492	-9.888093919114754	7.715356140131148
O	-9.761268827410492	-9.866006479114754	4.008555700131148
O	-7.806336087410492	-6.930998819114754	2.584689630131148
O	-4.822951627410492	-6.644398279114753	5.100928940131148
O	-4.670387127410492	-10.337820359114753	6.2087573401311476
O	-4.085293067410492	-9.678690329114753	9.881829280131146
O	-6.086707217410492	-8.969644009114752	12.900149380131147
O	-6.973506637410492	-5.843033669114753	14.765942980131147
O	-1.9308127874104921	-4.493716919114753	14.533538280131147
O	7.041757382589508	5.285418850885247	7.252723710131147
O	7.765364732589508	7.657250440885248	2.3834830001311476
O	4.254330512589508	8.873024540885247	1.7228490701311476
O	6.055410452589508	11.120193040885248	-2.485199917868852
O	-3.053374307410492	4.064118250885247	4.226822430131148
O	0.637418054589508	3.552529390885247	4.079760620131148
O	0.7517867605895079	2.854935790885247	7.752654560131147
O	-2.061954977410492	0.3081819008852471	7.568639660131148
O	-0.3492467554104921	-1.638739389114753	4.778940880131148
O	3.211860602589508	-1.555947328114753	6.064664170131148
O	2.1321320625895077	-2.271530725114753	9.666275680131147
O	-0.2034933943704921	-5.162648889114752	8.56623378013115
O	2.639528442589508	-6.536871599114752	7.079773130131147
O	5.214968472589508	-6.038012869114754	10.060010480131147
O	7.193877132589508	-10.570064509114752	6.4647532701311485
O	-10.099177857410492	-5.205730039114753	-13.141911419868851
O	-5.140108267410492	-2.683506661114753	-12.116427119868852
O	-4.928944177410492	-5.231035149114753	-15.00394311986885
O	10.297244782589507	2.3215945208852466	-13.964485519868852
O	7.330053582589508	-0.022624539114752817	-14.56724631986885
O	8.045231522589509	-2.678240154114753	-12.293818819868854
O	10.994854682589509	-1.3925004581147529	-10.42356502986885
O	10.384002982589507	2.1654139208852468	-9.244709599868852
O	6.630552852589508	2.8860238808852468	-9.467110459868852
O	3.0083526425895077	2.045100350885247	-9.948387359868853
O	17.478606782589505	-5.828881209114753	6.242386950131148
