46

O	-14.914499706120653	8.244377765487975	45.26841630797676
O	-13.91460618551118	7.023522846855693	46.7139951123014
O	-14.114216044602456	10.565542216503815	44.21175726086475
O	-12.97325958170417	9.705285341548956	44.30191497444586
O	-13.618339865135917	8.322422738956622	45.08927572490765
O	-13.089146841770901	8.767055570042654	42.89796178482492
O	-11.800217256059844	10.023323907716088	45.049558506995076
O	-14.952374443226295	3.7174157844072386	43.91130975951619
O	-15.383276311151885	3.970241191589267	45.25596470006231
O	-12.14311061253955	9.3099888198484	48.87108533548182
O	-13.008451280897471	8.374881690373483	50.61193569118526
O	-15.040865098249068	7.131209008774377	46.124577871588464
O	-15.778386142428475	3.173498116904395	43.164859260033815
O	-11.602372448585506	7.570254292823668	46.14435204304404
O	-15.322682940839057	10.750892946513789	47.05726887504232
O	-13.509610527963208	7.411884878986	48.005098391401226
O	-13.980021061146129	12.19926835017298	46.27851065379336
O	-14.435448499804178	7.3040547119678685	48.92500509061887
O	-14.27490509211099	8.257577820355461	49.99628872124138
O	-14.320425040784338	9.474524888664568	49.18903641891491
O	-13.451243494861059	9.229524757913115	48.123796512939876
O	-13.010980363281611	7.3389532871895815	45.79505425269562
O	-10.76710499952402	7.467030600522927	44.94819003956844
O	-11.306642495983198	6.705018101157817	47.28675551919671
O	-17.471411651600675	8.25358365251991	48.55325881374592
O	-16.488423360630534	8.583697822972892	43.27433894728819
O	-12.985917532793655	6.672901512799511	43.537649974371625
O	-16.641033982380478	8.305367110984605	47.51670913584043
O	-17.127764752826778	7.381846024055039	42.948459684986226
O	-13.571361371064587	5.601956062410353	44.119154392929126
O	-16.63160372751775	6.0684973078457745	47.291899177083216
O	-17.989141992871335	7.478539883235408	44.9045573061708
O	-14.89752096759901	5.839159738576521	42.50664435334154
O	-17.859964687369253	6.161471572244287	47.89001944983658
O	-17.257130412099844	8.641175761492299	45.19397311663028
O	-14.317736461748405	7.013017452368703	42.02819013687519
O	-16.141755433353104	7.242876723645419	47.01419673415254
O	-17.201904481034127	6.6025576934063945	44.11263000265362
O	-14.42782790042875	4.948889587902336	43.35125315288672
O	-17.966613908997804	7.065144252181266	48.87703423229356
O	-16.022349062667143	8.722754932468884	44.54508758573969
O	-13.829438424330437	7.589710350506949	43.13701385171174
O	-13.164515544150762	10.16514473750564	47.20432360193827
O	-14.180058693058555	11.203479291494252	47.221915540418706
O	-19.118475031094786	7.015212423105696	49.60988607687298
O	-17.431923817641202	5.347166892570797	44.33058008833072
