41

O	-15.066072892138813	8.231387320460803	43.93879760773855
O	-14.75794698670221	7.873292324185844	45.82286746714624
O	-12.704655122837167	5.945313773404939	44.95762621415919
O	-14.094044849266252	7.654317319980249	44.68887661287649
O	-14.945685885992269	5.566468683879846	44.33893916056897
O	-13.848387779014178	6.325242328462636	44.7391701305463
O	-14.346354194872223	11.675640774374463	45.43654443552088
O	-13.740687615479189	5.1542661966202665	41.180171064336065
O	-12.272488675464274	7.765392321262233	47.318542948178404
O	-15.813046080408196	9.09022417526129	44.74018796452961
O	-15.050351823746118	6.846629428792664	46.84700115719207
O	-14.192969696661562	10.503775072974332	41.82150873610463
O	-15.151016273890827	9.758945982777371	47.16748413842411
O	-14.99355833806686	11.894833144152663	43.375558595400854
O	-14.22807947880625	8.81322991251105	47.863850199689516
O	-13.060210278014184	8.754225024369461	46.922719785108036
O	-12.779953149384973	9.863584264733229	46.08867701323181
O	-13.362818250335167	10.756765420164788	45.152602098041996
O	-15.065893987907295	9.124277513168204	45.845768756706235
O	-14.368029852973885	5.476366161691519	46.93343912214527
O	-15.127820264122473	6.738481521838958	48.342553786783384
O	-17.80533404266996	7.1509897358403745	47.13392017485654
O	-15.912177593042191	6.096839132211662	43.59789532481345
O	-15.179503304695222	3.787970935497272	42.9702170110299
O	-17.458687295189847	8.44039648435862	46.72117348406064
O	-16.78887009443801	5.250248805654894	43.01061622716527
O	-14.358537093340143	4.761323384542937	43.42530122228486
O	-17.859102390198125	7.950681633792028	44.653092823590704
O	-16.65670217371057	6.8430611735357925	41.305499501037424
O	-14.702605004756393	4.334886725580852	40.78644401206844
O	-18.265551591930056	6.736642101001172	45.13037271633413
O	-16.70575308314409	7.784470823460245	42.29825062882243
O	-13.565714196478567	5.314448208951206	42.50378209887564
O	-17.16773430684843	8.849748494254879	45.375230024939675
O	-17.229650174106236	5.630744050514957	41.774780434929774
O	-14.898602671507536	3.3218059556169335	41.67640543891646
O	-17.58109997982413	6.256438795055102	46.16530250381162
O	-15.699571579790595	7.434963103000092	43.083612674572095
O	-12.951915391693287	10.572540807417784	43.751543329166125
O	-13.965457398507775	11.153653753582258	42.85538988564678
O	-17.31585346116433	4.979736431920973	46.113749962478316
