99

O	-1.040949090982758	-0.9970054337068963	-0.854780986655172
O	-1.812538857982758	-2.2365894437068965	-2.135785884655172
O	-4.449382917982758	-1.2828651237068964	-1.230681182955172
O	-2.2539218249827577	-1.5635767837068963	-1.074236830655172
O	-2.981533857982758	0.24900630529310364	-2.254060494655172
O	-3.331548217982758	-0.9087650437068964	-1.563379048655172
O	0.5041994920172421	-4.371522503706896	0.06677900534482806
O	-3.6123565979827577	2.2570958462931037	0.423510545344828
O	-3.9273315279827576	-4.195464993706896	-1.794246553655172
O	-0.05572044798275799	-1.7809822637068964	-1.448498968655172
O	-2.457587087982758	-2.2398196537068964	-3.4670595046551718
O	0.19893023201724214	-1.1832787637068964	2.117922995344828
O	-0.48326876098275784	-4.149076563706896	-2.441761704655172
O	1.4567852920172422	-2.793047823706896	1.2137659753448282
O	-1.899283236982758	-4.440658243706896	-2.8172614146551718
O	-2.629386717982758	-4.194318743706896	-1.529087411655172
O	-1.951193581982758	-4.369611983706896	-0.298568952655172
O	-0.7771203139827578	-4.009666223706896	0.412579105344828
O	-0.7542421809827579	-2.8727645437068965	-1.767534403655172
O	-3.884565847982758	-1.7558417537068964	-3.750172954655172
O	-2.7189981579827576	-3.2027899937068964	-4.588989704655172
O	-0.30793461598275784	-1.5522687937068962	-5.101425684655172
O	-1.8053770569827579	0.8346513992931036	-2.058561128655172
O	-3.7815925979827583	2.3587155862931035	-2.241494224655172
O	0.3740648620172422	-2.1575617637068962	-4.042373894655172
O	-1.643199571982758	2.090839126293104	-2.533842644655172
O	-3.7967734679827583	1.1426619682931036	-1.650321416655172
O	0.6736979520172421	-0.2508185397068964	-3.0668428646551718
O	-0.39091256098275784	2.3028896762931037	-0.5720183776551719
O	-3.4019784279827583	3.393508526293104	-0.221466988655172
O	0.07494857201724203	0.2875376042931036	-4.170727314655172
O	0.11364224201724205	1.0637097532931037	-0.861967496655172
O	-3.848148997982758	1.1589314292931037	-0.31585201965517196
O	0.6586759720172422	-1.5613486137068964	-2.766712144655172
O	-0.8667834099827578	2.9105640162931037	-1.764698403655172
O	-4.085667397982758	3.4396233562931036	-1.399270829655172
O	-0.9116952909827578	-0.42590693370689636	-4.707085094655172
O	-0.9771268449827579	0.3243909362931036	-0.984363954655172
O	-0.9684881909827578	-3.070156723706896	1.529022465344828
O	0.3011379920172421	-2.386607393706896	1.8271169453448282
O	-1.951674112982758	0.2623114712931036	-5.091509054655172
O	-11.108915067982759	0.33940658929310363	-2.667623744655172
O	-9.98237314798276	-1.7900464737068964	-5.676207344655173
O	-6.809145187982757	-0.4770056737068964	-7.473941714655172
O	-6.261958827982758	2.8753741962931034	-5.921881744655172
O	-4.685222917982758	3.103260646293104	-11.049840664655171
O	-1.815603155982758	2.876284166293104	-8.582342844655171
O	-1.672117308982758	6.605094526293104	-8.040627684655172
O	-1.8336107179827579	7.172020346293104	-11.787272624655172
O	1.335966772017242	5.013051066293104	-12.072455424655171
O	3.0823828120172427	7.207144646293104	-9.516934044655171
O	12.114483742017242	-0.35186629370689637	2.1247714653448284
O	11.462203642017242	3.3154439762931034	2.9077332353448275
O	9.267298542017242	0.4635096012931036	6.936413465344828
O	3.0180118920172427	4.0169717562931035	3.5362184653448274
O	-0.41865472298275785	5.204144796293104	2.926878755344828
O	-5.705675147982758	6.898514476293104	1.3641386353448282
O	-4.926164857982758	9.817767996293103	-1.025395393655172
O	-0.6194490089827579	13.142557876293102	-5.162341244655172
O	0.47500082201724214	11.611710976293104	-1.837705587655172
O	4.0192309120172425	11.468738076293103	-3.201695944655172
O	2.6833343020172418	9.726264416293104	-6.352278044655172
O	0.9226457520172422	7.1967226862931035	-4.299049414655172
O	4.192024032017242	6.838034006293104	-2.120348281655172
O	6.168874192017243	5.920243316293104	-5.198875064655172
O	3.797037422017242	3.3768764962931037	-6.581739034655172
O	3.038612752017242	1.4204121612931035	-3.3546712346551724
O	6.175391162017243	1.2645808982931035	-2.051672996655172
O	7.536175572017242	-0.08640442370689638	-5.368521924655172
O	5.0391120220172425	-2.925820873706896	-5.070747324655172
O	6.146095922017242	-3.829266823706896	-1.485837693655172
O	9.696780042017242	-3.709991253706896	-2.591185154655172
O	9.167190842017241	-6.043667973706897	-5.561561804655172
O	7.4847526220172425	-8.638076333706897	-3.236225634655172
O	3.7889701220172425	-8.384480413706896	-4.569308654655172
O	-12.325695457982759	-4.173712613706896	-11.61540422465517
O	-13.252119557982759	-4.510672323706896	-7.924612584655172
O	-0.3579176999827579	-7.440097143706896	9.329876875344828
O	3.1929082920172425	-6.5396445337068965	10.401802475344828
O	-6.853117397982758	-7.2364732637068965	5.515441355344827
O	-6.632923047982757	-9.429851423706896	2.373945415344828
O	-4.503353887982758	-11.845264023706896	6.904115835344828
O	-2.015642891982758	-10.850613223706898	4.225469285344828
O	-2.533568007982758	-14.057687123706897	2.2599585053448283
O	-1.958177773982758	-15.983914923706896	5.500018465344827
O	8.049390052017241	-5.842562613706896	2.901952345344828
O	4.880615012017242	-7.805314083706896	3.691254335344828
O	3.9547602820172427	-4.633732973706896	5.572593205344828
O	6.824089452017243	-3.0007483337068965	7.529017325344827
O	4.344153722017242	-0.5857450837068965	9.175281175344828
O	4.130707982017243	-2.7701439337068967	12.281511175344829
O	0.4857562620172422	-3.682956313706896	11.572364475344829
O	-0.1961140279827578	-0.7760177337068963	11.743554675344829
O	-2.580961307982758	0.1267495162931036	9.00091487534483
O	-3.848132487982758	3.6168160262931037	8.238193365344829
O	-12.675259757982758	1.9319895462931036	4.249560335344828
O	-12.839009457982758	5.561910836293104	5.399109725344828
O	-9.011123917982758	5.902210246293103	5.435524425344828
O	-9.051950197982759	3.387972336293104	8.300691405344828
