96

O	0.5569326831194032	1.4508792799850747	1.3240280990746267
O	-0.041081471880596854	1.0494040749850748	0.32482032207462674
O	-0.28138301788059683	1.8139650299850747	2.4072466790746265
O	1.870141183119403	0.9367273639850746	1.7537311890746268
O	1.564821623119403	-0.2087322100149253	2.5160173890746265
O	2.275503573119403	-1.2478873700149253	3.0671596390746267
O	0.8951911731194031	0.3941677519850747	3.6337568790746264
O	0.3406823131194032	-0.6995925880149252	4.431516739074627
O	1.3032539631194031	-1.1724731900149252	5.299299329074627
O	0.19929099311940313	-1.8415290700149252	3.4319778590746264
O	-0.5099353578805967	-1.3342661200149253	2.2630600690746268
O	-0.034749798880596816	-1.9955693200149252	1.0978192790746268
O	-0.9003574596805968	-2.3184518400149257	0.08721106417462678
O	-1.1509489968805968	-1.5853767300149253	-1.1497682709253731
O	-1.2786762338805968	-3.776017630014925	-0.18826842092537324
O	-1.6540582998805968	-4.034690330014925	1.2644552490746268
O	-0.8022188173805969	-3.8849790200149252	2.1332633190746266
O	0.3375209431194033	-3.1666133700149253	1.984531439074627
O	1.4597001431194032	-4.0000136500149255	1.768435799074627
O	1.2746443231194031	-3.6929095000149252	0.42999521607462676
O	0.9399690831194032	-5.466254800014926	1.6450752390746268
O	0.6428808131194033	-5.424846320014925	3.1660222590746265
O	-0.6097411328805968	-4.893683330014926	3.2115143290746264
O	1.8194877631194033	-2.5110092300149254	0.14897833607462677
O	2.700964613119403	-2.0413404100149255	0.7769634330746268
O	2.014688373119403	-2.4642337800149257	-1.3074206409253732
O	1.642192883119403	-1.0926260500149252	-1.6630917809253731
O	2.5901024431194033	-0.37045415001492527	-0.6683921359253732
O	1.3668498731194032	-3.3930380200149255	-2.2225042609253736
O	1.1075882931194032	2.3367766999850748	10.156692949074626
O	-0.02480796988059686	-1.1924466800149252	11.059640149074626
O	-3.1431052368805967	-2.3567718500149253	9.207266069074628
O	-4.056649256880597	0.9344320499850747	7.462978929074627
O	-7.411864176880597	1.4715063599850748	9.152772189074627
O	-8.453634816880598	-2.2022768200149256	8.857308279074626
O	-7.412394046880597	-2.2279588600149256	5.151638169074627
O	-9.449527956880598	0.9531046689850746	4.542503519074627
O	-12.417112796880597	-0.4826717020149253	6.484853379074627
O	-12.370485096880596	-3.4562253700149252	4.092509439074627
O	-2.8548679668805965	-4.292729940014925	-11.735353450925373
O	-4.388692026880596	-0.8109618900149251	-11.896473650925373
O	-3.334575686880597	-0.21215330201492527	-15.454672250925373
O	0.9479816631194031	-0.1213955480149253	-11.706788950925374
O	-1.0786612768805968	3.0486467899850744	-11.257503050925372
O	-1.4265693518805969	3.0483982099850744	-4.786523260925373
O	-1.5713902598805967	5.1081949799850745	-1.712286290925373
O	-3.9093940168805967	8.051855569985076	-1.5551079509253731
O	-1.282296181880597	9.785837959985075	0.6144237980746268
O	-1.8610543268805968	7.327333459985074	3.4736189290746267
O	-5.5279322868805965	8.155751219985074	3.6959259790746266
O	-5.138912176880597	11.907621429985076	3.1206239390746267
O	-11.973486396880597	7.150303959985075	1.7559637990746269
O	-9.076365956880597	7.277227749985075	-0.7088730899253732
O	-11.164876796880597	5.178588779985074	-3.1148246009253735
O	-11.834723396880596	2.6948591899850745	-0.2668357639253732
O	-8.140494136880598	2.4814565999850746	0.48316998007462675
O	-7.484348896880597	2.067051869985075	-3.2754500309253736
O	-9.858472656880597	-0.9097994600149253	-3.5430981709253735
O	-8.385722996880597	-2.7724583400149254	-0.5809585639253732
O	-4.729938746880597	-2.2804984500149255	-1.161428610925373
O	-4.853320646880597	-3.0235147200149255	-4.825489380925373
O	-6.801373506880597	-6.247970240014926	-4.136319750925373
O	-3.948171676880597	-7.286520710014925	-1.813089540925373
O	-1.2943489088805968	-6.641778680014926	-4.462675550925373
O	-3.318816536880597	-8.453298810014925	-7.092962350925373
O	-3.800795066880597	-11.525657070014924	-4.878894990925373
O	-0.0055604878805968205	-11.716845570014925	-4.351832980925373
O	0.21997174311940326	-11.006073270014925	-0.6262473209253732
O	-2.0393782168805967	-4.8804995500149255	16.652383849074628
O	1.059382283119403	-2.9401313200149253	15.526287149074626
O	13.677883403119402	0.6748808439850746	-2.5837728409253735
O	10.851367603119403	-1.5014689600149251	-3.846201240925373
O	9.828245403119404	-1.4984381100149253	-7.522711160925373
O	9.968953903119402	-0.9732259600149253	3.6963103890746267
O	8.939029263119403	-4.3534687000149255	5.188436099074627
O	12.528017703119403	-5.661192950014925	5.069571709074627
O	13.010175003119404	-4.711600830014925	1.4123197590746268
O	9.562641703119404	-6.133571520014925	0.5155479760746268
O	10.448566703119404	-9.452140490014925	2.1621539890746266
O	13.790442203119403	-9.542754950014924	0.29806706907462677
O	2.4409505931194033	-6.672996570014925	-8.150716840925373
O	5.244878583119403	-6.604288880014925	-5.547678810925373
O	5.022563133119403	-2.8666370900149256	-6.199109220925373
O	4.315060813119403	-1.5546170900149252	-9.552279020925374
O	4.838814363119403	2.0878635299850745	-8.459636230925373
O	8.469209013119404	2.0530162299850745	-9.561964890925372
O	9.795511803119403	2.3046363699850745	-5.982410120925373
O	8.295421233119404	4.874485579985074	-5.677843680925373
O	6.522077693119403	4.980547579985075	-2.3395683809253733
O	4.218525543119403	7.786956329985075	-1.208632140925373
O	5.4326457031194035	7.727151239985075	8.402635989074627
O	3.9964942131194032	11.173816829985075	7.7050254190746275
O	2.533765983119403	10.083444219985076	4.337525649074627
O	6.144861183119403	9.650537399985076	3.2040287990746266
O	6.783290243119403	1.5864836399850748	13.010465849074627
O	5.829804973119403	4.604272909985075	15.083564949074628
