100

O	-1.1487666157419354	1.9453968060866131	3.4315011868580645
O	1.5419591212580648	1.715362698686613	1.1864263668580648
O	1.0051681612580645	3.580013139686613	1.6783083268580647
O	0.07206792425806463	2.612673537686613	3.4288882268580645
O	0.4614500542580646	4.511469529686613	3.8399929268580646
O	0.39127405325806464	3.896247719686613	2.8720036968580644
O	0.26995532125806465	3.119054099686613	0.8157116518580648
O	1.3808230912580646	0.345269609686613	4.505818416858065
O	1.2935115912580648	-0.7914156303133868	0.8914278108580649
O	0.2891107552580646	1.7166628466866132	0.8575938158580648
O	-1.6437213187419353	0.00012122968661310018	4.791508956858065
O	2.7413798112580645	2.7767807656866133	2.8440467968580645
O	-1.0664940547419355	-2.3045141703133867	1.5840988768580648
O	2.3458775512580647	1.149886404686613	0.2645602788580648
O	-2.1582690087419354	-0.4432750803133867	1.7403638268580648
O	3.1803440812580646	0.4686526696866131	1.2046023968580648
O	2.318746211258065	-0.4955665003133871	1.7164446668580648
O	2.273211831258065	0.3858535496866131	2.7727704468580647
O	0.9727744812580646	0.16816971968661298	3.1788299668580646
O	4.173869141258065	2.653623500686613	2.5013617968580646
O	2.598798121258065	3.256121019686613	4.163330226858065
O	-1.5264484807419354	1.3348056676866131	4.603265136858065
O	1.1187621312580647	2.019527198186613	-2.112340233141935
O	-1.8754055387419353	3.983180819686613	3.062041916858065
O	0.4951216412580647	0.9798294596866131	-1.3718656031419352
O	2.138749611258065	2.911661073686613	1.5480462568580649
O	-2.3367291687419356	5.188232719686613	2.6893095368580644
O	-1.1785330397419354	1.969665694286613	-0.9220081421419352
O	-2.6649481887419353	4.1747269496866135	0.8388736548580649
O	-0.7127997257419354	3.185049879686613	-1.4978605531419351
O	-2.6372015087419354	2.902866833686613	1.447321586858065
O	-0.3402071427419354	1.175501429686613	-0.2752552681419352
O	-3.291700678741935	4.984383499686613	1.7461236768580648
O	0.6395393212580646	3.2437401096866134	-1.641527123141935
O	-1.8653385487419354	2.756436065686613	2.4790893668580645
O	0.2623402832580646	-0.6950058303133868	2.613127146858065
O	-1.0083248047419353	-1.1624200903133868	2.0806242468580645
O	1.1750458412580644	4.416168179686613	-1.7062588831419352
O	7.844101051258065	6.995720389686613	1.6652047868580648
O	5.278421201258064	9.093655359686613	3.625301936858065
O	1.9745522612580646	9.375124189686613	1.8236924868580648
O	2.701163971258065	7.694690239686613	-1.4445939231419351
O	2.0233670912580646	10.567433429686613	-3.7049681731419355
O	-1.1342629487419353	11.678205499686612	-1.903042143141935
O	-2.4523604787419355	8.144389219686612	-2.178395373141935
O	-1.7908451287419354	7.952186789686613	-5.865683483141935
O	-3.3947443887419353	11.351344949686613	-6.304457283141935
O	-6.561773608741936	9.907585039686612	-4.701000893141935
O	-6.535167938741936	7.051749199686613	-7.174470273141935
O	-9.908025028741935	-8.069557920313388	-1.490072723141935
O	-8.409726898741935	-8.123671720313387	-4.9812075331419345
O	-4.974660028741936	-10.820017620313388	-1.827883803141935
O	-0.7556963577419353	-4.548290230313387	-4.182954373141935
O	2.157941871258065	-2.2350452303133865	-4.804732593141935
O	2.968168401258065	-1.521811200313387	-8.473078933141936
O	6.115843191258064	1.8092734756866131	-5.309858333141935
O	4.830281801258065	3.664021939686613	-8.374012923141937
O	10.251411751258065	3.0809340296866132	-8.520850883141936
O	-0.3353385357419354	5.528610239686613	-12.483277623141936
O	0.07603632925806458	1.980665796116613	-11.186301223141935
O	-3.6873710787419354	1.478403837686613	-11.638586523141935
O	-4.330797958741935	4.716880249686613	-9.698742593141937
O	-2.1644053187419354	3.514981809686613	-6.977286753141935
O	-3.9403128787419353	0.06242211968661304	-7.0321783331419345
O	-7.276123058741936	1.735395617686613	-6.474660603141935
O	-6.230609778741936	3.7784487396866133	-3.5323333631419356
O	-4.236122478741936	1.118045419686613	-1.4878006831419353
O	-6.676291588741936	-1.5080769703133867	-2.0518996231419355
O	-9.448402318741936	0.768678849686613	-0.8107207011419352
O	-7.456877628741935	1.258944950686613	2.3313592668580645
O	-7.051140678741936	-2.413061540313387	3.0081842568580646
O	-10.617722348741935	-3.060181560313387	2.2534703468580646
O	-11.937398148741936	-0.4092951903133868	4.633476846858065
O	-9.837783608741935	-1.966091120313387	7.475942066858065
O	-7.300813758741936	0.9521579296866132	8.000355586858065
O	4.267839891258064	15.376505679686613	6.373913466858065
O	6.746567971258064	12.487629379686613	6.810479846858065
O	8.357155001258064	11.494932049686613	3.433526896858065
O	3.2487084312580645	-9.135029920313388	7.7371535768580655
O	0.8455412712580647	-11.618251120313388	6.130414896858065
O	7.075898731258064	-2.526854250313387	8.688414736858064
O	4.949784171258064	-0.04241569031338677	10.761040576858065
O	4.901724221258064	-5.251371900313386	12.756439576858064
O	1.6313421812580646	-3.9566802703133863	11.280827176858065
O	0.6643775012580647	-2.2809529403133864	14.534488376858064
O	1.4035564412580648	-5.5540395303133865	16.357771476858066
O	-6.883032448741936	-7.304748900313387	4.630347356858065
O	-4.054934468741935	-6.584114460313386	7.103468836858065
O	-1.9054148187419355	-7.642248150313386	4.147191196858065
O	-3.1189338087419354	-10.470592520313387	1.9878878468580647
O	0.18390387125806462	-10.509812420313388	0.07564731665806482
O	1.5519526112580646	-13.326757720313388	2.2344142768580646
O	4.198333301258065	-11.058774720313387	3.819591146858065
O	5.296356781258064	-10.572607420313387	1.0893842468580648
O	6.099538981258064	-6.936120070313387	0.6081313898580648
O	7.375855931258064	-5.389501420313387	-2.6423222731419354
O	12.825688551258065	2.042947813686613	0.5045578268580648
O	13.988223251258065	1.469597125686613	-3.0566109131419354
O	10.736687951258064	-0.2810742903133867	-3.9998890431419354
O	11.836763551258064	-3.0145133403133864	-1.5682057331419352
