38

O	-16.38159632866046	7.002847401255156	45.57356537496706
O	-14.898243063417883	7.724216242139194	46.867788649739815
O	-15.192274942353416	6.98680953624938	45.02686581418659
O	-14.527568392887009	7.382972510603425	43.11873764969362
O	-15.101614536163897	5.376557341830904	43.58933250110078
O	-14.754046989338608	6.3959953799067675	43.81621110233984
O	-12.419998108153244	4.461252051531652	44.7478930092409
O	-17.026863573759574	5.528848159894388	48.081803966418796
O	-14.397523965875564	4.44111464028123	46.19027574162633
O	-15.999037690171587	7.166970238271902	46.856049079000556
O	-13.67101367969306	8.78784412367698	45.286127161563904
O	-11.954313465535563	8.87512743773509	42.98901064482718
O	-14.09210280878569	7.106925288918639	47.994377882199565
O	-12.324100522201764	7.173816257154895	41.810995057611564
O	-14.113426830128663	5.6311726600775405	48.06794754640005
O	-13.574582984715839	5.372078817019504	46.691859006693086
O	-12.267663859199637	5.801487257051001	46.29843421159264
O	-12.168513408394471	5.889621848231963	44.77749035785219
O	-14.236823583371987	7.559639290511508	45.81265868149911
O	-12.54225485591089	9.054108365671873	46.18716790793407
O	-17.28829471949217	5.890473995318386	45.37884668523328
O	-18.219915551128793	9.513911101939698	45.50476629929726
O	-18.361600656682967	9.430015798752308	46.83427893379194
O	-14.933074948337667	9.421792274638301	42.34918360349301
O	-16.290135973731235	10.65525994054429	45.709897849806204
O	-18.400921326570455	6.234143807966336	46.311756458894585
O	-15.543470019653757	10.262306733451076	43.21018556067537
O	-17.44416812222977	10.000679986740273	47.60895980673235
O	-17.226455331318764	10.198163385017168	44.92015594740736
O	-17.31208282297834	8.897894951297436	42.98208934443794
O	-16.369965107644855	10.486274225813876	46.99886836264462
O	-18.37200646746363	6.244616050057913	47.76378381788871
O	-16.6026313730254	7.9828689548189775	42.29562560713866
O	-16.60231438758515	6.98819380130091	48.23191030856542
O	-16.706873875599932	9.82018641889239	43.67476984796288
O	-15.275955545181438	8.075890875737215	42.265960260931045
O	-11.468879114673388	6.6859238098135	44.013432458427246
O	-11.655291214900167	7.6382587504071475	42.97839423832806
