101

O	-1.764620971779365	-0.2918069573412698	-2.107228352301587
O	-2.683588471779365	1.4691465956587302	-1.4928556493015872
O	-2.961128241779365	0.08427139265873018	-1.2557170143015872
O	-4.9481961317793655	1.11154970665873	-1.4262297983015872
O	-3.875571141779365	0.8290695486587302	-1.8850483753015874
O	-0.7936656687793651	1.39138396265873	-0.3729895383015873
O	-2.340984688779365	1.8322851776587301	2.962410297698413
O	-1.5647696455793652	2.45144131165873	-0.34305306730158724
O	-1.581063835179365	0.7077801786587301	-1.0142985642015874
O	-4.485800041779365	3.46396449265873	-0.037850002301587304
O	-2.467850926779365	2.77196410265873	-1.3078216823015874
O	-2.763599031779365	3.02056961265873	-2.5757992923015873
O	-0.06760455177936509	-0.82794029734127	1.6570571876984126
O	-1.475322834679365	3.05764368265873	0.8850740476984127
O	-1.326600389779365	-2.30646401734127	0.7105010076984126
O	-2.735043911779365	3.5300546626587304	1.3757653076984127
O	-3.580561241779365	2.64027332265873	0.5070348476984128
O	-3.625228001779365	1.5795516636587301	1.3133489376984129
O	-2.273779238779365	1.09666944265873	1.7505268176984126
O	-4.151072461779365	2.81680774265873	-3.0601277823015876
O	-2.620982231779365	3.58059181265873	-3.7534672423015873
O	-3.7007394517793655	-1.0618143373412698	-0.7314305473015873
O	1.234080088220635	2.40455958265873	-2.7298949823015874
O	-1.8559844387793651	-1.6552500573412698	-2.4211005823015874
O	-1.009270183779365	0.8588685226587301	-4.264620222301588
O	0.9820100182206348	1.5017381646587302	-1.7775394373015874
O	-1.388145448779365	1.4356279446587301	-5.420652362301587
O	0.6716582282206349	3.24197398265873	-0.47936949530158723
O	-3.513347201779365	0.8313072906587301	-5.000521602301587
O	0.40864866822063495	4.11389099265873	-1.5392512403015872
O	-3.048869311779365	0.15595658265873014	-3.913240182301587
O	0.48855450822063484	1.7897899526587302	-0.6067032683015873
O	-2.624878731779365	1.28339838265873	-5.883162782301587
O	0.34679158822063494	3.4134030626587304	-2.6996947123015875
O	-1.8465411067793651	0.4696635826587301	-3.368970192301587
O	-2.226273627779365	-0.15016613734126993	1.8094864076984127
O	-1.2751575617793651	-1.22472197734127	1.561899777698413
O	0.01212835822063485	3.82662298265873	-3.898021512301587
O	-2.598277231779365	13.15760180265873	3.6748355976984133
O	-3.0617194117793654	9.70663002265873	2.4756323376984124
O	-5.167217651779365	9.600572382658731	-0.7189020073015873
O	-3.298425031779365	8.22042209265873	-3.714253112301587
O	0.17218456822063488	7.81678053265873	-2.3165315923015872
O	2.007358838220635	10.09274643265873	-4.591611652301587
O	0.253482998220635	8.93534011265873	-7.784177902301587
O	1.106301118220635	5.34680209265873	-6.961349232301587
O	4.753815848220635	6.12702308265873	-6.281650782301587
O	4.805457608220635	8.02948423265873	-9.551612222301587
O	3.6551519082206347	4.81768643265873	-11.312551872301587
O	6.482381598220636	2.89940984265873	-9.697369412301587
O	3.3227360082206348	-12.086639697341269	-3.6401413923015875
O	6.658291978220635	-10.69309959734127	-2.4957473623015876
O	3.7430510782206348	-11.45537159734127	1.9571062276984128
O	4.745181248220635	-3.60964785734127	1.7729964576984127
O	4.991149468220635	-0.021939097341269864	2.871271967698413
O	8.367839638220635	1.5454977701587302	2.9731995976984127
O	4.619495258220635	5.4784327726587305	3.7650636476984127
O	7.433409968220635	6.75669942265873	1.5454108876984127
O	7.334390188220635	9.37563811265873	6.289957107698413
O	11.517838168220635	5.99094180265873	-3.9002484923015874
O	10.708910668220636	3.16308736265873	-1.4972504743015873
O	11.447455668220636	0.6916577036587301	-4.310416812301587
O	9.131973968220635	2.65158914265873	-6.616649302301587
O	6.458989678220635	2.50139925165873	-4.043380142301587
O	7.056578628220635	-1.23723321734127	-3.511399932301587
O	6.544823168220635	-1.89840756734127	-7.208618072301587
O	3.3163407982206348	-0.14106424734126977	-7.493794542301587
O	1.6066968282206349	-1.4396469773412697	-4.218026022301587
O	2.6117700582206353	-4.84963016734127	-4.753942732301588
O	1.370184778220635	-4.90107456734127	-8.326741612301587
O	-1.943284178779365	-3.93679808734127	-7.005961902301587
O	-2.0964881977793652	-6.782766917341269	-4.427130972301588
O	-1.046126971779365	-9.17060769734127	-6.996368222301587
O	-3.743630381779365	-8.14682231734127	-9.484913442301586
O	-6.457223191779365	-8.624247797341269	-6.768148042301587
O	-7.530248411779365	-4.86652651734127	-6.2744565423015874
O	-8.792361091779366	13.705941302658731	-5.008058342301587
O	-8.893698331779365	12.728375602658732	-1.2925853353015873
O	-5.488247451779365	13.38419240265873	0.4360538276984127
O	-6.402129341779365	-6.89994796734127	8.082648287698413
O	-4.327638501779365	-10.027093297341269	7.4918994776984125
O	-8.530703161779366	0.3780151726587302	7.430573327698413
O	-10.807458981779364	0.8718913676587301	4.363654507698413
O	-12.020081231779365	-3.6451176473412703	7.366985607698412
O	-10.538877541779366	-4.22118138734127	3.8968993876984133
O	-13.967415031779364	-3.94541592734127	2.2841426276984125
O	-15.336671331779366	-6.42496685734127	4.845604877698413
O	-3.0211979717793653	-10.829140297341269	-1.3513561973015873
O	-5.735326031779365	-8.99400519734127	0.6540207276984127
O	-2.803771661779365	-8.09477101734127	2.914978767698413
O	-0.176910511779365	-10.73410379734127	3.4372364876984127
O	1.5386736682206348	-8.61395919734127	6.111562987698413
O	-0.2759420217793651	-10.429608497341269	8.895413947698414
O	-2.313299970779365	-7.34821460734127	9.856370527698413
O	0.26371386822063503	-5.92617781734127	10.396497227698413
O	0.15077845822063485	-2.4647942873412703	8.909451957698414
O	3.0039812482206356	0.011688232658730202	8.945545617698412
O	-1.509604907679365	8.63433640265873	9.330389327698413
O	2.016091318220635	9.35664663265873	10.486361127698412
O	3.3848415882206355	6.21851448265873	8.793247687698413
O	1.302653858220635	4.26497772265873	11.300333527698413
