41

O	-15.828089783071256	8.53853427578396	45.16310142109103
O	-13.94989948352902	7.576339735708842	44.72664413686646
O	-15.062199785532504	12.166007054890489	43.87107699663314
O	-14.728623178850285	9.892248195846463	47.31223298593045
O	-14.758466254675486	8.843889286846156	46.01017076919277
O	-15.166515827747794	9.462834583016653	48.570512122970094
O	-15.002315365131526	11.302264239484433	46.48402199290745
O	-12.03958975116922	10.300243791147466	43.62838929494185
O	-11.898245689698415	9.136971801716973	45.33450191710515
O	-15.128040194402942	7.917511593119435	44.2009928994594
O	-13.27346245125525	10.02953171251631	47.819873319661674
O	-13.418582159193768	7.1033457617283755	47.22754076949581
O	-12.564088249879857	11.646882553211901	42.192652443847685
O	-13.232582890037996	6.4704413811292	44.32421923921553
O	-14.495776869575472	11.50746220361566	41.17814585778925
O	-11.97060065888619	6.780493562038432	44.98022947283929
O	-11.672763551452135	8.10936288274321	44.55996689915963
O	-12.078644713637724	8.168640958901886	43.17577817992582
O	-12.988601893437444	9.353031584576227	43.325400383207956
O	-13.906759609231072	7.743454814212079	46.06216013991558
O	-14.265294074635987	7.035064764497362	48.43919000540697
O	-12.091629448798846	7.3691552372666	47.77072416194403
O	-16.885775276368186	5.53610344550844	42.595739580404974
O	-17.292799196689963	8.335390491006194	46.99711458375623
O	-13.899649082856087	11.471410577223207	45.6929899357451
O	-16.762004230929314	6.90172005001371	42.90852717210968
O	-17.85396067880995	7.786545057493951	48.07947185871204
O	-14.115640894049875	12.533259267363203	44.74415686619086
O	-14.679086724594605	6.390399974893896	42.31098319085452
O	-17.046712711246457	5.923399285396768	47.14265778351044
O	-15.759870035305036	11.066473871048839	44.10637200217685
O	-14.80797232835126	5.000149577073272	42.55111693749133
O	-17.06114376769062	6.460108295786711	45.894619941792186
O	-16.104435391356024	11.033720772503804	45.54521946402536
O	-15.512664654704587	7.362317983051574	42.9040600060522
O	-17.572877809820433	6.507894634433956	48.24006102452842
O	-15.938881429719117	4.759615915329254	43.20624432761186
O	-17.03952704971853	7.811609725786211	45.7174873486307
O	-13.314706266344945	9.454054777493097	41.93208589585252
O	-13.381424718168049	10.903002217820138	41.68997668705498
O	-16.33801301988581	3.943122523541872	44.133160987334044
