77

O	-1.248500413944828	2.456661701724138	0.4066456108051728
O	-0.42766442784482783	1.3524314067241379	0.008202131805172791
O	-2.493287313844828	2.487902781724138	-0.1675025466948272
O	-1.396780341944828	3.475513221724138	1.234764090805173
O	-1.0088431628448278	-0.03798471727586217	-0.012024495194827206
O	-0.03529801384482778	1.4799472857241378	-1.1855920001948272
O	-3.3988587138448283	2.6264831317241377	0.8448177008051728
O	-2.6557155438448277	3.304819351724138	1.8032830108051727
O	-0.2842456038448278	-1.1536523582758622	-0.2723525270948272
O	-2.4060810438448277	0.007694936724137902	-0.1006815091948272
O	-4.5475402538448275	1.985463141724138	1.316379340805173
O	-3.434814103844828	3.695274521724138	2.828412420805173
O	-0.9049081218448278	-2.400019938275862	-0.3325356061948272
O	0.9881299161551722	-1.153998268275862	0.1939846108051728
O	-2.904607893844828	-1.2531440982758622	-0.5188886041948272
O	-5.4257565638448275	2.942661631724138	1.850140200805173
O	-4.805510533844828	3.983940831724138	2.512299000805173
O	-2.178531458844828	-2.351814298275862	-0.8912046231948272
O	-2.871017133844828	-3.573541318275862	-0.8349201281948272
O	-8.171741163844828	-7.839426888275862	2.7884663208051728
O	-4.897417773844828	-7.203480268275863	0.9303544508051728
O	-2.705175773844828	-8.100978958275862	3.933092130805173
O	-4.728427353844828	-5.652507588275863	6.024814330805173
O	-4.234812513844828	-2.9136290682758625	3.402906980805173
O	-0.5351194788448279	-3.577610118275862	3.535821610805173
O	-0.5044730958448279	-3.533595528275862	7.345973500805173
O	-2.1745382928448276	-0.12255197427586217	7.361122270805173
O	0.45703967615517205	1.1267953257241379	4.808055150805173
O	3.2493582861551724	-0.2221228932758621	6.974947700805173
O	1.682059776155172	1.502732028724138	10.057784540805171
O	1.542339206155172	4.801144691724137	7.970831930805173
O	5.222531146155172	4.885464011724138	7.023228330805173
O	6.115943946155173	3.8080448217241383	10.553263140805171
O	4.1119497261551725	6.710573501724138	12.060102240805172
O	5.528978896155173	9.15808056172414	9.509872870805172
O	9.139450636155173	8.123565561724138	10.288900440805172
O	4.999236946155173	-8.47638833827586	3.9891090808051732
O	3.5225250861551727	-13.626870038275861	-0.1691710803948272
O	1.3759139061551722	-9.539846338275861	-2.0481090091948273
O	4.437073126155172	-7.404695628275863	-1.390919719194827
O	4.700551016155172	-4.726441788275863	1.2631822308051728
O	7.358506956155173	-2.1233087582758623	2.194816980805173
O	4.772380016155172	0.32970014772413786	3.426254390805173
O	4.231636086155173	3.9175659417241375	2.4740203608051727
O	3.5351612161551724	3.3851904717241377	-1.2051672711948271
O	1.126555646155172	5.286741121724138	-3.4673117091948273
O	1.619867626155172	8.453253481724138	-5.471180229194827
O	0.27864696615517204	8.96842962172414	-8.984274789194828
O	-2.451005653844828	11.134444161724138	-7.383674909194827
O	-3.589032873844828	8.250921731724137	-5.198000379194827
O	-3.8316742138448276	5.928279221724138	-8.211410979194827
O	-5.739432463844827	8.151467201724138	-10.624993359194828
O	-7.612255273844828	9.89260417172414	-4.492474819194827
O	-8.381299403844828	6.224778611724138	-3.973935169194827
O	-13.263198263844828	-4.435019128275862	4.361038330805173
O	-16.38079666384483	-0.3700837682758622	4.033258820805173
O	-12.702709763844828	0.47228880272413787	3.278435860805173
O	-12.924045463844827	-1.114404648275862	-0.29384005769482724
O	-11.365122763844827	-4.493309168275863	0.4492299398051728
O	-8.928710543844828	-4.134155508275862	-2.4159849191948273
O	-11.619729863844828	-5.009288608275862	-4.970157919194827
O	-8.982438753844828	-9.255768138275862	-5.4364749091948275
O	-0.1964955638448278	-2.909891008275862	-8.702830099194829
O	3.3706887361551727	-1.714855288275862	-8.639678349194828
O	3.9544910261551722	1.0039465267241379	-6.099170749194827
O	6.5887419561551726	3.538630371724138	-5.052849029194827
O	6.0881208561551725	6.457272141724138	-2.5851274191948272
O	7.472494946155173	4.079618511724138	-9.478607889194828
O	4.080424936155173	3.356967291724138	-11.144878059194829
O	11.424888936155172	-1.4691386982758623	-5.444457129194827
O	12.708005836155172	1.133526543724138	-2.985652809194827
O	9.333255936155172	1.957609321724138	-1.3791134391948272
O	6.125291186155172	0.08902476772413792	-1.0427279631948272
O	3.5385545161551724	-1.806909538275862	-3.043445929194827
O	3.166982076155173	-5.140451108275863	-4.815271569194827
O	-0.2565950638448278	-6.361616378275862	-5.7588461191948275
O	-0.6833987948448279	-8.85031550827586	11.870853840805172
