21

O	6.266668416574473	14.525641553162485	23.903330950286666
O	1.0831124074381433	11.669053481047065	27.60966059469583
O	0.2232968501038839	10.432249561344753	26.623149562373726
O	-1.198075585843679	10.32415215884076	26.19279300855468
O	-1.2499254218888243	10.730628961505602	24.9545160070472
O	0.008831265364457108	11.164875532265478	24.714307227059855
O	-2.5754852459806727	10.694307698039397	24.65517242956136
O	2.004129396955582	8.7757927009498	25.63963217536698
O	1.061192696903634	9.834645919173497	25.601815199540688
O	1.3205062355636221	10.584245632645132	24.544147061382745
O	2.6853520111060303	10.492289254317088	24.612629522310012
O	3.228663452011552	9.379467574102266	25.18751970288443
O	3.2584661251928377	10.665647181541683	23.272332274422872
O	4.161055153355661	11.501437795284595	24.075191192466473
O	4.478698714398687	12.600360796334742	23.45939529837327
O	4.629964936039704	13.714164826582172	24.20950775081505
O	4.364661868181546	13.300396208991645	25.538275615404515
O	5.453366872562264	12.32361832336315	25.869965103920084
O	4.931298921127608	11.164610572649018	25.17317368688416
O	4.7300133040044745	14.5774371035749	26.309668427816938
O	5.614736607313953	12.321700443925378	22.47543311301249
