27

O	3.2337398154555914	8.90096280160954	24.574516112639458
O	2.7178122697051723	10.19793700826887	24.472256640995987
O	3.584544176656391	11.208058518096854	24.041365492977608
O	3.29903660595367	12.533954397937835	24.692505551559886
O	4.980431902713988	10.943005408251603	24.241042005870025
O	5.163443302334655	9.8695128316313	25.129807017537775
O	4.538549766102454	8.668499147667008	24.976526445707016
O	4.712402271307057	7.743208436847214	25.96243089505572
O	5.519504913631305	6.635983565878671	25.96799139893053
O	5.316485029184772	5.252092558812648	26.5003411868512
O	4.638794017333044	4.276491052349217	25.518086391752185
O	4.0158241992192005	5.482404676546064	24.677728467071933
O	3.219459886438338	5.898818567108304	25.652704630928085
O	2.893167273325408	5.455483395528799	26.941516203472375
O	1.668429304568587	6.1459855031247255	26.989137525046097
O	3.7213031946552024	5.535383620594902	28.118269617134107
O	3.20527395171084	6.306438595937832	29.078465778026874
O	2.7502044532546384	7.490473728928815	28.438869377439346
O	1.9117436832076544	7.451375292884258	27.323948082841216
O	0.2801649137809431	8.324410622159697	27.777638463269124
O	0.009351677898293054	9.746936146285773	26.77873272552541
O	-0.9315891230178998	10.349828319046138	26.046559056931738
O	1.243906767689873	10.034162111217984	26.367316696076866
O	1.4323245696110973	10.417160792984031	25.07032792252676
O	0.6930000133782281	11.445847200969343	24.628998030779666
O	-0.6395413728662366	11.185046967468365	24.976210716553318
O	-1.7367702012967179	11.771692269607861	24.342838212114255
