30

O	2.4412684469629102	13.845075059918644	24.13610483902123
O	0.9664986615846889	10.204185520888768	25.618321273017983
O	0.4946156246763238	9.9081047367699	26.823737761339736
O	7.5770318837584405	12.607229184443975	23.038271065993843
O	0.07297624581990392	10.93042202721108	24.823042861950224
O	-1.710248138458324	10.399131599648257	26.186095177736263
O	7.643582890541754	13.803718812328517	25.30103703752464
O	-1.2468862850480154	11.13617114596766	25.14731145943519
O	0.7734926563834823	11.412652170036319	23.80389519006041
O	5.313812776878448	14.974729712910193	25.435936590078665
O	-0.8196370986551287	9.68317748971496	26.935838926839583
O	2.2041639824762664	10.274427816035757	25.096999360471724
O	1.9977199237950851	10.906655769130632	23.916258947260303
O	-2.1683350114455013	11.849302531211913	24.349743576061073
O	3.0756845618944393	11.36709776807227	23.040943944661787
O	3.418222117304576	9.637666785940773	25.621386916446053
O	2.997080198639051	8.746471886956137	26.789144433900333
O	3.975665245263269	7.576464302263869	26.77984750086693
O	5.116266367315993	7.828547846695377	25.881317257248305
O	5.728237480168396	8.180320143224966	24.887120770623362
O	4.137160570342713	11.90933994949186	23.96763653472663
O	3.9873233700311492	13.13113136210146	24.63230895008168
O	5.37797454406447	11.68750473888229	23.561784596440834
O	5.159747923343285	13.73247365670054	24.992326387826296
O	6.606473620183518	12.216103613306535	24.004870239762994
O	6.450633067990285	13.131248836920841	25.009385420707424
O	8.281105911691375	13.859872070897218	23.082821155625496
O	7.961953783680518	15.079763132259618	25.62901757771723
O	5.658169118604833	15.963652840643125	24.44360584302068
O	-1.319269549746065	9.470906595780022	28.191479005978557
