22

O	-0.317688985589337	10.573375479262227	25.40153811501639
O	1.2104525378803737	9.155500858198447	26.885771064006107
O	-2.657835687776492	10.578534158419247	25.61629701322696
O	0.6948825722228131	11.231631797190934	24.70116906686135
O	-0.842974581253636	13.006392671614167	21.978386245049265
O	0.5653885390518474	11.72184615544463	23.389396380703115
O	-0.7886186849008475	8.724012307742406	26.94684659207404
O	-0.6870160246433401	12.271422309038032	23.131287975321886
O	-1.754112571333007	11.734398229904196	23.780631577216955
O	-1.5585321327155301	10.98656747721979	24.91233242951859
O	-0.08205068296266171	9.705381639219606	26.552402438913187
O	1.7341676776882364	8.072406784987667	26.0949448988894
O	2.1668016900076856	6.959120431449065	26.97164904303192
O	1.906624922855293	7.426193034454242	28.36688487478237
O	1.8141251597611294	8.90130594160351	28.169117550221397
O	2.737205944675477	8.763082157527261	25.28834321455153
O	2.8427882751507845	8.435659822773406	23.978788651971577
O	3.945180764154027	9.050640714893014	23.373309850166976
O	4.568782795571616	10.155288519760237	23.885392384912667
O	4.667552583011712	10.17938959510905	25.266801155171144
O	3.7635016031699573	9.402228905781563	25.98462174457322
O	4.313355384835651	8.47831809536854	27.04425046409976
