30

O	3.8374589286424268	7.787984165144355	26.84799261250725
O	3.0604204619499606	10.415684733191945	21.974368418470434
O	2.196652039110406	6.018117559781905	25.413995014391844
O	2.873958656938796	7.347740011864971	24.51788534668161
O	0.18171634598123856	9.501208974600925	25.669800011878404
O	0.362083673084464	10.7721336131391	25.067743652947463
O	0.5272391883099229	5.927156061581572	25.109766820869524
O	1.6897398128935763	11.147531339494833	24.931128043758285
O	2.7872874653018522	7.9378001694267075	23.2886581665109
O	2.2200879087432552	6.2642533492658785	26.95197112720159
O	2.8085618854714465	4.722954365048336	25.4119467077781
O	4.066460237932325	7.699596898682385	25.16929956330639
O	-0.8011331417603347	9.470894013650932	26.672221394655566
O	0.641602700470912	8.369683964410154	25.051428859540337
O	-0.7496895013560547	11.343503294948817	24.532848831433963
O	0.009098425659298998	7.198890278627941	25.535017074119093
O	2.1008752831874826	12.19542725341974	24.136016419083568
O	-0.407086251947687	12.409810441938	23.777185670982195
O	0.9550441745000411	12.765033262205959	23.49793661922036
O	-0.2637187240153729	8.474181587517919	27.43970269076087
O	5.0864499676848425	8.38992727751838	24.595373657613838
O	3.6261739820445023	9.005303216006272	22.903001908154355
O	-0.019576986848959005	7.201301588819502	26.95703336665307
O	4.769812670080944	9.285737294618414	23.58652418414453
O	-1.9434332330563335	10.152777362256968	26.244449276977438
O	-1.7529916295093164	10.633455772535966	23.85561983207549
O	2.7796165624807596	10.707964878057368	25.676286036869968
O	3.3863167652691923	12.666002645035034	24.028117338307702
O	4.0396837781415895	11.295075787353678	25.762090176813803
O	4.400949992345409	12.173162132546718	24.790231761578514
