115

O	3.474623780316456	-2.171928703810126	-0.18939962763291146
O	1.735025430316456	-2.9763779438101263	-2.2227658106329113
O	3.345631700316456	-3.9419627738101264	-2.0706110806329114
O	0.5729785803164561	-0.8164437438101262	-1.2083571246329115
O	-1.8348896696835442	2.1026278031898737	-1.6288574506329114
O	0.285759631316456	-0.5965846438101263	1.3976410993670887
O	1.840653330316456	-0.5834212738101263	-1.8090220106329113
O	1.579564230316456	2.4030655261898737	-1.0704046286329114
O	1.0097083303164562	4.138367666189874	-0.21460626163291147
O	2.054030730316456	-1.7372654838101262	-2.7133642806329115
O	-0.366760537683544	0.00929493618987376	-1.6992991606329113
O	1.075569370316456	-1.0497170538101261	-3.4221437606329115
O	-0.18733777268354396	-1.052289913810126	-2.6963536806329116
O	-0.29697292768354394	-2.497453243810126	-2.2741025906329115
O	-0.457674614683544	-1.981401533810126	-1.0748303706329114
O	-1.167002425683544	4.119465376189874	1.5027512293670886
O	2.311565220316456	-3.8523909738101256	-1.3171740426329115
O	1.5276972703164562	1.8712333671898738	0.20696648536708856
O	2.540147100316456	-3.227304723810126	0.004127520367088522
O	1.6090252603164563	-2.9122286738101257	0.9308333693670885
O	1.2697383903164559	-1.5455913338101264	1.3956108993670886
O	2.414643160316456	-0.8335388638101262	1.3590375493670885
O	3.521202150316456	-1.0708961938101262	0.6076501093670885
O	0.41477250031645607	2.505345396189874	0.9338330493670886
O	0.720208330316456	2.3943779261898737	2.2413669693670886
O	-0.959795080683544	-0.14608971381012625	1.2223891593670886
O	0.38103652531645604	-3.669199373810126	0.8172895493670886
O	-0.779081241683544	1.2816216311898738	-1.9075486106329114
O	0.564653320316456	3.5406354461898735	2.9477244093670882
O	-1.6629903296835438	3.4869707961898735	-1.8513387806329114
O	-0.356676220683544	3.896698616189874	-2.1377972806329115
O	-0.04543574168354392	2.963680226189874	-3.1475237106329117
O	-0.43655157568354397	1.6604145891898736	-3.225021810632912
O	0.8669153503164561	3.7856411761898734	-1.3128624366329114
O	-0.440898476683544	4.365488586189874	2.6206369993670884
O	-0.903034707683544	2.880736756189874	0.9941843093670886
O	-9.408657289683545	7.644866876189874	0.9155820793670886
O	-6.766164079683544	10.342443156189873	1.6430019593670886
O	-3.116840149683544	9.419424306189873	1.1356908993670887
O	-1.2931095866835438	11.753386926189872	-1.2140506976329115
O	0.21105189531645607	14.536655526189874	0.9807117993670886
O	3.8142073603164564	13.248769126189874	0.4531439903670886
O	2.9400431603164563	9.735936506189873	1.6709240993670884
O	1.1119357803164562	11.036396276189873	4.722798539367088
O	4.240165370316456	13.153517726189873	5.422193709367089
O	6.555788500316456	10.140983306189874	5.051352839367088
O	4.351008000316456	8.105120966189874	7.395754099367088
O	11.238326280316455	-4.654875753810126	3.2335628993670884
O	7.954770490316457	-6.619935033810125	3.1996933393670886
O	9.711667080316456	-9.955054973810126	2.3568582593670886
O	11.468546980316455	-8.204105673810126	-0.5479901636329114
O	8.077618590316455	-6.788697013810126	-1.7314604806329115
O	6.7283543103164565	-10.391633273810127	-1.5842752306329113
O	9.124329020316456	-9.020429073810126	-6.335868260632911
O	5.442931410316456	-10.097581473810127	-6.482624080632911
O	6.109918700316456	-10.982639073810127	-11.358925020632912
O	2.556766260316456	-10.595084473810127	12.449260879367088
O	1.3651688403164561	-11.531708473810127	8.997774289367088
O	0.788147880316456	-11.593113373810127	-8.297896320632912
O	-1.624869549683544	-9.819214173810128	-6.0016914506329115
O	-3.021428669683544	-6.292581023810126	-6.340032450632911
O	-6.060796189683544	-4.954501623810126	-8.212804480632911
O	-8.455467369683545	-2.3425475738101262	-6.851170680632912
O	-6.7572737196835435	0.17727999618987367	-9.234473210632911
O	-3.3605681996835437	-0.4986757738101262	-7.605762670632911
O	-4.945909879683544	0.020037046189873786	-4.235466940632912
O	-6.596738359683544	3.3454659061898737	-4.7011813106329114
O	-4.517834799683544	4.923944736189874	-7.455544350632912
O	-1.4736539646835438	3.296191156189874	-8.992123380632911
O	0.865286960316456	2.5499613661898737	-6.3061126806329115
O	0.274307394316456	6.1700746661898735	-4.712040600632911
O	1.1304026903164561	7.691856786189874	-8.033274600632911
O	4.492712570316456	5.7488679761898736	-8.179002650632912
O	5.248403960316456	6.310503126189874	-4.5034714806329115
O	5.070765240316456	10.121218696189873	-4.776957310632912
O	8.546281420316456	10.365580066189873	-6.420177980632912
O	10.196937780316455	7.714418146189874	-4.236368700632911
O	8.924057560316456	9.478994696189874	-1.0962119746329115
O	10.303489680316455	12.842196926189873	-2.1197538406329115
O	13.721708280316456	11.358258746189874	-3.0916618306329116
O	13.395809180316455	4.4334253961898735	-3.0436725706329115
O	10.703277180316455	1.7566244401898738	-3.7949934206329115
O	8.782640190316455	2.854202056189874	-0.5801656886329114
O	9.864532980316456	0.13123931618987372	1.8419044993670888
O	6.466008520316456	-0.8404100538101262	2.7726080693670885
O	5.988324050316456	2.1697157811898737	5.105103749367088
O	5.6505628003164565	-1.4039502638101264	8.621300899367089
O	-1.870600479683544	-2.474004353810126	8.984692959367088
O	-4.406461329683544	-4.587059253810126	7.061936169367089
O	-3.775590359683544	-6.014891903810126	3.644571519367088
O	-5.686040069683544	-8.651878373810128	1.9764158193670884
O	-4.863413779683544	-9.105044773810127	-1.6665016406329114
O	-6.177530369683544	-10.973686873810127	-4.692238170632912
O	-5.052876179683544	-10.520924773810126	-8.338972700632912
O	-10.339688929683545	-9.958642873810128	-3.204046890632912
O	-9.840099769683544	-6.630192043810125	-1.3607251856329114
O	-9.074425709683545	-5.506261413810126	2.1546353293670886
O	-6.981825099683544	-2.3416804538101266	2.4653584593670885
O	-6.513984509683544	-0.8562331538101262	5.961134489367089
O	-4.823031169683544	2.056682585189874	7.673948569367088
O	-2.047652789683544	6.242479776189874	9.328990899367088
O	-3.382765109683544	9.702594656189873	10.403832879367089
O	-3.768267179683544	10.547514686189873	6.7350459493670884
O	-6.396232049683544	8.089429126189874	5.4460024393670885
O	-6.811195179683544	4.444413356189874	4.350408929367088
O	-10.020280979683545	2.318572579189874	3.625636649367088
O	-10.682513919683545	-0.28316989381012614	0.9241052593670886
O	-13.497647719683545	-2.843488633810126	0.8945455493670886
O	-14.181910019683544	-6.023707913810126	-1.0396892836329115
O	-13.086854719683545	-8.807182573810127	1.3108800393670885
O	-1.107835974683544	-10.670386573810127	-0.6616207716329114
O	-1.227770296683544	-10.926511073810127	3.1529035793670883
O	0.06454847831645605	-8.023781853810126	5.153539119367088
O	-1.252389197683544	-8.137312353810128	8.677451869367088
O	0.7873918703164561	-6.056465223810126	11.145743779367088
