92

O	0.03272100479999995	-2.2354421451818185	1.7070751595072726
O	1.2324737427999999	-2.0893246751818184	2.2868181695072725
O	0.7099309527999998	-1.0976616351818185	3.0558075995072724
O	0.6074335727999999	0.006938760818181566	2.0581698295072726
O	0.24972890279999993	-0.9504467851818186	1.2105067695072727
O	0.7868645127999999	-0.8313006351818184	-0.10637832549272737
O	0.21213108279999993	1.2806380628181815	2.5390299895072728
O	0.46604622279999985	-0.8296867051818184	4.464993029507273
O	0.9111189228	1.9471082048181816	3.5080033295072726
O	0.7693149028	3.2501708848181816	3.8726721795072727
O	-0.30547427020000006	4.007152334818182	3.5275712795072725
O	-1.1881998262	3.2607687848181817	2.832438259507273
O	-0.9535040352	1.9888716948181815	2.3122636395072727
O	0.1546919108	0.4139549938181815	-0.5910846404927274
O	0.6489161227999999	0.49221804881818154	-1.8354594404927274
O	1.6350271428000003	-0.3933347851818185	-2.3911532704927274
O	2.3347140528	-1.4230110251818187	-1.7279218904927274
O	1.7359772628	-1.7421507251818187	-0.5800619724927274
O	1.5119731128000002	-3.0646608451818182	-0.14445230749272736
O	2.9112351928	-0.027257157181818426	-2.931729630492727
O	1.1448073827999998	1.8100916438181816	-1.5538131904927275
O	-0.0688247542	5.334591344818181	3.7130671095072727
O	1.1636974327999998	5.7307826548181815	4.243948759507273
O	-0.7079840903000001	-0.8409147151818184	5.228309439507273
O	-1.2794173072000001	0.4971536768181815	5.685812669507273
O	-1.5900176982	-1.5925627051818183	4.706841939507273
O	-0.9430157062000001	1.1597241128181817	6.949728809507273
O	-2.3058561272	0.6619383598181815	6.716683609507273
O	2.4730361928	1.4641052798181815	0.6202512665072726
O	2.7860964328	0.6270051658181816	-0.23227307149272736
O	2.6067741728000002	1.6830654598181816	-1.3358509804927274
O	1.7105939328000002	2.5378387748181814	0.38898752850727264
O	0.6928132727999999	2.4938087248181815	-0.5179913294927274
O	-0.48030499820000006	3.1143883748181813	-0.6610314034927274
O	-0.5781237572	4.394697084818182	-0.11114726949272737
O	0.4707422227999999	4.728998314818181	0.6926933515072726
O	1.5439886028000003	3.8388125948181817	0.9481830565072726
O	9.880025802799999	3.9998576048181818	-3.6622968304927275
O	7.381960822800001	1.2832352318181814	-4.508245150492727
O	9.5081882028	-1.5678666651818185	-3.2977499704927276
O	10.0662648028	0.3166769218181815	-0.04873777149272736
O	6.2626839628	0.6898470568181816	0.28616256350727265
O	5.8456261728	-2.8465189051818185	-0.2000255334927274
O	8.7219708628	-3.7157014251818183	2.252775979507273
O	6.9090222728	-1.6190832251818184	4.933087209507273
O	3.7573341127999997	-3.462819835181819	4.092824009507273
O	5.5169200828000005	-6.833469945181818	4.3659240595072735
O	7.2074711228	-5.870724135181819	7.709082279507273
O	3.6827706028	-4.977159295181819	9.049184309507272
O	2.0047447228	-8.307932025181819	8.325213589507273
O	1.1839279127999998	-8.690741775181818	13.248521869507272
O	3.5191685428	-4.509520115181818	-11.884833730492728
O	4.9700504728	-4.519876095181818	-8.383457480492728
O	3.3381937128	-7.185522585181818	-6.264385500492727
O	3.6380098428	-7.646592305181818	-2.598204870492727
O	2.1096609128	-7.301317685181818	2.5991284995072728
O	-0.6664709792000001	-6.290279665181819	4.857003829507273
O	-2.8889813472	-4.831873845181818	2.1617900395072724
O	-5.1418980172	-1.8261410751818183	2.2260731695072726
O	-8.739458517200001	-1.4837606551818183	3.4409230895072724
O	-11.321697997200001	0.6453986238181815	1.6510503595072725
O	-10.818132397200001	3.2486753648181814	4.401169839507273
O	-7.1259136972	3.4884707348181814	3.582513159507273
O	-7.7772424972	4.021274474818181	-0.07961521249272736
O	-10.524324227200001	6.674596114818181	0.13181939120727265
O	-9.5665297672	8.45078757481818	3.2695982295072725
O	-6.6704258372	7.515013494818181	5.3917867995072735
O	-3.8483593471999997	7.633553154818182	2.8040762895072726
O	-4.8628899372	10.988292504818181	1.7020705295072727
O	-1.7138489452	11.440929204818183	6.0979676395072735
O	-0.31314266720000006	12.460137004818183	2.7165836195072726
O	10.2982866028	9.047639064818181	0.17489081690727265
O	8.3360719128	12.785804404818181	3.1632436095072727
O	6.3472034428	9.452063634818183	3.2317721695072725
O	4.7094294128000005	10.245571224818182	-0.2203511804927274
O	6.9742720128	8.085940214818182	-2.4589031804927273
O	3.9300669628	6.471024194818181	-3.9499839404927273
O	3.2184637628	9.465589484818182	-6.175252340492727
O	4.8056673728	6.444396064818182	-9.842507950492728
O	-3.7461504072	-0.5800471351818184	-7.320697400492727
O	-5.2984568272	-3.9189179051818184	-6.470254220492727
O	-5.2074102072	-4.565675775181818	-2.7508439904927275
O	-6.6347429672	-7.020723345181818	-0.22238125949272736
O	-6.5302171272	-6.776425185181818	3.6000395095072726
O	-10.476979427200002	-6.861742215181819	-2.6113228904927275
O	-10.455982607200001	-3.350088075181818	-4.136621380492727
O	-8.0701906572	1.8733754148181816	-7.024406130492727
O	-3.5768201872	-10.636239795181819	0.7509541705072726
O	-1.4157888212	-7.823188505181818	-0.31987924249272737
O	-1.0472985532	-5.077851375181819	-2.8808871604927275
O	-0.2713674812000001	-4.946957855181818	-6.636105340492727
O	0.5872650227999999	-1.6833903451818184	-8.269280970492728
