92

O	-0.8002400487333337	-0.07941540092982435	-0.5241659266666665
O	-1.0890719557333335	-1.0956531399298242	0.4318426503333336
O	-1.7386959227333336	-2.1576590699298244	-0.07891327856666644
O	-1.2774063327333338	-2.4655294599298245	-1.3536359706666665
O	-0.6994566627333336	-1.5654571799298242	-2.2557007906666664
O	-0.37136733773333364	-0.3483434519298243	-1.7961323006666665
O	-0.07946352973333362	0.7901941600701756	-2.5698889406666665
O	-2.2715612627333335	-3.0812092699298246	-2.1323240906666663
O	-2.5650891727333334	-2.7818278699298244	0.9236298523333335
O	-0.4195598867333336	1.1404549160701758	0.27760395833333357
O	-3.0913854927333335	-1.8242896199298246	2.0391423693333337
O	-1.7934878927333338	-3.5076961699298246	2.0742209793333335
O	-0.06741557373333362	2.3946364800701754	-0.25207306866666646
O	1.1590317272666666	1.9986332600701755	-0.5301070266666664
O	1.4448271572666664	1.8657900700701755	0.8242126483333335
O	0.5442154842666663	0.7668975600701756	1.2313079293333336
O	0.9771283672666663	-0.3889962259298243	1.9567658293333334
O	0.6245067392666663	-1.4526816299298244	2.6676326893333333
O	1.6097104872666663	-1.8935730099298245	3.6234815493333334
O	2.9273883472666666	-1.4950286899298244	3.4356488393333335
O	3.1432744372666663	-1.6568952999298245	2.0379852893333337
O	2.0735347372666664	-1.1181238999298242	1.2844391893333336
O	4.0259961572666665	-1.5702878799298245	4.397123459333334
O	5.051265837266667	-2.3781212999298247	3.6938597993333335
O	2.1252679572666664	2.5656042500701757	1.8753658193333336
O	2.9337807972666665	2.0132754800701758	2.8834748593333335
O	3.8784098072666664	1.3543500800701755	2.3527239593333333
O	3.3258691672666667	2.6793327100701756	4.133594449333334
O	3.2999605472666667	1.9743134000701756	5.512358789333334
O	4.5410978172666665	2.4734023900701754	4.929059889333334
O	4.632844857266666	-3.747879829929824	4.006102849333334
O	5.727986187266667	-4.404238269929824	4.775029149333333
O	5.764395507266666	-3.8548003499298242	6.039937829333334
O	5.701433997266666	-2.4826075699298245	5.916864799333333
O	6.234907027266667	-2.1506537599298245	4.527006969333334
O	0.10166455026666638	-10.333830969929824	-2.0620785006666664
O	-1.5823345427333337	-7.249941799929824	-3.4322233406666665
O	0.8041527472666664	-6.778341189929824	-6.339806680666666
O	3.6719291372666665	-7.071976239929824	-3.8588501406666667
O	2.0903319072666666	-4.422022049929824	-1.6840228006666664
O	1.8608626472666665	-2.2290850599298246	-4.711106980666666
O	5.468113817266667	-2.9190568499298246	-5.643110240666666
O	6.493196177266666	-1.8788281399298246	-2.0653139406666665
O	4.503819877266666	1.3021095380701757	-2.4436384306666663
O	6.046623427266667	2.0236871700701755	-5.811847140666666
O	9.587537167266666	1.3412697400701759	-4.421263550666667
O	8.846054427266665	3.8592520300701754	-1.5803444006666665
O	7.853699447266666	6.813135470070176	-3.7874913306666667
O	10.748018337266666	5.964909580070176	-6.047160650666666
O	13.235919837266666	6.032152560070176	-3.0735389806666666
O	11.687488337266666	9.294667160070176	-1.8204128306666665
O	-5.471292952733333	-3.4388931899298245	-8.330255550666665
O	-4.234486642733334	0.038772260070175646	-9.065540300666665
O	-0.8640366977333336	1.4541180500701758	-8.309654610666666
O	0.7919688572666664	4.879135840070176	-8.557825050666665
O	2.8718107472666663	4.241080440070176	-5.468610420666667
O	3.3018239772666664	6.416168790070176	-2.4227278606666665
O	-0.29619007543333364	6.204115940070176	-1.2274814406666665
O	-1.6374431727333336	6.130247560070176	2.3107788993333336
O	-2.4416466927333333	9.018221440070176	4.697377199333333
O	-5.510861132733334	9.091077930070176	6.936435339333333
O	-3.1841459827333334	8.163700150070175	9.827954289333334
O	-2.1009315827333337	4.972812640070176	7.981402699333333
O	-5.712834542733334	3.9430758300701756	7.412084449333333
O	-7.094107072733333	4.472686610070176	10.910879499333335
O	-4.052755612733334	3.7853959400701753	12.999883799333334
O	-0.6648880117333336	2.9539228500701755	11.637371799333334
O	-1.3673633827333336	-0.07535601592982433	9.503508459333334
O	2.1206527272666666	-2.6542507899298244	12.624184699333334
O	-0.31722967873333363	-5.453677819929824	11.727458999333335
O	2.9949394272666665	-12.137390469929825	3.2443143793333333
O	6.098775307266666	-13.236083469929824	5.219751459333334
O	4.245378277266666	-11.655986269929825	8.190287269333334
O	3.5592582172666667	-8.266861279929824	6.434441119333334
O	-0.2758008522333336	-8.843440409929824	6.550430929333333
O	-0.8245031417333336	-10.087983869929824	2.9899524893333336
O	-3.4981050827333333	-7.543525699929824	2.4265386793333334
O	-6.060745872733333	-9.537749869929824	4.438327749333333
O	-5.715685592733333	-12.362853869929824	1.9380546493333335
O	-8.066642082733335	-10.179138469929825	-0.14166978466666644
O	-10.744592062733334	-11.749929769929825	1.9935082393333334
O	-5.653964122733334	5.993448780070176	-1.7271965006666665
O	-3.9751987827333335	9.399060640070177	-2.1082552006666666
O	-0.6389327487333336	10.432958130070176	-0.4988636886666664
O	-7.9757606327333335	11.262418830070176	-1.0833344706666665
O	-6.349399222733333	9.799017680070175	-8.662925420666665
O	-1.2497871327333336	9.656017790070177	-6.100421970666667
O	-1.4114379827333337	5.997970910070176	-5.260830120666666
O	-3.6290051827333336	3.1694878600701757	-4.066799580666666
O	-6.541128872733333	1.2707245040701758	-5.717889220666667
O	-7.729382452733334	-1.8513937499298243	-4.001608860666666
O	7.888600217266666	-7.419223329929824	-10.460827100666666
