86

O	1.1236805615099996	2.715937219125	-0.7552950791035712
O	-0.07577048049000046	3.2544727591250004	-1.0932003391035714
O	-0.6972865524900005	3.2276460991250002	0.021125346896428754
O	-0.12070514149000044	2.323961459125	0.8299375328964288
O	0.8347867315099996	1.9585625321250002	1.6287683078964288
O	1.6191771115099995	1.9352894871250004	0.3573810358964288
O	2.9824709215099996	1.3539057081250003	0.6199857078964287
O	3.8349055815099997	1.0239931830250002	-0.20510491340357123
O	-1.3784105634900006	3.2457767091250003	-1.2320221421035713
O	1.9183554615099996	2.5609928091250005	-1.9135504721035712
O	0.3900715635099995	1.0037308232550002	0.26388041589642874
O	-0.7851135154900004	0.46284900512500027	0.7108466308964287
O	-1.1828232444900004	0.48431149212500024	-0.6684452891035713
O	-0.09556565449000048	0.4032591311250002	-1.5154181521035712
O	0.9133992815099995	0.2292750961250003	-0.6980225811035713
O	-1.7223545084900005	0.3925005761250002	1.6642330778964287
O	-3.0655641284900006	0.7436532821250003	1.4549575878964287
O	-3.2144229884900004	1.5404374221250001	0.3685429878964288
O	-2.3867031384900006	1.1943452581250003	-0.7498685061035713
O	3.1610254715099995	0.49167545812500024	1.8166904378964288
O	2.0422317015099996	-0.3246794008749998	2.0578800878964287
O	1.5929204015099994	-0.5992302908749998	3.197099907896429
O	1.5259417915099993	0.4783447671250003	4.238569497896429
O	3.0644772315099993	0.6533636031250003	4.212629187896429
O	3.3404936915099994	1.2139536581250003	2.995820247896429
O	0.48952257150999945	-1.5779866808749996	3.2810172878964288
O	0.1355881705099995	-1.9448834008749998	4.520475337896429
O	-0.12089509749000044	-0.7651205408749997	5.366761757896429
O	1.0525648615099996	-0.11212431087499963	5.462738587896429
O	-4.41219960849	0.8326543651250002	2.7518726678964285
O	-5.4559448684900005	8.851541279125	5.516355217896429
O	-5.37010444849	6.715899259125001	2.3315314278964285
O	-4.09271529849	9.615517739125	0.17497220989642875
O	-1.3169283294900005	10.112119449125	2.7054029278964284
O	-0.5973922370500004	6.338998659125	2.5303220878964288
O	-0.43210565649000043	6.631404009125001	-1.2259846421035712
O	1.8781926215099993	9.754956499125	-0.9719462571035712
O	4.2384067415099995	7.6750245191249995	1.3369139278964288
O	4.26316159151	4.904010709125	-1.1986177021035713
O	4.96505875151	7.336179949125	-4.086585642103572
O	7.83054770151	8.904217209125001	-1.9705206521035712
O	9.19136486151	5.297575499125001	-1.3284295721035713
O	9.45141617151	4.341688029125001	-5.017620752103571
O	14.36317937151	3.999109289125	-4.370654932103571
O	-11.09839612849	3.7324046891250005	-5.444347112103571
O	-7.82098107849	5.371270349125	-4.422416742103571
O	-5.22130648849	4.512418199125	-7.002751292103571
O	-1.5615907114900005	5.173244519124999	-6.773175052103571
O	3.6383135315099993	4.004790279125	-5.659170992103571
O	5.86164887151	1.2390164111250002	-4.464464262103571
O	3.2125421615099996	-1.3765562108749996	-4.026660702103571
O	3.0633282315099994	-4.1054009408750005	-1.4326625821035712
O	4.62902909151	-7.5233790608749995	-1.4189462521035712
O	2.8881361615099994	-10.700893030875	-0.24026080030357122
O	5.03794875151	-10.492326130875	2.9072201078964284
O	3.77200630151	-6.987230180875001	3.622395197896429
O	0.1529381655099995	-8.074159920875	3.276130507896429
O	0.2205897635099996	-11.176251830875	5.428322187896429
O	2.8781252015099996	-10.310346530875	7.926157237896429
O	4.78508525151	-7.0788361608749995	7.90842134789643
O	2.0386403415099994	-4.496152270874999	8.004236607896429
O	0.3110733975099995	-6.3357988208750005	10.831692267896429
O	4.17823916151	-2.8689514308749997	12.640298267896428
O	0.4793716915099996	-2.0767848608749997	13.201053867896428
O	-0.24733805549000049	6.247176489125	15.060289867896428
O	0.6543646715099994	4.921071529125	11.526658967896427
O	-2.6963189284900007	2.8970081991250005	11.321031067896428
O	-4.73363609849	5.304068329125	9.195249617896428
O	-5.48948044849	2.530574479125	6.718193127896429
O	-8.19746392849	1.1363587091250003	9.046790267896428
O	-11.36209042849	2.9848695591250003	5.639348977896429
O	-6.5071873484900005	-3.697410260875	-1.9966169121035713
O	-5.00312195849	-4.649170840875	-5.341723402103571
O	-1.2926944534900005	-4.154405830875	-5.291427332103571
O	1.8478284815099992	-4.8327112808749995	-7.2210723721035714
O	5.46846701151	-4.419287550875	-6.053523072103571
O	-0.0002757354900004838	-8.875013250875	-8.223639532103572
O	-2.1407317084900006	-9.604567030875	-5.125000972103571
O	-6.19336220849	-8.422464640874999	-0.3086832031035712
O	-2.2684099184900006	-6.104268510875	-14.523651732103572
O	-1.5164445054900004	-2.7171614208749997	-12.988978332103573
O	3.1474568615099994	-1.1410612208749997	-10.060527142103572
O	1.2533809615099996	0.4085467611250003	-7.259791872103571
O	-1.8477424784900003	0.09291987712500027	-5.293077652103571
O	-5.57399715849	0.5129409041250003	-5.610178442103571
O	-7.66208126849	0.6736678411250003	-2.4958793821035714
