87

O	2.385021333537037	6.2670851860185195	1.9236416269296297
O	-0.33698133546296277	2.959322326018519	2.4972630569296292
O	3.162166643537037	4.10109794601852	0.3851689369296296
O	0.9116040575370372	4.4814083760185195	0.7672730269296295
O	4.5415727635370375	-0.39820929398148097	-5.03486547307037
O	4.602245353537037	0.8191210740185191	-5.927186093070371
O	3.1742504035370374	-0.5062305839814809	-5.775485953070371
O	2.760280823537037	0.10799683601851906	-0.7151620360703703
O	1.6038840235370373	-1.398388243981481	-1.5207491130703703
O	5.167103093537037	3.265743246018519	-0.5205973100703705
O	4.606699473537037	2.6766360060185193	-1.7640774850703704
O	5.2356199735370375	2.128188287018519	0.43287023692962956
O	2.1945035735370375	5.014728836018519	0.7000586969296296
O	2.8114712235370374	2.753138206018519	0.37925816692962955
O	0.5886147818370373	3.1571263660185194	0.9912224569296295
O	1.7413347035370372	-0.009451203981480916	0.17880396692962952
O	1.1866542865370373	-1.2380879939814808	-0.19278842107037042
O	1.6300723835370372	2.273759257018519	0.9581323269296296
O	1.2465507545370373	0.8633618890185191	1.1088883569296295
O	0.18648871053703725	-1.082614123981481	1.9511893169296297
O	3.1855550635370373	1.014663886018519	-5.3008049430703705
O	2.460845453537037	0.3969162960185191	-3.0745110230703707
O	5.704001313537037	1.880900149018519	-2.30721409307037
O	-0.09099118946296275	-1.9194490439814809	3.048394206929629
O	0.3243352185370373	-1.7123016339814807	0.7403010069296296
O	0.5175218026370373	0.2526537260185191	2.05504692692963
O	3.369086023537037	0.8440213010185191	-3.95426866307037
O	2.4841752935370374	-0.4746166139814809	-1.9125461580703704
O	1.8501234635370372	1.483632317518519	-2.8138638330703705
O	3.911176283537037	1.9463807270185192	0.7104154569296297
O	6.108696803537037	1.960189257018519	-3.5620974430703702
O	6.758904683537037	1.730018033018519	-1.4695449490703703
O	5.454599883537037	0.5675914770185191	-2.1333311130703705
O	2.650908513537037	-0.969918763981481	8.78832267692963
O	3.513746593537037	-4.699329763981481	8.79336083692963
O	6.742267083537037	-3.841478193981481	6.98640181692963
O	4.792701273537038	-1.7645033639814809	4.39342545692963
O	2.5045548435370373	-4.805945963981481	3.948944196929629
O	5.467906933537037	-7.164623703981481	3.5891986969296292
O	6.984972193537037	-4.957413523981481	0.9082173869296295
O	3.590612933537037	-4.883599143981481	-0.9391081452703703
O	3.379994123537037	-8.682869713981482	-0.7434356030703704
O	6.996592093537037	-8.956557113981482	-2.0934087630703706
O	6.006469883537037	-6.56024598398148	-5.0145168230703705
O	3.018636543537037	-8.55283441398148	-6.23452735307037
O	7.822464753537037	-10.57969671398148	-7.92024090307037
O	5.449852353537037	-9.106806813981482	-10.52806885307037
O	-3.8475915064629627	-4.369219023981481	9.26363311692963
O	-4.878349486462962	-6.346443363981481	6.203990916929629
O	-2.6531133964629627	-7.4858661739814805	3.4192370769296296
O	-3.1325343764629627	-9.15602411398148	0.006365356929629584
O	-0.2077332664629628	-7.325680773981481	-1.5072620360703703
O	-0.056713635462962764	-5.264040943981481	-4.656679363070371
O	-2.565595976462963	-2.588560723981481	-3.58647903307037
O	-2.555999086462963	1.111458642018519	-4.484281883070371
O	-3.8597911064629624	2.9645512860185192	-7.482231753070371
O	-5.764028426462962	6.260982086018519	-7.2779127130703705
O	-2.6066287564629627	7.976777706018519	-8.50981294307037
O	-0.6177288664629628	6.578974836018519	-5.615919253070371
O	-3.0979021364629626	7.806868726018519	-3.09615120307037
O	-3.5177658764629625	11.354508156018518	-4.357119843070371
O	-0.1394504594629628	12.01250098601852	-5.8321714330703704
O	2.6394753635370374	9.576290106018519	-5.9073219830703705
O	2.9689974935370373	8.73767252601852	-2.2907013030703705
O	2.9573020435370374	12.328544986018517	-1.2763257740703704
O	7.9247316235370375	10.723660716018518	-2.4971839630703707
O	7.094683663537038	11.38147150601852	1.1461966769296297
O	13.026076423537038	7.497656476018519	6.03918507692963
O	10.314462993537038	5.559413606018519	4.09565273692963
O	7.4642315335370375	7.411451946018519	5.871281096929629
O	6.604086153537037	4.763344286018519	8.45697857692963
O	2.964871923537037	4.900706046018519	7.41419497692963
O	2.4866983735370374	8.15662292601852	9.41471041692963
O	-0.08826077546296279	5.27276413601852	12.60004901692963
O	-7.133144946462963	2.845593036018519	4.0075635969296295
O	-9.061732426462962	0.5842573350185191	1.7062375469296296
O	-7.007889756462963	-0.5802934839814808	-1.2181115620703704
O	-7.327808106462963	-2.340588473981481	-4.54437440307037
O	-4.675902006462962	-2.6514310239814813	-7.29577823307037
O	-11.182929876462962	-0.04368101398148094	-5.067966913070371
O	-10.587236576462962	3.196102326018519	-3.11851282307037
O	-11.433390976462961	-7.082210783981481	-1.4083153710703704
O	-6.459243046462963	-7.0835544039814815	-4.20601311307037
O	-4.465409236462963	-5.524674573981481	-1.4207145740703704
O	-4.711655026462963	-2.9849033739814805	1.3289343669296294
O	-6.509698816462963	-2.696641623981481	4.721991066929629
O	-5.222069776462963	0.04746266601851912	7.026575226929629
