30

O	1.9029839051692812	13.50028621638639	22.97450965225414
O	-0.8344135278506797	12.744515548362514	21.926251419500986
O	-0.4764048401469416	12.04245323562549	23.070178948577805
O	-1.4375873128274448	11.37153432408078	23.832884260995996
O	-0.98862711270735	10.601354272775092	24.91327080760635
O	-1.7883930844771456	9.94988551683453	25.830382778959493
O	0.3488167573881754	10.627570891278543	25.222659831444183
O	1.0155311654759835	11.80102428753633	24.839896804281906
O	0.7570492241409074	12.319439651346544	23.601899717223716
O	1.1172410930297707	9.932408675294747	26.301867588523752
O	0.5873997751023405	8.782023986810692	26.52807786584226
O	2.5260716728644352	9.4884450301223	26.01976280971367
O	3.762228103239349	9.59531392058196	26.785207231696017
O	4.186343182618071	8.239354966948618	27.26620488607201
O	3.227310305585042	7.220548438265327	26.624279494148585
O	2.588234124582728	8.085877104935832	25.715473966151052
O	1.8024711545890457	8.15638544953702	24.5066358300566
O	2.3373371295768015	8.976963159892653	23.47429052470555
O	3.058639974322082	8.21170311369266	22.544317859425984
O	3.3588050852623086	6.929401679648746	23.009062488737506
O	4.404563050063826	5.958696264075648	23.04005449606882
O	5.517009276915501	6.756993282364585	23.263631503275853
O	5.72242493100788	6.693213060431525	24.67952316866237
O	6.6984098844011415	7.847346967374528	24.864343090084557
O	6.79954610032958	8.498578405898987	23.47929405978855
O	5.367459284856186	8.194132287195487	23.16810851853782
O	2.0436234318071884	6.316626050039907	23.068400040684168
O	1.3373268160869958	6.9991233810028195	24.056247954231768
O	7.6018356683563235	7.595723919440692	22.843824193579465
O	7.313824062110407	9.711250497019565	23.404158628601877
