92

O	-2.546375837745763	0.12393968188135585	-1.5667339625593224
O	-3.168031427745763	0.14575339188135583	-0.3106661215593224
O	-2.584882767745763	1.2587509308813558	0.29024214744067756
O	-2.186973092745763	2.399213193881356	-0.31697891955932234
O	-2.199419071745763	2.439516037881356	-1.6640994335593224
O	-2.202538544745763	1.1956014298813558	-2.3217112625593224
O	-3.222464637745763	3.4980699318813557	-1.9994956475593224
O	-3.1482658577457627	-0.906250438118644	0.6607723374406775
O	-4.238601007745762	-1.843678918118644	0.7415479874406776
O	-1.7783417087457627	-1.394044298118644	0.8080724074406775
O	-1.589720256745763	-2.055287998118644	-0.2803833855593224
O	-0.7601757267457628	-0.35516765811864404	1.0200239774406779
O	-0.07427000774576276	0.05330056188135579	-0.13015802055932235
O	0.9008894922542372	0.8869015418813558	2.2850732674406777
O	-0.23796623774576275	0.06030398188135577	2.2314986174406775
O	-0.5431755517457628	-0.7314925281186442	3.324238517440677
O	1.4208078722542372	1.4022211864813559	1.1327426774406777
O	0.8497786722542373	1.0195709998813558	-0.05002874355932241
O	1.323980352254237	1.829008281881356	-0.9833451091593224
O	1.4945487522542371	3.0408708618813556	-0.3603903135593224
O	1.7869054422542372	2.6570109318813557	0.8717917074406776
O	0.9840273922542373	2.149743327881356	-2.410580582559322
O	1.451113012254237	1.1641173748813558	-3.3580954525593225
O	0.8863830822542371	1.568566364881356	-4.7168111325593225
O	-3.9981963177457627	2.772107021881356	-2.9779152425593223
O	-4.978147747745763	1.8114109368813558	-2.3641688125593223
O	-6.160579957745762	2.574535961881356	-2.2255595225593225
O	-5.719956097745763	3.7353687318813558	-1.5580606885593222
O	-4.317457577745763	3.624527531881356	-0.9112497825593224
O	-6.760137637745762	2.726407091881356	-3.5120925825593226
O	0.4125466922542371	0.43383277188135594	-5.551661452559323
O	1.990762362254237	2.2113053018813558	-5.490955392559322
O	-0.2137145177457629	2.583913001881356	-4.639055752559322
O	2.2582363022542373	10.428773661881355	1.6325283374406778
O	3.711029772254237	7.017649191881356	2.4305750274406774
O	2.837535752254237	7.148356571881356	6.139969567440677
O	-0.7138336937457629	8.113565081881356	5.224168337440678
O	-0.8798000927457629	5.1517819618813565	2.783356587440678
O	0.2468919322542371	2.9195038018813557	5.585472877440678
O	-2.2954435277457628	4.394882731881356	8.021510827440679
O	-5.136412637745763	3.675413341881356	5.459631327440678
O	-3.8768894177457627	0.07820127188135584	5.068356747440678
O	-3.785532017745763	-0.3009975881186442	8.900818747440677
O	-7.354014837745764	1.1436650278813558	9.148889137440676
O	-8.472525877745763	-1.443250738118644	6.476852757440677
O	-7.198349177745763	-4.529497368118644	8.311747317440677
O	-12.052520277745762	-2.6303243381186445	10.019688937440677
O	-11.916192377745762	-6.090606618118644	8.439774077440678
O	12.167835922254238	1.8036056138813559	4.463877767440677
O	8.599601342254237	2.4985286218813556	5.525670477440678
O	7.117413862254237	-0.603342588118644	7.074577167440677
O	3.552324552254237	-1.2404618881186442	8.027664417440679
O	-1.582432728745763	-3.1354527781186445	7.397641377440677
O	-3.731908517745763	-5.216629578118644	5.145255907440678
O	-1.0797658127457628	-5.879147778118645	2.5013644974406777
O	-1.459072582745763	-6.177473338118643	-1.2915274185593224
O	-2.457711947745763	-9.052622548118645	-3.483532112559322
O	-0.8268392577457628	-9.813197948118644	-6.827350272559323
O	-3.9825259977457628	-8.391833978118644	-8.465128712559324
O	-3.5027138077457627	-5.061074558118644	-6.679228252559322
O	0.08777656225423724	-4.850946778118644	-7.853779862559322
O	-0.3638171487457629	-5.642064328118645	-11.522975662559322
O	-3.8247271177457627	-4.331519218118643	-12.118056862559321
O	-5.954799657745763	-2.740460668118644	-9.508383742559321
O	-3.732074987745763	0.038760471881355896	-8.254020602559322
O	-2.961737937745763	1.124265722881356	-11.836895862559324
O	-7.601142657745763	3.367331311881356	-9.916790552559323
O	-4.479254217745763	5.536140451881355	-10.405006192559323
O	-2.250221327745763	12.868046351881356	-2.033584456559322
O	-5.623672247745763	14.617594751881356	-2.5465483225593224
O	-5.637317737745763	12.714921351881355	-5.899321142559322
O	-4.995629277745763	9.303552561881355	-4.298473602559323
O	-1.5741214477457628	8.879394231881356	-6.078759432559322
O	0.737867992254237	9.966688071881356	-3.263026712559322
O	2.782767552254237	6.808610431881355	-3.6176497525593225
O	4.514202092254237	8.167424851881355	-6.729836132559322
O	5.9110458722542365	11.040553531881356	-4.706007192559323
O	8.442276612254238	8.382771961881357	-3.6658916325593225
O	10.121284622254237	9.334203771881356	-6.907611242559322
O	7.547751552254237	-2.7012808881186445	-2.3983987425593223
O	7.446128872254237	-5.951762808118644	-0.44618651855932234
O	3.9369864222542374	-6.880947018118645	0.5546967374406777
O	1.889634262254237	-9.725312448118645	1.9703681674406774
O	-1.9394140177457628	-10.042105848118645	2.1241967674406776
O	4.541854232254238	-12.459349248118645	-0.5034971655593223
O	5.477908172254237	-10.305809248118644	-3.540200872559322
O	6.813364962254237	-10.583985248118644	6.837120567440677
O	1.2555050522542373	-9.338903948118645	6.772331697440678
O	1.728144462254237	-5.804066078118645	5.5395972374406774
O	3.802798472254237	-3.6458241081186444	3.2221671374406773
O	7.4092389322542385	-2.356773498118644	3.1888386874406773
O	8.305008232254238	0.40283830188135594	0.8089598074406776
