17

O	-1.2518616992644058	9.876196182998118	28.755246062088364
O	-0.6765346648574877	10.702049029566224	27.230521054368698
O	-1.8167399029544788	10.895978602788356	26.508050108385845
O	-1.5709409503393759	10.676993585613578	25.221260910097524
O	-0.8290192029454564	9.57467647595615	25.12245697830844
O	0.20461865066353857	9.29327650921934	26.107226362369182
O	1.2048127814482585	8.390594943650232	25.58777152586062
O	1.5092736245713612	7.8003092277905965	24.370637494663658
O	2.742987389659148	8.508466096813285	23.826569383872304
O	2.7363148686690537	9.886756975822177	23.531570939721046
O	3.925790402786193	10.656435440961307	23.542347773514688
O	5.136478681082918	9.993499859961455	23.70251194607249
O	5.023223163362577	8.886344215183305	24.534804346134674
O	3.7682995491469184	8.275864494524068	24.742256383159496
O	6.347072927595777	10.861160277209066	23.683911771409942
O	0.4462888767002906	10.666232736321104	26.28419833287967
O	-2.3705044827376356	11.472471571894031	24.400577970390355
