24

O	0.3715559238615691	10.890834060544687	25.090087693594377
O	1.084964952116136	10.1637158461115	26.206145226877588
O	-0.969239299304285	10.601226203799555	25.25374411818304
O	0.8655060006894417	8.809167789396373	26.48917978168631
O	-1.0330163361941742	9.318171345663513	25.736192189280345
O	0.214434779328052	8.541255021126783	25.306703793270437
O	1.367528072039008	11.533967039027122	24.5080684065068
O	2.5402841274498775	11.416697166420256	25.112088633667344
O	2.4233608905001467	10.457700624839704	26.02286421335951
O	4.318973409749866	11.453339325648837	25.680464849076174
O	-1.7576316124102216	11.26375612884257	24.30068835909446
O	1.8055214994250344	7.954134428722606	27.161112880678985
O	1.4837217620182472	6.543380683476631	26.759512770031098
O	2.318224238805646	6.205753360373437	25.55540814571236
O	3.0284563631537313	7.439515132646885	25.080243478670447
O	4.164851027568357	7.715876553101547	25.755450755309965
O	4.304341124662955	11.956280964041044	23.88940086300586
O	4.970698141961203	10.855646225866451	23.4531613278312
O	6.233636206649213	11.243904032158271	23.182974174401988
O	6.688468418820456	12.512036232133866	23.538943894259322
O	4.583328682975213	13.274982597805844	23.8028168609653
O	5.881526493799414	13.626009910850444	23.64157303614818
O	3.520691755477552	14.162557564813126	24.39363535897414
O	8.073247271166519	12.75846846162141	23.984161871509713
