27

O	4.331621399026489	11.958205870235306	23.923878575732033
O	0.72522709618343	11.32893831362578	23.751183987990153
O	7.906313997602358	13.448892760806125	25.519216954598853
O	5.604291050854862	11.65785674778288	23.450217126284947
O	2.021616262847988	10.250320669741942	25.057435572962667
O	7.873422426443106	12.250821695748266	23.155181341758627
O	6.7841016396966936	12.038861608382415	24.025700746004087
O	-1.8666531813229836	10.533547272441462	26.29113706888613
O	5.698432282731076	14.987343608256895	25.356846589345917
O	6.729508599632261	12.922793121077284	25.043567219661075
O	0.23974193196925997	9.73137311663586	26.764680667533515
O	5.576488255022339	13.606051431110368	25.232063389718494
O	-2.239341214281236	11.806707867157652	24.351616493751507
O	4.4303563351924735	13.219122804403163	24.541467954989038
O	8.016580885236385	14.836817790228892	25.562285588767754
O	8.580950026128912	13.498310293151285	23.10133220853601
O	3.1922483282155563	11.470812330968348	23.127603040006157
O	2.004596494405411	10.983280058574293	23.908413564126764
O	-0.023303130262277705	10.898375671191047	24.79669637780488
O	0.8051126331279472	10.129548760192103	25.608622415560255
O	-1.3500792348982804	11.065651394866249	25.156194681245204
O	-1.064622047426754	9.758427471300632	27.02187178900529
O	3.1665740755127576	9.501836720288122	25.581010357760295
O	2.8050935828632344	8.030653023524936	25.63348620856995
O	3.1798359456644563	7.43917561185492	26.96856151092179
O	4.234932275467951	6.373231504131019	26.782691447131104
O	5.730669835387602	15.899670394347641	24.310598647503653
