16

O	0.20609851167415338	7.676783088347845	26.27567750318191
O	1.6790968271299762	7.582631268926438	26.487282046568687
O	1.7674620894370585	6.674841929865231	27.58265218724223
O	1.08796081379364	7.210981899723925	28.672423731714506
O	-0.26969834151607297	7.791137701492856	28.589302914198065
O	-0.263765480285558	8.520329296193232	27.388772112883412
O	1.8326070711719222	5.307626025183655	27.30713412571159
O	0.43718141466937266	9.732422047860057	27.435850728244105
O	1.562894257276909	9.579918916686395	27.91335578303107
O	0.42624367003900754	10.31209184904035	26.138487361381156
O	-0.07125814196591951	11.635004173300688	25.88923565973808
O	0.24728585361591748	9.737592658431286	24.89671207662017
O	1.136877955420618	10.34674438753601	23.958836357260456
O	0.7106110048962757	11.67612316086463	23.715819401286772
O	0.7961241059460786	12.292758265214774	24.970551033403517
O	1.2493434983417961	12.34748840913874	22.616081822486713
