86

O	-0.6528568474896553	0.883067258810345	2.8572560920344836
O	-1.4726943526896554	0.456052950810345	3.8997478920344832
O	-2.0058360366896553	1.520380512810345	4.652220212034484
O	-1.5092331906896552	2.812033632810345	4.513320472034484
O	-2.589753156689655	-0.3337901571896551	3.755508692034484
O	-0.2923627326896553	2.948098632810345	3.8372238620344836
O	0.29742256831034464	1.8125158258103449	3.277525392034484
O	-2.8773644066896553	0.816850629810345	5.490621952034483
O	1.3478218333103447	-1.584153137189655	-2.4584822379655167
O	0.6850296033103447	-0.589586057189655	-3.0420085779655164
O	0.26713627331034473	0.47981014681034495	-2.3758966179655165
O	0.7807704733103447	0.696626137810345	-1.1633457609655165
O	1.2174017233103447	-0.4356066471896549	-0.4687342379655166
O	1.521884513310345	-1.5891819271896552	-1.1388829469655166
O	2.104617993310345	-2.633642637189655	-0.3960585359655166
O	1.5056538733103446	0.0062432128103449	0.7551182820344835
O	1.3963156733103448	1.373377216610345	0.7531066420344834
O	0.49611781331034477	1.611615546810345	-0.19592144996551658
O	0.15999260631034473	2.975470412810345	-0.6168360956655166
O	1.3031809233103446	3.407198942810345	-1.4930141549655165
O	1.8545658433103447	4.697377202810345	-0.8937778989655165
O	1.7568983133103449	5.662210392810344	-1.9590913779655166
O	1.8895039333103445	5.013974212810345	-3.212282027965516
O	2.751169003310345	3.816798042810345	-3.3355991579655164
O	0.6859343133103446	4.845111942810345	-4.063610807965516
O	-3.0847575666896554	-0.5027753371896551	5.0836499520344836
O	-0.020983708689655267	4.579622912810345	2.4510573820344836
O	1.7808950333103448	2.1459374908103452	2.304749712034483
O	0.015664538310344645	4.244528002810345	16.034871142034483
O	9.365832383310345	-0.7493834771896548	5.4435981420344834
O	6.692592413310345	-3.009899937189655	3.924540752034484
O	9.047199413310345	-4.450180677189655	1.2610149220344835
O	9.950973393310344	-0.8925884171896552	0.26790266803448337
O	6.253430503310344	-0.02550750718965511	0.008360514034483457
O	5.827637023310345	-3.0574870271896546	-2.2680716579655167
O	8.793351513310345	-1.989979527189655	-4.380698157965517
O	7.276291163310345	1.545681870810345	-4.869604477965517
O	3.9538315533103447	-0.029950387189654926	-5.8945087179655165
O	5.739766303310345	-2.386278567189655	-8.334588327965516
O	7.693813063310344	0.612492955810345	-9.788477527965517
O	4.3177674733103455	2.444778702810345	-10.260906837965516
O	2.5774496233103448	-0.28538274718965506	-12.270799257965516
O	2.239743423310345	3.001561402810345	-15.984548557965516
O	2.1106589633103447	-12.007230927189655	4.8407595220344835
O	3.903459193310345	-9.645181727189655	2.4706835220344834
O	2.5038078833103445	-10.063604827189655	-1.0179889299655165
O	3.157095743310345	-7.914460877189654	-4.031773477965516
O	2.1970916933103446	-3.878486057189655	-7.6523175579655165
O	-0.3295721976896553	-1.2803593071896548	-8.609423327965517
O	-2.8089016766896555	-2.024857327189655	-5.846381527965517
O	-5.015841416689655	0.40007292081034496	-3.927627357965517
O	-8.456024926689656	1.779827546810345	-4.765473527965517
O	-11.204716506689655	2.236332150810345	-2.192146807965517
O	-10.373833936689655	5.965386392810345	-2.2475601679655166
O	-6.763628606689656	5.294230112810345	-1.2867534459655166
O	-7.878288206689655	3.150429852810345	1.6627842820344834
O	-10.533749116689656	5.4164971328103455	3.187552442034484
O	-9.192651966689656	8.794278812810346	2.261219952034484
O	-6.048829346689656	9.327703962810345	0.29785544203448344
O	-3.5368399866896554	7.452019792810345	2.3592243520344836
O	-4.716188886689656	9.141100492810345	5.533375572034483
O	-0.9913371066896552	12.179263972810345	2.8114067120344837
O	-0.03125845668965532	10.491819662810345	6.102544502034483
O	4.471222863310345	12.684150572810346	7.421054222034483
O	10.118015593310345	5.475007272810345	6.2897787820344835
O	8.482729653310344	10.331569992810346	6.517726212034484
O	6.461762913310345	8.152553292810344	4.057867292034484
O	4.565600503310344	6.411013642810344	7.016189162034483
O	6.560945833310345	3.1782079828103447	7.275138982034484
O	3.3161115833103447	1.108193787810345	6.9066516320344835
O	2.5248916633103446	1.776186703810345	10.604292842034484
O	3.711160753310345	-3.0628608671896553	11.154798842034484
O	2.3520819433103446	-2.331868367189655	14.598192442034483
O	-4.584090836689655	-5.557388107189656	3.8599928820344838
O	-6.082475746689655	-7.185455447189655	0.8135602820344834
O	-5.611822116689655	-5.065456057189655	-2.2663350979655164
O	-6.779794986689655	-4.914205937189655	-5.896540847965516
O	-6.235889806689656	-2.013167167189655	-8.372845547965516
O	-10.865716706689655	-6.1806186671896555	-4.374572687965516
O	-10.978605906689657	-4.747155067189656	-0.8239966339655166
O	-8.837067806689657	-3.2261095971896547	5.0550774420344835
O	-3.7134907266896553	-7.073284377189655	-8.984129677965516
O	-1.6116559786896554	-6.017936017189655	-6.040487977965516
O	-1.5063109536896553	-5.885738317189656	-2.2447031479655166
O	-1.1371002136896553	-8.472020147189655	0.5671335020344834
O	-0.3562964366896553	-7.170805527189655	4.028112312034484
