74

O	-2.7870285761694915	3.2079468150152537	1.8159001881525425
O	-1.8344721681694915	2.295744615015254	1.3361742081525425
O	-0.9511275231694916	2.0119999950152536	2.1536292681525424
O	-1.8748334531694915	1.9859276550152538	-0.0632559621474575
O	-1.9448281891694916	0.6616243470152539	-4.030448031847458
O	-2.7005269561694916	0.9253029507152539	-0.5044573748474575
O	-4.723897786169491	4.8384692150152535	2.8562401781525426
O	-2.9783417061694912	1.0613904770152538	-1.8946314618474576
O	-1.8164044101694916	0.7633001810152539	-2.6504198318474574
O	-0.8747964781694916	1.6938068630152538	-2.1392203918474575
O	-0.7070003931694916	1.4491261010152539	-0.7417910148474575
O	-4.009420256169491	2.719246405015254	2.3644649781525424
O	-5.004263716169492	3.8193236050152537	1.9763021381525427
O	-3.4899929561694916	4.752472985015254	3.4390496281525427
O	-2.3178912951694914	4.325269525015254	2.6413102881525425
O	-8.298625606169491	-5.1137643349847455	-6.153953171847458
O	-4.593863296169491	-4.877336834984746	-5.2399240018474575
O	-4.834739386169492	-7.5915384749847465	-2.5453654718474574
O	-7.756737736169492	-5.718379764984746	-1.0094185788474574
O	-5.715117916169492	-2.490426244984746	-1.0283297498474575
O	-2.9002300361694915	-4.369396904984747	0.7103517471525426
O	-5.360090556169491	-5.746421434984747	3.2782067881525427
O	-6.652309226169492	-2.217982954984746	4.098471968152542
O	-3.0091393161694917	-1.0603938349847462	4.510405858152542
O	-2.242249619169492	-3.980079074984746	6.791464198152542
O	-5.429311146169491	-3.202807224984746	8.835694508152542
O	-4.223167716169492	0.4466491470152539	9.156475998152542
O	-0.7737955481694916	-0.2593289149847462	10.534934388152543
O	-2.3183176571694917	-2.897306934984746	12.796158488152543
O	-2.1464174461694916	2.292700245015254	14.575410388152543
O	0.1555571538305085	-0.06317831498474613	16.496348088152544
O	1.0483876738305082	-10.424053114984746	1.5480105081525426
O	2.5852378638305087	-12.710228614984747	-4.648780601847458
O	4.623954753830509	-8.243188854984746	-7.801875741847458
O	2.1332336238305083	-7.765287794984745	-4.971527471847458
O	4.0340199738305085	-7.180459674984746	-1.7485067618474575
O	2.5875724238305082	-6.074184714984746	1.5420608281525425
O	3.9883154438305084	-5.042870874984747	4.955298978152542
O	1.1632913538305085	-2.553755654984746	5.496780448152542
O	1.3395859838305086	1.0615144430152539	6.475338208152542
O	3.127114733830508	2.2582131250152537	3.3550026281525427
O	2.7275752238305087	5.554720545015254	1.5174949481525426
O	4.335890543830509	8.922282805015254	2.1510519681525424
O	5.638489453830508	11.186757085015254	-0.6227085948474576
O	2.555398073830508	13.360063785015255	-0.021766995847457504
O	0.2883311838305085	10.430517445015255	-0.7288250268474574
O	2.0262882238305084	9.605707005015255	-3.9787967118474574
O	2.1383333838305085	13.091764985015255	-5.508541491847458
O	-3.264144536169492	12.841701785015255	-1.7162122318474575
O	-4.162074696169491	9.700067585015255	-3.6515402718474577
O	-13.237025256169492	-1.153423084984746	-6.167049411847458
O	-15.413242456169492	3.493941935015254	-5.972929731847458
O	-12.097865856169491	3.3034629450152537	-4.023728531847458
O	-9.999035356169493	3.399479155015254	-7.327791701847458
O	-9.291546026169492	-0.3144291949847462	-7.788949051847458
O	-5.571151406169491	0.37108955601525395	-8.076549501847458
O	-6.001775016169492	1.510657389015254	-11.700193211847457
O	-3.6522176461694915	-2.796453414984746	-12.725054011847456
O	5.198966963830508	1.0328732180152538	-6.802485511847458
O	7.917611953830508	0.8639386111152539	-4.176824041847458
O	6.714839143830509	2.010680525015254	-0.7938247888474574
O	7.947994613830509	2.950479965015254	2.6557986081525424
O	5.946723293830509	4.634619405015254	5.472918208152542
O	11.494006143830507	4.881153575015254	0.5438257201525425
O	9.991403643830509	6.008690775015253	-2.8132134018474573
O	6.4156304538305085	5.654848895015254	-8.193017341847456
O	12.01525434383051	-2.779324124984746	2.5081710381525424
O	11.394661243830509	-1.927116404984746	6.158588618152542
O	7.762858773830508	-0.761148524984746	5.763655628152542
O	5.091077773830508	-1.471382694984746	3.2402991081525427
O	4.322142903830509	-1.4307468549847462	-0.47242183984745745
O	5.351503903830508	-3.5281409649847464	-3.5262796918474573
O	3.2437415338305087	-3.049394204984746	-6.653952761847458
O	-8.360803296169491	-12.074645914984746	3.4221195481525424
