31

O	2.491301739952713	11.341993158690665	25.696452013572102
O	-1.3817484640867697	9.863783468834791	24.51348027159703
O	-1.8668025447871552	10.923037011100707	23.797398004342863
O	-1.3596127194272678	11.994576443545592	24.42073409112257
O	-0.08394522557109532	11.860460403904545	25.02296336259689
O	0.6221572517068495	10.90947675103642	24.243822367696563
O	0.029109021344580016	9.697290396866936	24.74569312642589
O	-0.20724589280049313	11.489246341886453	26.49507494652219
O	-1.2720533847634394	11.356845680666218	27.304969249329282
O	0.46214718344062966	10.395673771088632	27.10449386196291
O	-2.567415435120833	12.015861865902524	25.28703295541049
O	-2.3790154976972784	9.179297772675408	25.14156910681179
O	-1.9241613110329545	10.260760040056674	27.384532740963984
O	-0.8449561839587599	9.77490072556508	26.92915848956954
O	-0.7975466221709521	8.862300217845185	27.904434868283133
O	1.8237565736176529	10.361020079063922	26.5606199540163
O	2.9638562883981376	9.696392221525556	26.888991291280743
O	4.108225818732185	9.44608953432012	26.218058116165164
O	4.358697834040223	9.944234296217713	24.94336200103495
O	0.5231891596938605	8.409566168135692	25.171402639412612
O	1.3060994439832345	7.609946972310453	26.07449004022151
O	1.5329652018498494	8.36896602207596	24.269944219485044
O	1.6495575580819088	6.284752215993691	25.638413340706702
O	2.987765825801864	6.374699190455259	26.20210812392646
O	3.472364116305257	10.938202343261265	24.714458900896773
O	0.870133984469027	6.970228960873677	27.347253556008816
O	3.656127369165977	6.461177368141056	27.30411394504371
O	4.639155207742796	5.582647318349053	27.01450992020778
O	5.0813543573906585	6.252429450735776	25.911431578083857
O	3.9697646076712583	6.553691757342694	25.190553828633668
O	2.576094390314451	9.199585176268409	28.063768135402498
