89

O	1.482705121103333	1.4950851810833332	-1.4120186903033338
O	0.23422882460333314	1.1260783150833333	-2.177067149303334
O	-0.4271180458966669	1.1210679480833332	-0.9254759563033339
O	0.6340480851033331	0.3108513040833333	-0.6761621473033339
O	2.117661221103333	0.5631679650833332	-0.7854752763033339
O	2.4163403811033333	0.6732270347233332	-2.0952597723033337
O	2.154023631103333	2.646031825083333	-1.0115888844033338
O	-1.737491038896667	0.8722062220833333	-1.4802613733033338
O	0.8029150501033331	-1.0628004849166668	-1.3479335173033338
O	0.5119848861033331	-2.105960114916667	-2.187267459303334
O	-0.7063552268966669	-1.5143825249166667	-2.190361369303334
O	-0.6290299678966669	-0.9048227949166667	-0.8115436233033338
O	0.6537874271033332	-1.4752202749166667	-0.1807071283033338
O	1.710511041103333	-0.8352335049166668	0.6436377106966662
O	3.062184161103333	-1.0518241949166667	0.6889276306966661
O	4.082949241103333	-0.45091390491666683	1.3253209006966662
O	3.9718028711033333	0.8055465220833332	1.874798010696666
O	2.681241131103333	1.1559864990833333	1.9741877506966663
O	1.6454753011033332	0.24347814008333324	1.663187000696666
O	-1.4021537488966669	-1.7182931249166666	-0.3428911913033338
O	4.152447141103333	0.5740064190833333	-2.1058132243033336
O	4.942672701103334	1.0643561100833332	-1.0540805118033338
O	4.864611501103333	0.6308062631833332	-3.3387062593033336
O	4.346814261103333	-1.1097393049166668	-2.191886499303334
O	3.563336861103333	-1.6700491649166669	-3.132993769303334
O	5.718229371103333	-1.3151690849166668	-1.8691260003033339
O	6.186555331103333	-1.5396725049166669	-0.5265684903033339
O	6.566333091103333	-0.021416588916666757	-2.101670796303334
O	3.1149608211033333	-2.204064704916667	-0.07168059930333381
O	1.236549621103333	10.658427045083334	-0.6524083463033339
O	-1.229711698896667	7.797574835083333	0.13788762069666616
O	-3.0995800588966667	8.178937975083333	-3.190904649303334
O	0.17550029350333313	7.958060345083333	-5.011824299303334
O	0.7744835821033331	5.012497955083333	-3.047471169303334
O	-2.498123118896667	3.394083165083333	-4.104371699303334
O	-1.615320508896667	4.276398635083333	-7.703622609303334
O	1.7967769111033332	2.3695337550833333	-7.387140519303333
O	-0.027259368896666886	-0.6202317649166667	-5.913292639303334
O	-2.5490102688966667	-0.45476781491666673	-8.765805279303335
O	0.26176628350333314	-0.1353397439166667	-11.378483899303333
O	1.8988719611033331	-3.2158170249166664	-9.800229099303333
O	-1.0705593988966668	-5.511150064916667	-10.081704619303334
O	-1.818045248896667	-4.183281564916667	-13.549477899303334
O	1.7461335711033332	-8.326054124916666	-13.029588199303333
O	-9.991884088896668	5.881501445083333	4.6500914406966665
O	-7.991326878896667	5.525122475083333	1.4600100306966661
O	-9.074807578896667	2.3789359650833335	-0.3164126933033339
O	-7.448812568896667	0.7985459120833333	-3.2892896693033338
O	-7.732641598896667	-2.4555873149166665	-5.266877749303333
O	-4.0141273388966665	-2.612203004916667	-5.922193059303334
O	-1.6809591488966669	-5.482414344916667	-5.412591199303334
O	-1.972292048896667	-5.486175594916667	-1.646473937303334
O	0.6962876861033331	-6.290449264916667	0.9043576306966661
O	1.905507771103333	-9.584187514916666	2.2262850506966663
O	2.675142511103333	-10.346950714916666	5.886412070696666
O	6.372647751103333	-10.184717614916666	4.950816400696667
O	5.896244801103333	-6.675922064916667	3.5761673806966665
O	4.243048591103333	-5.497424824916667	6.759452140696666
O	6.674294991103333	-6.876458104916667	9.306404900696666
O	9.886127001103333	-6.756555174916667	7.384416020696667
O	10.210441811103333	-5.603689464916667	3.891820640696666
O	8.679303211103335	-2.105531604916667	4.1017922706966665
O	13.423622211103332	-0.3941322949166668	2.283710780696666
O	7.520117881103333	11.155109185083333	-1.1962654681033338
O	10.717165311103333	11.797962985083334	-3.1972447393033336
O	12.343699111103334	9.521139665083334	-0.5447369013033339
O	9.785250471103332	6.628848475083333	-0.9168175153033338
O	8.528608081103332	7.167569905083333	2.765253380696666
O	5.3901529511033335	9.176546775083334	2.037541480696666
O	3.262406991103333	6.782191555083333	4.028936670696666
O	4.498724851103333	8.217454145083334	7.325191720696667
O	3.087096301103333	11.607801885083333	6.393386480696666
O	-0.15779173489666687	9.972846135083334	7.557806480696666
O	1.099782820103333	10.972885585083334	10.979607900696667
O	-4.027736748896666	-0.6386382449166668	7.383188970696667
O	-6.147892448896667	-3.5149228649166666	6.133643620696667
O	-4.6053803388966665	-5.290872744916667	3.1928058406966664
O	-4.856058868896667	-8.403084504916666	1.081063670696666
O	-2.345168228896667	-9.765906214916667	-1.4671992053033338
O	-5.972645398896667	-10.580948114916666	4.950281990696666
O	-4.036095048896667	-8.638184304916667	7.635284000696666
O	-1.5873645388966668	-3.479965014916667	10.705274000696667
O	-11.791386988896665	-7.241855964916667	0.7397510306966661
O	-7.420029908896667	-7.689383144916667	-2.9430934293033335
O	-5.929744038896667	-4.343329824916667	-2.110711009303334
O	-5.3293634188966665	-1.944698034916667	0.7174727206966662
O	-7.317423308896667	0.33286824208333327	2.9710778506966657
O	-5.492132308896667	2.913837395083333	5.024973310696666
O	-3.955081078896667	9.854148545083333	-11.295933999303333
