23

O	6.168442529096878	12.552496811595164	24.759538067106266
O	1.364154273119634	13.611458141884862	24.954564615320372
O	0.40630347322725824	8.800208853682868	26.455582992524374
O	-0.7542564190792487	9.236108715983777	26.1414898657404
O	5.301601464002687	9.784315844074918	23.869430918244518
O	1.362152155388094	10.418413122005115	25.13451912830541
O	1.5512769834341282	9.224588427100871	25.70500922514437
O	-0.6288761475313007	10.34088864937662	25.74186566106085
O	-1.8948068688299977	10.62092942010585	25.23778768206196
O	0.18227092129444533	11.020270808958387	24.788638807882126
O	1.0752151817552333	12.284983089571826	21.847568091420072
O	-0.3416435438897031	11.534504238930472	23.76391193439401
O	-1.6389308357510706	11.048365187158172	24.076128893382748
O	0.3874360319034913	7.81459937685893	27.549567392573984
O	2.439342621585407	11.24927922101996	24.657871237360258
O	2.6286934490677187	12.576255504949732	24.663743942176826
O	3.7426233566147684	13.059595521481508	24.021542312206687
O	4.78285091282095	12.172578454482863	23.867969189304045
O	4.469372175059205	10.870782366626424	23.64567434392605
O	3.1085740472186543	10.539060804739247	23.665385744900828
O	4.7865607912415635	8.500856363823068	24.29269490811589
O	0.4050446680461045	11.856856630768023	22.655978443183315
O	-2.6552753516004968	12.112825642469302	23.986840215076
