81

O	-2.5882208094640626	0.2795275021828124	1.9271576820171874
O	-1.7394560024640628	-0.8345525538171876	1.7039748420171872
O	-0.760900375464063	-0.4931652508171876	0.8471351120171874
O	-1.387448261264063	0.40621578178281237	0.045441226017187364
O	-2.290009084464063	1.3923391061828123	-0.014969087982812601
O	-3.013931479464063	1.3563023891828123	1.1466020220171873
O	-4.113012559464063	2.2958163961828126	1.1060623320171876
O	-2.617652509464063	0.4935727220328124	3.195003662017187
O	0.19525222053593705	-1.4136886138171876	0.47471000301718747
O	-0.9510047754640629	0.1849777751828124	-1.2535009439828126
O	0.08688910053593712	-0.4203872158171876	-1.7333620279828126
O	-0.489695334464063	-1.3090996638171877	-2.625271937982813
O	-1.430032671564063	-1.4882960438171877	-1.6362599879828128
O	-1.998883665464063	-0.26541352981718763	-2.1438769979828125
O	-2.121602578464063	-2.5679787938171876	-0.9572979859828126
O	-4.588566289464063	2.6088144161828124	-0.3946504669828126
O	-3.925545869464063	3.7865963361828125	1.1640822120171874
O	-8.816884089464063	-4.255313423817188	6.049142432017187
O	-5.159571819464063	-3.2235249038171876	5.784219942017187
O	-3.875666739464063	-6.698361953817188	5.184425212017187
O	-6.454732009464063	-7.045445033817188	2.4126573520171872
O	-5.227829999464063	-3.7983442238171876	0.8614622220171874
O	-1.733035336464063	-5.122013923817188	1.0081086720171872
O	-2.866435149464063	-8.442896003817188	-0.5457963499828126
O	-4.558289969464063	-6.564984953817188	-3.4781024179828126
O	-1.343681561764063	-4.549689783817188	-3.9612710679828127
O	0.7267286105359372	-7.704729143817188	-3.883417347982813
O	-1.663132859464063	-9.382649913817188	-6.4315115379828125
O	-1.237456669464063	-6.288069993817188	-8.722032877982812
O	2.5463708305359374	-6.306274783817188	-8.830721497982813
O	2.4497482205359367	-10.085936493817188	-9.255601307982813
O	2.106471950535937	-6.967143253817188	-13.749421357982813
O	5.358700890535937	-8.941056753817188	-13.492120057982813
O	3.491341430535937	-8.867880833817187	4.566633872017188
O	3.2978223405359364	-6.810157653817188	10.997941442017188
O	5.595807010535937	-4.808902633817188	13.259165242017188
O	3.1911484505359367	-0.9701871738171877	11.110131442017188
O	1.747568460535937	-3.0015285138171874	8.245406952017188
O	4.480782720535937	-3.5286243438171874	5.672920352017187
O	3.952538330535937	-4.911146333817188	2.225321692017187
O	6.011091490535937	-5.283618613817188	-0.9005353669828127
O	3.1234431305359367	-4.722475343817188	-3.229029217982813
O	2.840529520535937	-2.3947049438171875	-6.139105817982813
O	3.293317810535937	0.8177839761828124	-4.248936047982813
O	1.620460690535937	4.198141196182813	-4.892062507982812
O	2.586430110535937	7.073002156182812	-7.0985053779828124
O	2.2492746705359368	10.695872706182811	-6.0518444679828125
O	-0.857107219464063	10.850873106182812	-8.296303437982813
O	-2.517573369464063	8.036896846182813	-6.336139397982813
O	-1.853284304464063	9.809507276182812	-3.0330034879828127
O	-3.046211549464063	13.311826006182812	-3.9034102979828127
O	-6.614229709464063	9.075114736182812	-7.556980127982813
O	-7.414195429464063	7.369973186182812	-4.273070317982812
O	-14.150967789464064	-2.9917757038171873	2.880016022017187
O	-17.113461889464062	-0.29200310981718763	-0.3222739289828126
O	-13.342492789464064	-0.17683549581718755	-1.2262934479828127
O	-12.666759789464063	2.3637621661828123	1.6763130220171871
O	-11.322325239464064	-0.05718017081718757	4.296215112017188
O	-8.280357409464063	1.9678419961828124	4.824577382017187
O	-9.991185969464063	4.637807126182812	6.786547092017187
O	-7.2168806694640635	2.6698274861828124	10.496088042017186
O	-8.805189269464062	5.585931056182812	12.306201742017187
O	2.0624551105359368	5.858709156182812	4.844830682017188
O	5.360537650535937	5.349811216182812	3.2155343920171875
O	5.080976540535937	4.054682746182812	-0.2909205709828126
O	7.269631840535936	3.4640649261828127	-3.326815467982813
O	6.096771420535937	2.5763641061828126	-6.885518397982812
O	9.359395510535936	7.339216466182812	-2.3022146179828127
O	6.628881200535937	9.400256186182812	-0.5914722520828126
O	1.6767609905359369	10.596095206182811	3.301145382017187
O	2.5468888805359367	14.505715406182812	1.2803608620171874
O	14.610776910535936	3.5144903261828127	0.8882173720171874
O	12.133859310535938	0.6333489771828124	0.8072360720171875
O	12.625155410535937	-0.8570800938171876	-2.650722777982813
O	8.894025510535936	-1.0883593838171877	-3.5452174579828126
O	5.714025790535937	-1.2711344738171877	-1.5509545779828127
O	3.783937180535937	0.4042325434828124	1.1987087220171873
O	4.245579510535936	0.6816604471828124	4.994401472017187
O	1.210482540535937	1.9029022961828124	6.867104722017188
O	2.3645291705359375	3.185773426182813	10.301897142017188
O	-4.205308549464063	-14.521455093817188	2.658393132017187
