27

O	-0.9182698293204875	8.607195465662956	26.31033661375091
O	-0.018118021623761194	10.17263838323815	26.825388637046505
O	-0.5364100788681245	9.720358006153926	27.998531660723437
O	0.5252010631661866	8.937613431401202	26.372193869492424
O	-1.2606854295735486	8.63692764641188	27.678489788750426
O	-0.29859841031395934	11.089983430654211	25.641772194995305
O	-1.2519804377814272	7.360035978799363	25.713502856719515
O	1.6881148108233077	8.52364113480979	25.724984965488915
O	-1.5411245169203127	11.164090844845656	24.949443491908244
O	0.8723458044300535	11.493119406784574	24.950328878892783
O	-1.6040768920284254	11.57822060115401	23.66320081665345
O	3.4280118034224265	9.74032607937461	24.523700941164886
O	-0.44948575722481066	12.137740405991357	23.169567737182607
O	0.774519970066542	12.190766920511765	23.769970949132276
O	2.7435026816774064	9.482515592461773	25.654468375906326
O	3.1183593657981716	9.084516273245711	23.371460096974836
O	4.464712221340222	10.574915984233874	24.233873780192976
O	3.545977684609633	9.953724002675914	22.421618643517853
O	4.709046608971558	10.61900176640771	22.865974931090154
O	1.8840896567934946	7.727587511667819	24.631676667437496
O	-0.7213752595861556	6.251124200027808	26.286852872305634
O	2.9980743242586954	7.7322584298537915	23.741477288832947
O	-0.6919190716225146	7.0503179032465315	24.48016187860342
O	-2.6485775121697883	10.57120882188463	25.519346428844
O	-0.6749714867975819	12.81037524587549	22.001609470537648
O	2.1285449836712655	12.629912539169386	23.3020536377441
O	3.020816840800859	13.01319694176214	24.494070774465538
