97

O	-2.018363324140351	1.130665990831579	-3.385434444894737
O	-0.9887386581403509	0.26702763323157896	-3.276548034894737
O	-2.736529004140351	1.643816565231579	-4.307212244894736
O	-2.056222464140351	2.0827570702315787	-2.2260022528947365
O	-2.132376224140351	-3.2819710647684213	1.7758737451052633
O	-1.369363848140351	0.12395218523157903	-0.5623569938947367
O	-0.817475673140351	2.102964800231579	-1.8144379768947367
O	-3.212746464140351	-1.568719934768421	-0.01211843489473674
O	-0.7194854581403509	-1.4715172347684211	0.9241977551052634
O	-0.6555379771403509	2.879750595231579	-0.4561150388947367
O	-0.1470737831403509	-3.236679414768421	0.4650639051052632
O	0.13383450285964904	1.921338562231579	0.2602536451052633
O	3.222664405859649	1.4814444872315788	-0.5626333878947367
O	0.09464435785964909	0.37140973523157894	-0.39549668489473677
O	1.268570735859649	3.479935655231579	-2.8201261548947367
O	0.574057695859649	-0.8624806747684208	0.6336719451052633
O	-1.617529334140351	-1.7076889547684209	-1.5142879388947368
O	0.14046647885964902	0.21142631023157898	1.1458888051052634
O	2.1898073158596487	2.645276025231579	-6.057894044894737
O	0.47062686285964905	0.4091682102315789	-0.23494251489473683
O	4.3616762158596485	1.739012151231579	-2.5099202848947364
O	1.7657747458596489	0.324322702231579	-1.0326273248947366
O	2.325136895859649	1.7491345712315791	-1.3050253970947367
O	2.0608160058596487	2.6067500452315793	-2.300575934894737
O	3.4066554258596486	2.659865325231579	-2.7294240848947364
O	3.5011016358596487	0.7543214632315789	0.48760479510526333
O	4.040877095859649	0.545279525231579	-2.948441884894737
O	2.757947225859649	0.15481500523157887	-3.6751160648947367
O	2.675660195859649	1.289909936231579	-4.409604314894737
O	1.7838531458596492	1.411122112231579	-5.419931854894737
O	0.6617633758596491	0.7518663992315789	-5.157619474894736
O	0.31031943585964905	0.267796758231579	-3.8936867748947366
O	1.435094075859649	-0.399875764768421	-3.4839378048947367
O	-3.498891364140351	2.183239447231579	-1.7554926468947367
O	-1.9333211041403509	-1.2000963347684213	-0.39436643589473674
O	-0.8680332391403509	-2.7771308947684212	1.4291467851052635
O	1.0945759058596491	0.921879719231579	2.1416638451052634
O	2.700487225859649	-0.870146194768421	-0.7415308968947367
O	0.2616026968596491	3.535427065231579	-3.671364234894737
O	3.5484598058596486	2.959638515231579	-6.056347714894737
O	16.27449966585965	-0.738179684768421	-1.5316318518947367
O	3.847380915859649	-8.709529544768422	-4.219714734894737
O	2.377995885859649	-7.9013508247684205	-0.7783303768947367
O	-0.8024262161403509	-9.961824964768422	-1.3504195728947368
O	-1.276796361140351	-8.014311634768422	-4.591253184894737
O	-0.7546658311403509	-4.894415764768421	-2.8499775348947365
O	-3.5230994041403507	-5.945441194768421	-0.3984009248947368
O	-5.754913644140351	-6.820866594768421	-3.2062874748947365
O	-5.228794524140351	-3.257496424768421	-4.601450954894736
O	-6.294987414140351	-1.7487344947684211	-1.4197248268947367
O	-9.17987312414035	-4.032770954768421	-0.9067585848947367
O	-10.36416291414035	-3.256774624768421	-4.457506664894737
O	-10.001889374140351	0.496757699231579	-3.5576937548947365
O	-12.18214393414035	0.4636012392315789	-0.4927580668947368
O	-14.94379833414035	0.601923773231579	-5.166679684894737
O	-15.26730943414035	3.551126105231579	-2.7838523448947368
O	0.2654491418596491	-9.63657486476842	5.945431375105263
O	-2.977842604140351	-8.13026090476842	7.097547975105263
O	-5.639749594140351	-6.590757364768421	5.000245655105263
O	-8.180748644140351	-2.477109164768421	2.528999405105263
O	-8.50788305414035	1.205200217031579	2.3061111051052636
O	-5.564462394140351	1.991313810231579	4.560991635105263
O	-2.961005064140351	4.715255165231579	4.116836185105263
O	-3.0861798741403508	8.348144995231578	5.372941735105263
O	-0.14533975214035094	10.169884795231578	6.934119475105263
O	0.29105692185964904	11.915347135231578	3.5567681651052627
O	0.639676865859649	8.613617255231578	1.7274080651052632
O	3.2718615458596494	7.504572265231579	4.140578855105263
O	5.561128975859649	10.405266405231579	4.190787335105263
O	5.047248715859649	11.856751235231577	0.8535389451052631
O	2.8058337358596495	10.37055835523158	-1.6885528938947367
O	4.341525695859649	6.916979025231579	-1.7287554008947368
O	7.776327655859649	8.09730179523158	-2.157505834894737
O	6.8119064158596485	10.634858775231578	-4.856377904894737
O	5.125262545859649	7.989995665231579	-7.003681104894737
O	7.92921591585965	5.4386203652315785	-6.232705314894737
O	8.86345939585965	3.241933825231579	-10.852904524894736
O	5.553820685859649	-5.315115974768421	-9.361303444894737
O	5.267064625859649	-4.293690064768421	-13.008172134894737
O	6.963419285859649	-1.0177388947684212	-11.845794534894736
O	4.603088415859649	-0.44761384476842103	-9.018694404894736
O	7.359029905859649	-0.820963824768421	-6.317217824894737
O	6.729021875859649	-4.488543954768421	-5.300784754894737
O	6.561833385859649	-3.549046274768421	-1.6601121068947366
O	10.21942846585965	-3.026070584768421	-1.4461600978947367
O	10.68196926585965	-6.742847644768421	-2.3112144548947366
O	9.88814126585965	-7.210522644768422	1.3915498951052634
O	13.53955026585965	-6.328904294768421	1.769733515105263
O	-2.267075764140351	1.331865774231579	8.842151365105263
O	-5.558408944140351	3.1170615352315787	9.310319065105263
O	-7.538048674140351	5.0949931252315785	6.702915675105263
O	-3.7504303841403512	5.021624535231579	13.046319965105264
O	-9.353932074140351	0.11596535523157891	8.809708765105263
O	-6.628480614140351	-1.4241712647684213	6.742045045105263
O	-2.9690435841403513	-2.272542034768421	6.710230395105263
O	-0.706958356140351	-4.819896484768421	8.411179595105263
O	2.8142524458596494	-5.336453434768421	7.033918085105263
