89

O	0.06819371912903216	0.2780018106935479	-2.6529277872903227
O	1.4853765311290323	1.419643967693548	0.5097231827096773
O	-2.0254719488709676	-2.260185664306452	-5.2455511972903235
O	-0.2581306378709678	0.5753551526935479	-3.9710245572903227
O	-0.5903498248709678	1.727693310693548	0.06777712270967728
O	-0.7569070349709678	-0.12478185430645206	-6.171644197290323
O	-1.0462782408709679	-0.18486218430645218	-4.7922252672903225
O	0.3437810211290321	1.310514941693548	4.041896432709677
O	-0.2103561728709678	-3.2305184843064523	-3.5031046772903225
O	-1.389307468870968	-1.4179421943064523	-4.365618637290323
O	-1.3317614918709677	1.5344676546935478	2.474431112709677
O	-0.7035604068709678	-1.943073594306452	-3.3225283772903227
O	2.584134501129032	1.1249629981935478	3.3551793727096775
O	0.12905609612903213	-1.1234875343064523	-2.5638706772903226
O	-1.4611984578709678	-3.5173677943064523	-5.450192907290322
O	-0.45792980287096785	-1.2975102043064521	-6.943773597290322
O	0.9284845511290322	1.243605561693548	-1.9538123602903226
O	0.6264826611290323	1.491062115693548	-0.5085032132903227
O	0.8337997411290322	1.407129389693548	1.6929342327096775
O	-0.5109161788709679	1.6229330706935479	1.4171478627096774
O	1.227738281129032	1.2981980136935478	3.0139035327096777
O	-0.9345036778709679	1.547464928693548	3.7440328527096773
O	-1.8628941088709676	1.827253647693548	-0.6006592562903227
O	-2.597181958870968	3.1152601256935477	-0.47208644829032265
O	-3.0702541088709676	3.4463894556935477	0.9114427727096772
O	-4.570221158870968	3.6195106056935478	0.8950022827096773
O	1.0019052811290323	-3.5648561143064517	-4.0923776572903225
O	4.576072651129032	-1.882722214306452	-14.770353197290323
O	7.776481011129032	6.859620165693547	-2.9949635372903227
O	7.422014661129031	3.9624957056935477	-0.5334396932903227
O	8.359636271129032	6.084089565693548	2.5156104827096772
O	5.734657801129032	8.616563625693548	1.4658915727096775
O	3.135036101129032	5.7931668356935475	1.1672860427096774
O	4.099817291129033	4.743231695693548	4.6966909927096765
O	3.7568988711290325	8.312786235693547	5.9446867627096776
O	0.19144582312903213	8.578386555693548	4.442064342709678
O	-0.7493941028709679	5.2899996356935475	6.132769992709678
O	0.6974391611290321	6.483905665693548	9.463515002709677
O	-1.2467396238709678	9.804269425693548	9.093890702709677
O	-4.457185638870968	7.734572895693548	8.470637652709678
O	-4.249079398870968	5.5920268856935476	11.612685202709677
O	-8.562657238870969	7.613095975693549	13.020636002709677
O	12.238684261129032	-4.016827724306452	3.4948237627096774
O	10.248576761129032	-0.8682538743064521	4.238483502709677
O	0.3855639711290323	2.593694405693548	9.628560302709678
O	-3.204920098870968	1.707619031693548	9.060003802709678
O	-2.545816708870968	-1.454770294306452	7.076784882709678
O	-4.4980851688709675	-2.833423654306452	4.107542862709677
O	-7.596470078870968	-5.063717434306453	4.046550502709678
O	-8.073579118870969	-7.906521084306453	1.5822321927096774
O	-10.438470858870968	-5.578739574306452	-0.33087652129032274
O	-7.7150377688709675	-2.9723537443064525	-0.7402603452903227
O	-5.346525298870968	-5.616807684306453	-2.106653407290323
O	-7.605200488870968	-7.347998014306453	-4.634007857290323
O	-9.832623608870968	-4.506879674306452	-5.637588187290323
O	-9.583310758870967	-1.0351454943064522	-4.208224837290323
O	-5.938672968870968	-0.167914364306452	-4.923769047290323
O	-6.384976248870967	-1.291487304306452	-8.543604287290323
O	-9.600413118870968	0.6414444036935478	-9.017758507290322
O	-7.980704458870968	3.8896783056935478	-7.755327757290322
O	-4.781897578870968	3.214348775693548	-9.648179817290321
O	-3.5425366588709677	7.659566105693548	-11.869367597290323
O	3.967335351129032	9.885608625693548	-7.025789567290323
O	2.0784266511290324	13.004204075693547	-8.210451217290323
O	-0.29723113187096784	10.438950415693547	-9.822272487290322
O	-0.8338976758709679	8.345591105693549	-6.604722927290323
O	0.9188488511290321	5.269588475693547	-8.236036207290322
O	4.368095321129032	5.572794275693548	-6.669614027290322
O	4.1761626011290325	2.0331691386935478	-5.321222707290323
O	4.925019341129032	0.569257845693548	-8.752008847290323
O	8.262793561129032	2.4014794956935477	-8.844314237290323
O	9.401593561129033	-0.4976288743064521	-6.654965837290323
O	9.796380161129033	-2.256693424306452	-9.970507157290323
O	3.704689011129032	-6.822788644306453	0.6677055027096772
O	2.776564931129032	-8.127726314306452	4.121873472709677
O	0.012760067129032215	-6.091330974306452	5.688047262709677
O	-2.408872528870968	-6.128605454306452	8.602453682709678
O	-5.430206228870968	-3.8116705143064524	9.149815202709679
O	-2.7535967288709675	-10.597587424306452	7.872949442709677
O	-2.172591408870968	-10.950195024306453	4.0980361227096775
O	0.7443666911290322	-11.504415124306453	1.7701388427096774
O	0.5271816511290323	-9.887364424306453	-1.6414292872903227
O	-0.19835638787096782	-10.966229224306453	-8.565794707290323
O	-2.741903348870968	-12.876973524306452	-2.3731360872903227
O	0.8629802611290321	-2.033652004306452	9.443097202709678
O	2.626777361129032	-2.848759784306452	6.176184852709678
O	6.028494091129033	-4.3143467343064525	5.161679672709678
O	7.114695771129032	-3.9517037743064525	1.5678002127096775
O	9.855462561129032	-6.483971974306453	0.8255118627096774
