32

O	6.534783090508932	8.74089173524681	23.250402231657137
O	3.913017720881843	10.888360775570325	24.020801665589847
O	8.332030722935112	11.294654564571749	23.753857456542598
O	5.735698377686415	9.765969815436282	23.949261751453257
O	0.6948325394007915	8.425292764972468	26.315387392423606
O	4.008510702382903	8.412004501562416	26.24987519683487
O	4.377830212998447	9.68188592543474	23.565944886611653
O	3.6637197373549606	6.778780427198336	24.83829951122561
O	-2.1314558827468	10.58540569389771	26.101658032446778
O	4.87603315518193	11.760408142846364	23.996524213168527
O	-1.9427871049383276	11.155352269632399	24.100521771869627
O	6.057476149855048	11.086291646843259	23.897144091918406
O	7.242152042316195	11.94809357724926	23.87197582839172
O	7.191182497503711	13.15878368996493	24.713587842932903
O	5.859718022584041	13.55465220992259	25.2360477849213
O	4.808711137653664	13.216822678224743	24.175047135151313
O	5.914773682249179	15.03706829783491	25.50968202123201
O	5.338747084636122	12.920681587170478	26.489613129874947
O	2.5442976919561335	10.876696916819597	24.30082388064599
O	1.685471471549251	11.776348678981392	24.05195257529332
O	0.693228907262202	11.663316463999877	25.021239761276792
O	0.011085042598185213	10.487817028506612	25.315789220741372
O	0.8873097925242039	9.40587250437092	25.312349830126
O	2.1602627709960327	9.851449360134538	25.210440108067562
O	1.7960052395589998	7.498296660094268	26.481196610818166
O	3.008796974964308	7.741608980821022	25.69747105065301
O	2.5881310771043395	6.380667271919972	23.90274202502243
O	2.413910067330915	7.755133034103044	23.326482899368692
O	3.380469490959941	8.662554314505803	23.589018915541043
O	4.632420505002716	5.912971340477848	25.39914919802466
O	2.36831316756893	7.168082376816628	27.82671704475384
O	-1.3904386768552948	10.242271824644465	25.12367795915031
