91

O	0.9839856538644072	-4.350454920505084	3.652318023610169
O	0.3873002228644072	-2.2837074805050848	0.9226085636101695
O	2.889883883864407	-5.8857022405050845	1.6483623336101694
O	1.2289387738644073	-3.501980010505085	2.470026023610169
O	-0.1615173029355928	2.0540788094949156	2.526027713610169
O	1.7661232838644072	-0.5032246205050844	3.3800372736101694
O	0.1025184898644072	-2.692144570505085	2.1995601736101693
O	0.1750482578644072	-0.8104181705050845	4.847334103610169
O	-1.6489843061355927	3.6621207494949153	-0.2849004931898306
O	1.0933218238644073	-3.1954648005050847	0.32370387961016944
O	-3.0057053261355926	2.1670945294949155	-0.8226606773898305
O	1.6064933538644073	-4.0281690705050845	1.2741646036101695
O	2.4425925138644073	-5.107054700505084	0.7414949396101694
O	3.2783933838644073	-4.773587240505084	-0.42765671238983055
O	2.959212263864407	-3.5113101305050844	-1.1398742593898306
O	1.4421429938644073	-3.3081591305050844	-1.0986778433898305
O	3.4601330838644073	-3.6628164905050844	-2.554649306389831
O	3.520878233864407	-2.2163219505050846	-0.6375869963898305
O	-0.2137578235355928	-1.0669141405050846	0.5908161636101694
O	-0.7681511961355929	-0.7385248105050845	-0.5017501423898305
O	-0.6217088281355928	0.6396901994949155	-0.6279137503898305
O	-1.0000894741355928	1.5632131354949155	0.3404932056101695
O	-0.6640764361355929	1.0991466354949155	1.6093994736101696
O	0.0934681798644072	-0.016005455505084476	1.5003326136101696
O	0.46804738886440717	1.4949793114949155	3.7052019336101694
O	0.6210791728644072	0.03987194449491549	3.764651543610169
O	-1.2688025461355927	-0.49921943050508444	4.942744063610169
O	-1.5889848761355927	-0.9844052405050846	3.5593924536101693
O	-0.6501886511355928	-1.7272303205050847	2.932137953610169
O	1.0452346538644073	-1.0347754505050846	5.940493913610169
O	1.8073731838644072	1.9586886294949153	4.193242053610169
O	-2.0305143561355927	2.5555728894949157	0.21836785461016947
O	0.8516787838644073	-15.560311760505085	-2.7211292563898306
O	-9.145793906135593	-4.996672560505084	0.9196415636101696
O	-7.604884966135593	-2.4928325405050846	-1.5230619863898305
O	-10.170905096135593	0.24004393049491546	-0.7249469863898306
O	-9.384238576135592	-0.1972875075050845	2.962893173610169
O	-5.651607466135593	0.09921735049491542	2.180247513610169
O	-6.493610756135593	3.3516717694949154	0.41475282561016946
O	-8.515989676135593	4.596249469494915	3.3116051236101693
O	-5.601531216135593	3.9549856394949154	5.754381793610169
O	-3.233985846135593	5.839535449494916	3.438127543610169
O	-5.714930336135593	8.735624749494916	3.1134026436101694
O	-6.1046024261355925	8.824875239494915	6.948619603610169
O	-2.2378088961355926	8.957517189494915	7.1911266136101695
O	-1.7314416861355928	11.987907139494915	4.936811853610169
O	0.24661296386440718	14.256439239494915	8.90101800361017
O	-7.444822266135593	0.39251868049491545	-11.21520216638983
O	-7.856484336135593	1.5235076094949154	-7.615957696389831
O	-6.569979996135593	5.061654889494916	-7.265401296389831
O	-3.2192787161355927	9.035783749494914	0.12315847361016943
O	0.24341989286440718	9.303329269494915	1.5329128936101695
O	1.9786443938644074	7.223922019494916	-1.1316963553898305
O	4.9656799738644075	4.886807919494916	-0.8054996433898305
O	8.703940303864407	5.518707799494916	-0.7798531553898306
O	11.153853443864408	3.1945722694949152	-2.4798418963898308
O	12.079969143864407	1.8669274294949156	0.9790518636101695
O	8.495155793864408	0.8094801232949155	1.5772984536101695
O	8.282386833864408	-1.0652786505050846	-1.6843693263898305
O	11.562358643864407	-2.9997290405050845	-1.5180305863898305
O	11.931877543864408	-3.4772002605050845	2.179664553610169
O	9.450884603864408	-2.1763168405050846	4.6681767936101695
O	6.189071713864407	-3.6632714405050844	3.4548334536101692
O	7.838446953864407	-7.0978049305050845	3.1750623236101694
O	9.337665673864407	-6.8497027505050845	6.666181453610169
O	5.893604193864407	-6.031357790505084	8.18243979361017
O	4.182501273864407	-8.670434700505085	6.008889723610169
O	0.9647836538644072	-11.174216060505085	9.213187193610171
O	-7.196295396135593	-8.092928360505086	6.08831427361017
O	-7.301844236135593	-8.868659900505085	9.83752743361017
O	-3.6240670661355927	-9.922136960505085	9.302466693610171
O	-2.5807306161355927	-6.659187750505084	7.52278035361017
O	-1.8176871261355927	-8.559914430505085	4.232080163610169
O	-5.059949296135593	-7.845679690505084	2.331620733610169
O	-3.039714536135593	-6.396229860505084	-0.5742750063898305
O	-2.1118767161355927	-9.911108060505086	-1.7142776963898305
O	-5.7796189061355925	-10.745753860505085	-2.1906163363898306
O	-5.218114556135593	-8.783053490505084	-5.4049944063898305
O	-3.926926356135593	-12.105437760505085	-6.65300381638983
O	1.4644260038644072	-0.35115890050508447	-8.21088055638983
O	2.289413653864407	3.2287176994949154	-9.19814557638983
O	2.965423263864407	5.330900159494916	-6.137037506389831
O	4.318402833864408	8.747133679494915	-5.181576436389831
O	5.2297627238644075	9.944468299494915	-1.6406053163898304
O	7.355468113864407	8.200388789494916	-8.50816306638983
O	7.843113793864408	4.393906519494916	-8.65145015638983
O	6.195282463864407	-1.8217943705050845	-8.59860607638983
O	-0.8113671831355929	8.727235339494916	-3.842172016389831
O	-1.0862905761355928	5.181316769494916	-5.10561644638983
O	-2.702622346135593	3.4236586194949155	-8.08484893638983
O	-3.0748275561355927	-0.32354457050508445	-7.987015176389831
