73

O	-2.3004864447216677	-1.6330927307333334	0.3855157693983329
O	2.044445615278332	-0.3807426707333332	0.49016823639833285
O	1.2971615852783323	-1.131521780733333	-0.19947220770166713
O	-3.656104244721668	-1.4691236707333333	0.5335464473983329
O	-4.201871274721668	-0.3700940927333331	1.130165275398333
O	-0.0020380747216679485	-0.9944412107333331	-0.22524671160166715
O	-0.42599015272166785	-0.2561507937333331	0.8292424813983329
O	0.37995843527833206	0.5560245622666669	1.647146145398333
O	-1.656423179721668	-0.8966743307333331	1.348794625398333
O	1.6918440152783323	0.6556381592666669	1.2542895553983329
O	-3.420544854721668	0.1492864612666669	2.1589067653983327
O	1.813331445278332	-2.2157743407333332	-0.8583232346016672
O	-2.153125704721668	-0.3697552577333331	2.4720690853983327
O	-4.343702254721668	-9.964802080733332	0.3693394033983328
O	-2.1592359747216676	-7.6425494007333326	-1.7531678446016672
O	1.056240655278332	-9.557337060733332	-0.9263335336016671
O	0.19683998527833202	-9.218452040733332	2.7646821153983328
O	-0.39381369772166785	-5.418783100733333	2.278999445398333
O	2.9826741952783324	-5.285587460733333	0.6951441563983329
O	4.580475595278332	-7.228248780733333	3.504303535398333
O	3.1246570152783324	-4.782978200733333	6.1103393953983325
O	4.493054585278332	-1.8555935807333332	4.070469135398333
O	7.913555745278332	-3.5449758107333333	3.8428445253983328
O	7.843449945278332	-4.213063400733334	7.645854295398332
O	7.061732765278332	-0.46454577673333314	8.185967745398333
O	9.998010295278332	0.9343237162666669	6.210760095398332
O	12.187505595278333	-1.7209560507333332	7.763071765398332
O	11.528720295278333	3.027769479266667	10.435995805398333
O	1.177977435278332	-6.056782610733333	-11.188990994601667
O	2.192468185278332	-6.495795720733333	-7.566089224601668
O	5.305794885278332	-4.424826800733333	-6.912956524601667
O	6.890496715278333	-3.7180365107333335	-3.554145524601667
O	9.658313695278332	-1.4883094807333332	-2.193309274601667
O	7.854001865278333	-0.8239612107333332	1.0573020453983328
O	7.165654485278333	2.485795469266667	2.724215835398333
O	4.881781115278332	3.8756946692666667	0.008363824398332859
O	1.8138750552783323	6.091475199266667	0.39060683139833285
O	1.497546365278332	9.820445959266667	0.6865624353983328
O	-1.2000442434216678	11.859966819266667	-1.0261856216016672
O	-2.903503714721668	12.070308419266668	2.400890595398333
O	-3.0814593747216676	8.259662589266668	2.638231225398333
O	-4.666669704721668	8.036927909266668	-0.8063887626016671
O	-7.348475464721668	10.723227019266668	-0.5153327046016671
O	-8.098915294721667	10.602674419266668	3.165317375398333
O	-6.372575174721668	8.262067499266667	5.566770995398333
O	-6.968410834721667	4.871052379266667	4.016947365398332
O	-9.534621864721668	3.6771896792666667	8.590654215398333
O	-11.460011404721667	1.517365549266667	6.092424295398333
O	-8.132703634721668	-9.306291030733332	5.393759675398332
O	-9.126971884721668	-10.043397180733333	9.051187955398333
O	-10.978066494721668	-6.661198630733333	8.741677065398333
O	-7.9556770947216675	-4.692750520733333	7.3708553853983325
O	-9.725480634721668	-4.047013760733333	3.9162528353983332
O	-8.139153124721668	-6.789397900733333	1.8321990753983328
O	-7.132525974721668	-4.3187196707333335	-0.8560211656016671
O	-10.679502534721667	-4.2402677507333335	-2.241352364601667
O	-10.556703814721669	-7.960453040733333	-2.9919439946016673
O	-8.624717094721667	-6.762186330733333	-6.0673871646016675
O	-12.085966304721667	-6.190406150733333	-7.468487464601668
O	-1.8533583667216678	2.1266220192666667	-7.811325814601668
O	1.4393452652783323	3.8850744892666667	-8.347114474601666
O	3.0944832252783323	4.781022139266667	-5.072983924601668
O	6.003216215278332	6.841408939266667	-3.7435222646016673
O	6.728321855278332	7.725840939266667	-0.06491651750166713
O	4.932683725278332	9.925728519266668	-6.894314994601667
O	1.1423402052783322	9.493019739266668	-7.3194572746016675
O	-4.471383424721668	6.377385189266667	-7.896473454601668
O	10.075833895278333	4.196893779266667	-8.783691744601667
O	10.021014895278332	4.198771699266667	-3.0662492546016673
O	7.208850685278332	1.7672887092666667	-2.7804412046016673
O	3.925902895278332	0.7643747522666668	-4.379674264601667
O	2.7737573852783317	-1.0029309707333331	-7.555858534601668
O	-0.7569273377216679	-2.278779670733333	-7.737874564601667
