18

O	4.002654469735658	10.190923226886413	23.41588622838671
O	1.2695050587816707	9.271376217284201	25.993900043803414
O	0.4801463639050425	12.073204512471511	23.571183151913193
O	2.5386499178400332	15.018877476161013	21.600583732715922
O	0.24758696038628092	9.9780961229226	25.143126299692188
O	-2.045590915482645	11.934583986560813	23.671976775461737
O	4.515035311322818	15.92435423687035	21.866176836300628
O	1.362063347051227	10.342298344282682	24.27153075130521
O	-0.7813877755834762	10.755312269629314	25.099623533124984
O	1.686443936450583	11.665548644579497	24.125032824706903
O	3.899716790027009	14.86165268796184	21.831718257937627
O	-0.7344184723680789	11.719418880377479	24.138850775063155
O	3.055159097938673	12.202950372234081	24.469122016077705
O	2.923411282259104	13.494657813479064	24.940006863150032
O	3.6654785067838445	14.40159994321241	24.14110876910384
O	4.248081669011366	14.08857984462865	22.958209867814066
O	4.735129398968885	12.834876141017498	23.032830484441597
O	4.231336057592964	11.890021395765944	23.88759862737687
