37

O	-1.5054339740959404	10.103351781940288	27.63778810466036
O	-1.763404117982512	9.030847358395828	26.8761815321032
O	-0.5931315767300425	8.483219555587496	27.298505181117264
O	0.39189103885037824	9.296866049923935	26.528025657099963
O	-0.43106718310702014	10.309708916093257	26.772895972329717
O	-0.6185729366838799	11.21917788982003	25.689104202557036
O	1.755037681532902	8.916981214413035	26.613578016991042
O	-0.1465152581240337	7.318483163635461	28.047515796514226
O	2.192815821159687	7.672506576811991	26.2512122334121
O	3.481604935338271	7.27742390442114	26.066831107999143
O	4.549821587890132	7.99089171018764	26.51086284849589
O	4.126206583362586	9.084697806727188	27.176926867590506
O	2.8203704560431295	9.572022319213211	27.203247682040562
O	0.7300934462499109	11.804291631986016	25.534233649031474
O	0.525944675513811	12.673329733753945	24.533260433874084
O	-0.6987714982445874	12.810828689353707	23.793950803736276
O	-1.8583214106618449	12.014486203220052	23.8986094873425
O	-1.8468998859665204	11.303522143459992	25.026580204014564
O	-2.9582232638271253	11.158224289253322	25.88262666323537
O	-0.8672236944116336	12.67215762760751	22.377145661227807
O	1.5890743717204836	12.060991647542242	23.78705611768463
O	5.709106417041183	7.580212742969463	25.927846988998887
O	5.667369615373992	6.509873222210792	25.02754416685392
O	0.33100163019498663	7.17646983607811	29.356307232239466
O	1.816404461864837	6.890380667990629	29.551252260585365
O	-0.08432607504106698	8.11680695043177	30.10340518333073
O	2.405833606539542	5.549694713192606	29.62041932488949
O	2.423959047352961	6.426175783300664	30.79977810676285
O	0.9508976731760501	9.570727969967557	23.82915025701286
O	-0.0059163145430330966	10.271080996409857	23.483384884443222
O	0.9539569377941599	11.218420843251154	22.74413217206266
O	2.207634644275239	10.008585240887493	23.95798321245336
O	2.4685293043594068	11.277493002789633	24.38487176249434
O	3.4617550484760136	11.871014164189402	25.050470211044782
O	4.727682771174296	11.294441134588407	24.92349775033079
O	4.71673064427243	10.072286389146246	24.31996255710668
O	3.5185833352871003	9.452797661567391	23.88379729025253
