76

O	-1.3332998922281252	1.3013349356640616	0.3925936214218752
O	-0.23725866822812525	0.6770201166640617	-2.764818582578125
O	-2.0567732972281254	0.8692769026640617	1.5084402874218752
O	-2.619594278228125	-0.7728122793359384	3.006627357421875
O	-2.097443566228125	-0.4729497873359383	1.7709844674218753
O	-1.3001005614281254	-1.2909922393359383	1.0136564774218753
O	-0.8521618452281252	-0.9080761893359384	-0.20624333157812486
O	-1.2962892552281253	0.7035315116640617	-2.067752782578125
O	-3.0835822682281253	1.8074348606640618	-1.0216438045781249
O	0.16839688177187484	-1.5205466293359384	-0.9613192965781248
O	-2.2158176232281255	1.8274871206640617	-2.294322842578125
O	-1.0876441232281253	0.3684515966640617	-0.6266231575781248
O	-8.141850938228124	-5.881862719335938	4.890569147421875
O	-4.684806858228125	-4.315510479335939	5.030291917421875
O	-2.869416598228125	-7.567531289335939	4.095726507421875
O	-5.200779968228125	-7.868124519335938	1.0980413374218752
O	-4.4164376582281255	-4.245310989335938	0.06954563742187514
O	-0.7239505052281253	-5.211153989335939	0.2969665144218751
O	-1.2704333226281253	-8.312760949335939	-1.7951844725781247
O	-3.0459586882281253	-6.280717449335938	-4.564977012578125
O	-0.15822022822812531	-3.7793014293359386	-4.568733162578125
O	2.392615761771875	-6.628922689335939	-4.765104032578125
O	0.3883955717718748	-8.21862137933594	-7.660515712578125
O	0.4699003017718748	-4.793944409335938	-9.458726742578126
O	4.237217611771874	-4.290744779335938	-9.345835682578125
O	4.712787991771875	-7.948804379335938	-10.254994682578126
O	4.142048611771875	-4.305935559335938	-14.312935022578126
O	7.643262561771875	-5.814649259335939	-14.090955422578125
O	4.773219941771875	-8.451870289335938	3.671990407421875
O	3.9647285217718746	-7.377316199335938	10.310649177421876
O	5.801383481771874	-5.396097989335939	12.967746777421874
O	2.9579993617718747	-1.6909514693359384	11.172463277421874
O	1.9736219217718747	-3.4796261693359387	7.958985457421875
O	4.829090091771874	-3.2406873393359383	5.493380297421875
O	4.786255891771875	-4.219605589335939	1.8711207874218752
O	7.134079851771874	-3.8994682193359385	-1.114922591578125
O	4.267615581771874	-3.429075809335938	-3.543500112578125
O	3.8090644617718743	-0.7763423793359383	-6.146606262578125
O	3.5573067417718747	2.1380801006640615	-3.729478772578125
O	1.4272203617718746	5.254196220664062	-4.026549522578125
O	2.099680471771875	8.54415721066406	-5.820535732578125
O	1.1897548117718746	11.935942390664062	-4.387570222578125
O	-1.7744614902281253	11.928889590664062	-6.8175595925781245
O	-3.0950830282281254	8.688344020664061	-5.352116792578125
O	-2.8889470782281252	10.088099660664062	-1.8135232925781248
O	-4.552973158228125	13.46469939066406	-2.341587162578125
O	-7.223976518228126	9.268494750664061	-6.741903162578125
O	-7.922330198228125	7.027546900664062	-3.775304102578125
O	-13.456624188228126	-5.009383659335938	1.5812679974218753
O	-16.107054688228125	-6.143231809335939	-0.9419299155781249
O	-16.583474588228125	-2.3632345893359386	-1.5025672725781247
O	-12.836940188228125	-1.6138972093359383	-2.110059282578125
O	-12.669690288228125	0.6032392766640617	1.1189979574218751
O	-11.135455248228125	-1.9026882893359385	3.538160157421875
O	-8.349326678228126	0.5094282112640617	4.412996797421875
O	-10.671466218228126	2.5194139606640613	6.666119827421875
O	-7.864926088228126	0.5103334395640616	10.307938477421875
O	-9.967461998228126	2.8933852506640614	12.346229277421875
O	1.0787272117718747	5.714272700664061	5.755568877421875
O	4.593079181771874	5.944972960664061	4.389224217421876
O	4.7416630917718745	5.099188140664062	0.7141729474218752
O	7.102420601771875	5.229532710664062	-2.249131242578125
O	6.2060860917718745	4.646873830664061	-5.941285772578125
O	8.530392121771875	9.211078130664061	-0.5842166525781248
O	5.4119169217718746	10.596555190664061	1.1887317074218753
O	0.06522142177187473	10.503452590664061	4.817665607421875
O	14.100465311771874	5.754900450664062	2.4697209374218754
O	12.134898411771875	2.586068240664062	1.8246865974218753
O	13.004211611771874	1.6833319106640616	-1.7585394225781248
O	9.438209811771875	1.0380056496640617	-2.969832682578125
O	6.232564051771875	0.0995326426640617	-1.2481866335781249
O	3.9552138817718747	1.0791775706640618	1.6028443674218753
O	4.023789031771875	0.9534989686640617	5.418940947421875
O	0.7468319517718747	1.4472342436640617	7.251818237421875
O	1.5252576517718748	2.3895857806640617	10.872197877421875
O	-1.836151858228125	-14.894138809335939	0.5301080884218752
