28

O	0.4077162153982129	11.387897448327399	22.942591008952935
O	-0.8487192009305113	11.881947210285121	22.731117754199957
O	-1.7715796720381596	11.407834936084816	23.663805251206238
O	-1.30842672236471	11.412089328803757	24.881744694339332
O	0.11071727644486223	11.770566784353955	25.043257605692723
O	1.0573853098660404	11.259610715820177	24.17977639443116
O	-2.302929904488611	11.068776062841847	25.832297748245573
O	-1.4110563402423681	12.58461117243392	21.709495762402515
O	2.289882968551783	10.5541840290751	24.560452701417702
O	3.4969198214476434	11.182944075449985	24.710064675820934
O	3.4078141632377514	12.413496678379634	25.270535544010247
O	2.5636467969483485	13.267265346711575	24.570404319370898
O	2.9446517207655285	13.248204768987717	23.249715973807156
O	3.124195378397463	12.06911655803885	22.631766243331803
O	3.9148662367190292	11.226310146881472	23.437268418436084
O	2.3071677778518707	14.238685637597193	22.546804217610863
O	1.3222371714492709	13.964367077034394	21.712530779055236
O	3.2331540356769874	14.931364619442451	22.130898444154457
O	0.49730436910339815	11.206393285038654	26.39297671259296
O	-0.31753328618345633	11.365171060902808	27.456199812366656
O	-0.8025020887849477	10.268859923595574	27.866358227577823
O	-0.4965415674627378	9.41405555776559	26.735027803091462
O	0.824185498984124	9.929717626892936	26.498669368049438
O	-0.35389907165638357	8.163758464001702	27.39309497249321
O	-0.2422180657623384	7.766725565649601	28.84119299256143
O	0.8188264229381377	6.91054446583353	29.47338778324106
O	1.8901849381976825	7.85215149941248	29.982876585861664
O	0.7556844180787685	7.556747761241448	27.028698389861454
