77

O	-0.35928683545901674	-1.4809874628196722	-0.6803017309016395
O	0.16835730554098327	-2.773568462819672	-0.5224022669016395
O	1.5619304055409833	-2.876562352819672	-0.5394255529016394
O	4.131002025540983	-2.446896702819672	-1.6839283559016394
O	2.2472497955409834	-1.7091847828196722	-0.5443843769016394
O	1.715873355540983	-0.7802196818196722	-1.4404132359016393
O	0.3646825075409833	-0.6607523878196722	-1.4785150559016393
O	-1.3970831284590166	-0.8663589308196721	-0.05418259690163943
O	4.655942585540983	-2.999855282819672	-3.8918768159016395
O	3.892296105540983	-1.998249032819672	-3.0190950359016395
O	3.789685215540983	-3.858499892819672	-1.5086121959016394
O	3.349746845540983	-4.591320452819672	-2.7257803859016394
O	3.687247575540983	-1.7346085628196721	-0.5154866059016394
O	-0.8156259484590167	-4.992664932819672	-0.5685338239016394
O	4.1872965955409835	-0.6022610528196721	-0.5299651769016395
O	-0.7185903794590167	-3.6870872028196717	-0.009031963901639462
O	-7.727599904459017	-4.588481082819672	-6.381180515901639
O	-6.880301024459017	-2.2146640428196718	-3.5240120559016397
O	-6.903908924459016	0.8848425571803278	-5.7681302759016395
O	-4.510038854459016	-0.9189639568196721	-8.11435769590164
O	-2.214851694459017	-1.773797852819672	-5.141105005901639
O	-2.3358012944590167	1.971391637180328	-4.286075075901639
O	-1.5253557894590166	2.963668087180328	-7.854143835901639
O	1.5121836355409832	0.6159939651803279	-7.966144005901639
O	2.744645735540983	2.094321547180328	-4.649072315901639
O	2.284396495540983	5.617209507180328	-5.938452575901639
O	4.206940265540983	4.643367777180328	-9.14841836590164
O	7.046296085540983	3.236078437180328	-6.912138875901639
O	7.590856595540983	6.368900747180328	-4.83254385590164
O	7.285002885540983	8.470114837180327	-7.983168325901639
O	12.212944075540983	6.444970437180328	-6.644410725901639
O	11.965349975540985	10.243743627180327	-6.313630385901639
O	-11.856790624459016	6.719379447180328	-0.5239173859016395
O	-13.448548024459017	7.378612497180328	2.8566147940983604
O	-10.867790024459016	3.237465087180328	4.065494024098361
O	-8.603938304459016	3.303620047180328	1.0199304840983605
O	-5.854645224459017	5.852521587180328	1.5740794940983607
O	-2.788952584459017	6.3701737571803285	-0.5414329139016394
O	0.40252546554098334	8.460394877180327	-0.3311529399016394
O	2.479267835540983	5.788482757180328	-2.0393109759016395
O	5.739527855540983	4.337711477180328	-0.9576661369016395
O	4.406575165540983	2.6192350571803282	2.1782628140983604
O	5.467275725540984	-0.6166753348196721	3.7947275240983607
O	8.338250105540984	-1.4016238428196721	6.160753984098361
O	8.020482785540985	-3.7725295028196717	9.10641480409836
O	9.919502675540985	-6.331017202819672	6.979550994098361
O	7.290053595540983	-6.138341912819672	4.248762884098361
O	4.479143095540983	-6.707164682819672	6.7392762340983605
O	5.897665185540983	-9.670284642819672	8.661092594098362
O	8.260727475540984	-10.049828362819673	2.4853885140983603
O	4.644993025540983	-9.817971662819671	1.3929112440983606
O	-5.0222629144590165	-9.587087992819672	-9.138222345901639
O	-3.3678949744590168	-11.340145372819672	-12.11340338590164
O	-1.6387657244590166	-13.430432972819672	-9.381390245901638
O	-0.3528013444590167	-10.386023972819672	-7.3630060159016395
O	-2.597542234459017	-11.353681172819671	-4.300135475901639
O	-5.5169805844590165	-8.986126522819673	-4.865765795901639
O	-5.171996184459017	-7.622661812819672	-1.3472105359016393
O	-6.937272544459017	-10.683280172819671	0.10377500709836057
O	-10.652437524459016	-7.419920622819672	0.9423642540983606
O	-12.025676524459016	-10.442994672819673	2.7396129340983606
O	-3.536270864459017	-1.530126132819672	7.473875964098361
O	-1.7577121944590166	1.572643907180328	8.68683514409836
O	1.4053474255409832	2.2391761071803282	6.753333024098361
O	4.516674445540983	4.3990686671803285	6.813028594098361
O	7.653706325540983	4.002604067180328	4.634557284098361
O	4.470737815540983	3.8480479271803283	11.325954014098361
O	2.887768725540983	0.37351619918032786	11.769952014098362
O	-1.1883950754590167	-4.517823832819672	10.67599081409836
O	0.46062360554098325	9.942290327180329	8.241251244098361
O	3.6199058155409833	11.243451027180328	6.582176904098361
O	4.080484995540983	8.373635347180327	4.087570614098361
O	1.760555925540983	5.851144857180328	2.5393463540983605
O	-0.8766224764590167	3.3056623671803282	3.4053726140983605
O	-4.476154824459017	3.258567947180328	4.687596874098361
O	-6.435407284459017	0.03193316518032789	4.3518527940983605
O	-5.977695274459017	5.237707667180328	-12.71810878590164
