23

O	7.033702513120382	11.969953963100604	24.230001860816774
O	2.043634482368025	13.683896631410352	24.86270982850476
O	4.880320348543432	10.319020115921267	24.521123523809546
O	0.13410195608284847	11.193830318809288	24.66650452734864
O	5.376834758368354	11.592010026567234	24.596883917273882
O	-2.0623341255151284	11.690076575416812	23.873825946110504
O	4.456799324373183	12.6021866194122	24.562054304494435
O	-1.549735248776154	10.338439855912062	25.72202004415813
O	3.1311457583489717	12.332615562874043	24.9243793796612
O	1.7059542282497278	8.85415219805342	26.00861065179383
O	3.4923964948066515	10.102483888188774	24.419757227177975
O	1.8257330637525335	8.192168305588856	27.0342341531375
O	2.57429252911237	11.082147927795944	24.797671717056115
O	1.2143697526898305	10.725593801676295	25.357375172842524
O	-1.155635555219241	11.245018042820082	24.851606483069798
O	0.775198293043699	9.94133225756216	26.325331807508107
O	-0.5988666430406481	9.66406954129837	26.476351016827937
O	4.528937930233372	6.0591878855380354	25.862983613931473
O	3.445441551853578	6.936686520633221	25.633631101341457
O	3.0878874701076167	7.481793749540191	26.890914430016498
O	4.173440766106397	8.346094196109881	27.18009061597584
O	5.206538196181521	7.466716203958138	27.5712099404828
O	5.615883231432045	6.698505770501125	26.474379699558067
