93

O	3.520082597281251	-3.26860987134375	-0.7278204268765625
O	-0.429762140418749	1.48824144065625	-2.107920077876562
O	0.248734621281251	2.43800726865625	-2.8018227778765623
O	1.232234527281251	1.4569761046562502	-2.9669160778765624
O	2.052858767281251	0.8737667856562501	-1.8673517018765624
O	1.5352622172812511	1.39153428365625	-0.6801087808765625
O	0.13336535128125104	1.33759271965625	-0.8412447398765623
O	1.998351677281251	-0.5618070513437498	-1.8890680998765625
O	0.8486289172812511	-1.2434400013437497	-1.8263594218765624
O	2.641575387281251	-1.5902651113437498	-2.2710898778765625
O	1.003229137281251	0.6734250868562501	-4.161888697876562
O	-1.217659801718749	0.6320527369562502	-2.7763799278765626
O	0.5701355272812509	-1.67917549134375	-3.131618577876562
O	1.8639197572812511	-1.65901874134375	-3.3880736778765623
O	2.203436577281251	-2.66766904134375	-4.015035257876562
O	3.5349869372812512	-2.05341689134375	-1.3159295248765623
O	4.410311327281251	-1.29277664134375	-0.47318117287656236
O	5.50742055728125	-1.9214689213437501	0.11949924212343754
O	5.169720417281251	-2.89800456134375	1.1013866621234374
O	-0.023446800718748995	0.4787630356562501	0.2673659521234375
O	1.1217732172812511	-0.2501354873437498	0.8802681421234375
O	-0.347043535718749	1.16388514665625	1.3286119521234376
O	1.975226917281251	0.7850922695562501	1.5732334121234375
O	1.969770417281251	0.07515676765625012	2.933763592123438
O	4.395810327281252	-3.76744245134375	0.24022756212343754
O	1.146183157281251	-1.6219927113437498	1.2077511221234374
O	4.272678657281251	-0.19210751034374984	2.593817272123437
O	2.989194017281251	-0.9420891713437499	2.478724622123438
O	3.9981168172812507	-0.03744220234374984	-0.3925081568765624
O	4.635788907281251	9.97786646865625	-1.1011011627765623
O	1.4089263272812511	8.04560111865625	-1.8090115838765624
O	1.6425287172812508	8.503507238656251	-5.605754347876562
O	5.171461767281251	7.15378982865625	-5.443150047876562
O	3.851093607281251	4.13285767865625	-3.4091560678765624
O	1.308096607281251	3.51095539865625	-6.134287277876562
O	3.870282737281251	3.9171881586562503	-8.886626227876562
O	5.987201357281251	1.21427961265625	-7.061542417876562
O	2.974707137281251	-0.9730121813437499	-6.777112287876562
O	2.185723947281251	-0.48340221134374983	-10.510779107876562
O	5.844243747281251	-1.1567423213437498	-11.540333697876562
O	5.623368837281252	-4.4455870313437496	-9.518708187876562
O	2.541672047281251	-5.88350619134375	-11.256063097876563
O	5.37761187728125	-9.69156978134375	-12.751160597876563
O	-8.62042748271875	8.92410176865625	-2.4179256378765626
O	-5.513194032718749	7.72415421865625	-4.174037227876562
O	-6.398971152718749	4.73640888865625	-6.307436357876562
O	-4.026845922718749	2.47913676865625	-8.059943187876563
O	-0.9372436227187491	-1.92933843134375	-8.710258807876563
O	-0.12060953271874897	-5.25497520134375	-7.312192947876563
O	-2.175861972718749	-4.8788338413437495	-4.157997117876563
O	-1.448040584718749	-5.98689996134375	-0.6310906718765624
O	-2.156804312718749	-9.43200368134375	0.9895818621234376
O	-3.446425972718749	-9.870979181343749	4.525382462123438
O	0.09711335328125104	-10.84836998134375	5.574760452123438
O	1.384983467281251	-7.52686529134375	4.293603362123438
O	-1.193963314718749	-5.61911511134375	6.2888191621234375
O	-0.805917622718749	-7.27614739134375	9.650612002123436
O	2.820904427281251	-8.22188116134375	9.566389802123437
O	5.11572358728125	-7.58098420134375	6.708455082123438
O	4.808538107281251	-3.8666601113437498	6.241748592123438
O	5.324825987281251	-3.27271456134375	9.967435802123436
O	10.066313487281251	-3.5946950613437503	7.171458282123438
O	8.89695881728125	-0.23494312534374984	8.500494562123437
O	13.04728528728125	2.79093658865625	8.126033912123438
O	10.18112488728125	8.68055314865625	1.6410741921234375
O	13.99475808728125	8.29394763865625	1.6111990121234376
O	13.335695187281251	5.89612068865625	4.566742732123438
O	10.637223687281251	3.7861107386562503	2.7908402921234376
O	7.857318167281251	4.90438168865625	5.265614802123438
O	6.2550163272812505	7.67129231865625	3.235714712123438
O	2.838408277281251	6.21180347865625	3.7561021821234375
O	2.661249037281251	7.69105333865625	7.323396472123437
O	2.914101347281251	11.17982671865625	5.927639832123438
O	-0.8077389377187489	10.62611386865625	5.235414572123438
O	-1.200226385718749	11.66017601865625	8.840227922123438
O	-6.852033782718749	1.3895939896562501	2.766728282123438
O	-8.768025142718749	-0.9655324813437499	0.5379485721234376
O	-6.463865862718748	-3.4062335513437496	-1.2108773388765623
O	-6.700964302718749	-6.52091814134375	-3.3221410278765626
O	-3.8234349927187488	-8.81760132134375	-4.3759413178765625
O	-10.106899672718749	-7.84827752134375	-0.6221303478765624
O	-9.24508121271875	-6.20507607134375	2.7347126221234372
O	-9.95273209271875	-2.95052424134375	4.509798122123438
O	-7.23953575271875	-1.58414747134375	6.787910692123438
O	-5.178850182718749	-0.2537234963437498	13.405202302123437
O	-8.19263211271875	-5.09415072134375	9.363963702123437
O	-14.81044891271875	-5.44138414134375	-5.521303197876562
O	-6.690344632718748	-5.5944524413437495	-8.089015967876563
O	-4.868130062718748	-2.72188443134375	-6.471460537876562
O	-4.888104572718749	-0.32073459134374993	-3.569966347876562
O	-7.165172872718749	2.6737483586562503	-2.6844036178765625
O	-5.982375212718749	4.97238318865625	0.09268927212343758
O	-8.87934692271875	7.00597771865625	1.4452121421234374
