77

O	-1.8040327593387095	2.2981350697338705	-1.188415931870968
O	1.3059596706612902	-0.5782384402661294	1.736034388129032
O	1.2771048306612904	-1.8388365202661292	2.088114878129032
O	-0.1489522793387097	-1.1920773802661293	0.4023735721290322
O	1.0674604706612905	-0.7583821002661293	0.40970810582903217
O	-0.3482844503387097	1.0858215257338706	1.1121760431290322
O	-0.6862354803387096	-2.349357710266129	0.12697358912903217
O	-1.2495128160387097	2.2308257097338706	1.4599747591290322
O	-0.9502407253387097	-0.035335995266129405	0.49268377452903217
O	-1.4110455723387096	2.6991411997338703	2.7332334381290324
O	0.6101350206612903	0.5264427755338706	1.8396290381290323
O	-1.4340737223387097	4.095116379733871	2.8095114081290324
O	-2.3906279593387096	4.594729129733871	1.921363448129032
O	-2.5378531393387096	4.034853569733871	0.6818015571290322
O	-1.8934346433387097	2.850787879733871	0.4455304434290322
O	-9.32354123933871	-3.6309176302661292	4.331077728129032
O	-6.785876739338709	-4.17477877026613	1.5359173481290322
O	-5.24509127933871	-7.26008818026613	3.1671021781290323
O	-4.837467199338709	-5.27517521026613	6.372209758129032
O	-3.1220396893387097	-2.480386080266129	4.370667668129032
O	-0.8032948553387096	-5.1857290102661295	2.9528297781290322
O	-0.11487276933870971	-6.554513440266129	6.393462408129031
O	0.8522757206612903	-3.0463493402661292	7.704667408129032
O	3.17678432066129	-2.6067863902661292	4.680807948129032
O	4.733978370661291	-6.05270936026613	5.256342588129032
O	5.16198488066129	-5.15646608026613	8.974762338129032
O	6.93204598066129	-1.8987813202661294	7.9199950581290315
O	9.544177630661292	-3.48025119026613	5.6537422181290315
O	10.02421093066129	-6.22335227026613	8.211096178129033
O	12.94736513066129	-1.6009455102661294	8.718106748129031
O	-5.49041606933871	-8.30307072026613	-7.548981671870969
O	-4.11774506933871	-8.035422770266129	-4.039448501870968
O	-0.36876790433870965	-8.42636556026613	-4.214281171870968
O	2.0345435806612904	-7.810810830266129	-1.3980056718709677
O	5.83163494066129	-7.69910841026613	-1.023523781870968
O	5.65959319066129	-5.022965030266129	1.6127681381290322
O	7.4637792506612906	-1.7307651002661293	1.7628382481290323
O	5.90888415066129	-0.2012955632661294	-1.3406665018709676
O	4.950191900661291	3.4068433497338706	-1.9756207418709675
O	7.06066973066129	6.280972449733871	-3.2436518818709676
O	5.86625839066129	8.869157929733872	-5.749096581870968
O	5.51501186066129	11.259204759733871	-2.779045951870968
O	3.1384068906612903	8.849957449733871	-1.010670161870968
O	0.9736810206612905	8.56742090973387	-4.128760721870968
O	0.6160568206612904	12.239726759733871	-5.052005281870968
O	0.8426402806612905	13.85275635973387	-1.6675028018709677
O	1.3570813306612903	11.953440359733872	1.544502608129032
O	-1.5353306643387097	9.554714159733871	1.4536557831290322
O	-3.0899093293387097	11.812271359733872	6.051681728129032
O	-6.43751844933871	10.719884859733872	4.5599200381290315
O	-10.595752029338708	0.9642487337338707	8.477835698129033
O	-10.78413347933871	2.3573365897338707	12.040696198129032
O	-10.282832699338709	5.74874132973387	10.287341648129033
O	-7.1598421693387095	4.657225209733871	8.311838858129033
O	-9.02502047933871	5.0983085197338704	4.8934832981290315
O	-10.00088020933871	1.4842957867338706	4.208921668129032
O	-8.41399999933871	1.6307004197338706	0.7786709461290322
O	-11.38539716933871	3.531031319733871	-0.6441819518709678
O	-13.68464136933871	0.6288607632338706	0.20488355112903217
O	-12.21473376933871	-0.8142792902661293	-3.0210057318709675
O	-14.859120969338711	1.3390841307338706	-4.662456921870968
O	-2.1155565243387096	0.36105989373387065	-8.007893461870967
O	1.3253990906612905	-0.7350776602661293	-9.068082661870967
O	3.94867038066129	-0.11725884426612931	-6.445539151870968
O	7.712634500661291	-0.1214770392661294	-5.948516001870968
O	9.625932930661289	1.2419012827338707	-2.9036803218709677
O	7.98778602066129	1.6459820697338707	-10.126601601870968
O	4.72232678066129	3.6494693197338703	-10.455798601870969
O	-1.5769006253387097	4.94150729973387	-9.907080001870968
O	9.26148613066129	-5.01115249026613	-12.673545701870967
O	7.98440015066129	-6.24657315026613	-9.327388051870969
O	9.34983473066129	-4.316863250266129	-4.123329201870968
O	5.8009439206612905	-4.0744801802661295	-2.9589810518709676
O	2.2838832406612903	-3.1263310702661293	-4.043338661870968
O	-0.3803460033387096	-4.66699247026613	-6.249506841870968
O	-3.8866239993387097	-3.314381920266129	-6.028501101870968
O	-2.9569014293387097	-12.244202240266128	9.334862688129032
