28

O	1.9595331403307101	13.648559466943315	22.996431826060363
O	0.7337341068438391	12.433546614376079	23.35909327806992
O	-0.3658259386961903	9.522321948421782	28.351844797836286
O	1.507970310588861	4.860490713694597	24.22611236500885
O	-0.38611730862232607	12.21125432090453	22.617268324475187
O	-1.0788454749653082	10.322974349482276	27.54604812129301
O	-0.6019982796384188	13.057958797799323	21.532101174399035
O	-1.5585609696558715	11.689144142616941	23.16863246640045
O	3.033659851310966	9.601461887714995	26.025294926216688
O	-1.4286722331573172	11.088248141714868	24.417056254786313
O	1.9339958353530635	4.979990708866501	25.890051866355364
O	-2.6138888981564943	11.112378604910985	25.195538590785766
O	-0.19002192324749345	11.170617093841987	25.090722274844357
O	1.9771190417798183	7.938191210988055	26.89262305912557
O	0.9516973374030624	11.67930712755046	24.45542700484716
O	2.725271986637778	4.319149203716081	23.58413241539778
O	-0.27478097381514577	10.458976824079695	26.332816926995747
O	0.26357971649705403	4.137271548439423	23.949837635947034
O	0.9253936517969076	10.185097136765542	26.854365988362115
O	0.8825434205575979	10.235084180476044	28.4059320491981
O	1.6809970785421964	9.109050677379667	26.494182891117436
O	2.666442908067618	8.707726503110788	23.8282414215836
O	2.669586282007754	8.209879323320012	22.57421034303932
O	2.1018221862802626	6.919226832752241	22.42986628347823
O	1.3044641078116674	6.406085798531632	23.46567594837273
O	0.5537607206205483	7.423895251448167	24.053433491014317
O	1.3361438633943004	8.56036285985612	24.25936482846066
O	3.6522252920661864	9.170504067487544	24.808933829892784
