88

O	-2.4767112388986297	-1.6935418972328773	1.685621307315068
O	-1.8618412448986295	-2.341976357232877	2.778276207315068
O	-1.1804505372686296	-1.348466677232877	3.332840537315068
O	-0.4725914238986295	-1.0387360672328771	2.258830637315068
O	-1.3083189798986294	-1.207617377232877	1.121385837315068
O	0.6397439411013706	-0.04193905023287714	2.403717797315068
O	0.6358219811013706	1.060569849767123	3.079797847315068
O	1.6155402811013704	1.8732079427671229	2.469920897315068
O	2.1380965711013706	0.943755505767123	1.6578580773150682
O	0.9923407911013706	0.4757669997671229	1.014265817315068
O	-0.2402708678986295	1.254648291767123	0.8208622573150681
O	-1.0404495938986296	1.9047895027671229	1.7133069073150682
O	-2.4422007488986295	1.818483602767123	1.449258377315068
O	-0.41209863289862947	1.3176220407671229	-0.40014601068493194
O	3.5507467611013706	1.1235665537671229	1.361562377315068
O	-12.32322755889863	6.573183602767123	-4.522857122684933
O	-11.761290458898628	0.3075954377671229	-2.746550872684932
O	-9.85740288889863	-5.219641287232878	-1.1757020536849319
O	-8.23911627889863	-9.447678147232878	-3.157791722684932
O	-6.70016510889863	-7.295993337232877	-5.869693202684933
O	-8.579918528898629	-9.270411717232877	-8.584067612684931
O	9.71125314110137	-7.0516562072328774	-3.354609502684932
O	10.19598744110137	-8.381353627232878	0.20090100331506805
O	6.61611299110137	-7.3650621372328775	1.0343686073150682
O	7.275802471101371	-3.719699687232877	0.08993551431506808
O	10.74324124110137	-3.6689130772328777	1.730244547315068
O	9.138968041101371	-5.002331667232878	4.915523367315068
O	6.44748218110137	-2.241461527232877	4.749113787315068
O	9.31516934110137	0.2586175537671229	4.432756867315067
O	11.15287164110137	-1.2838318772328772	7.374709287315068
O	8.009370751101372	-1.010956057232877	9.605994387315068
O	7.62061413110137	2.649864392767123	8.580063577315068
O	7.9463856311013705	3.865567022767123	13.463982317315068
O	10.818817941101372	-0.06631379023287709	-10.240947972684932
O	10.60985214110137	2.338121852767123	-7.322927992684932
O	10.926038341101371	1.4189168807671229	-3.654255402684932
O	7.157485591101371	7.8444247427671225	8.784452207315068
O	5.11309321110137	8.571379972767122	5.679304797315067
O	1.3398097711013706	8.466815862767124	5.272613947315068
O	-4.20320725889863	6.807081342767122	6.009548777315068
O	-4.566460998898629	6.801984092767123	2.2228096073150683
O	-8.33259957889863	7.336297292767123	1.921734067315068
O	-9.54207549889863	5.669799582767123	5.066092267315068
O	-7.270107408898629	4.072020652767123	7.6079782073150675
O	-5.34907451889863	1.6393691127671228	5.520943437315068
O	-8.59541772889863	0.3259187757671229	3.945334297315068
O	-10.29950485889863	-0.054526435232877146	7.344047477315067
O	-7.387048348898629	-2.177662357232877	8.724533067315068
O	-6.957131998898629	-4.073586117232877	5.421559497315068
O	-10.57392268889863	-5.356133767232877	5.503629547315068
O	-9.896690358898631	-8.007125637232877	8.202442347315069
O	-6.494156098898629	-9.033116067232877	6.859547557315068
O	-7.957211048898629	-9.488432047232877	3.3869960973150683
O	-6.04550485889863	-14.160583147232877	3.797683517315068
O	2.3246980911013706	-10.484780647232878	4.494809857315068
O	1.2926126011013706	-12.622509047232878	7.510039857315068
O	-2.1430895668986296	-10.938873347232878	7.0036128273150675
O	-0.7731358128986294	-7.304265297232877	6.933903507315068
O	-1.8655001428986295	-6.984075187232877	3.191029857315068
O	1.4720210411013706	-7.489738497232878	1.467470357315068
O	1.3289426811013705	-4.249138707232877	-0.4226273486849319
O	-1.2659689632986295	-5.584319667232878	-2.8338269926849318
O	1.2799788611013705	-8.168611277232877	-3.990900022684932
O	2.5972203411013703	-5.183951707232877	-6.003461442684932
O	-0.1267284788986296	-6.200502227232877	-8.413872852684932
O	2.7018889611013703	-3.957711197232877	-11.792131082684932
O	1.0731184911013707	1.5136420827671229	-8.781355732684931
O	1.7851919511013703	5.104997622767122	-7.768130742684932
O	2.5893313111013705	5.975086532767123	-4.153166012684932
O	4.113695531101371	9.317260582767123	-3.281735392684932
O	4.210091021101371	9.935872392767124	0.44356929731506806
O	4.866538891101371	12.668181252767123	2.976209337315068
O	0.21186497110137048	13.162575852767123	-1.6688349726849319
O	0.07923096110137062	10.968229952767123	-4.745644842684932
O	-2.0234234988986293	7.789928762767123	-4.487897512684932
O	-2.5728280788986293	5.761774262767123	-7.6410886726849325
O	-4.34991266889863	2.667528782767123	-8.829874052684932
O	-6.91444825889863	-1.766037457232877	-9.80223096268493
O	-10.85172891889863	2.448116772767123	-7.806410862684932
O	-7.86910764889863	4.528202502767123	-6.710553952684933
O	-7.11093441889863	8.266891902767123	-6.818687902684933
O	-5.48146624889863	10.668457452767123	-4.410803972684932
O	8.722576031101372	9.085311972767123	3.615225047315068
O	7.16107317110137	6.979822062767123	0.8821524873150681
O	7.994552261101371	6.001481662767123	-2.7143241626849317
O	6.162396991101371	3.1623511727671225	-4.354966742684932
O	6.454976441101371	3.3379203627671226	-8.090783762684932
O	5.71915018110137	0.020391864767122847	-9.81415296268493
