87

O	3.3203303100163937	0.24370143084344215	-0.49591342227868856
O	0.6418820300163937	0.028283218843442204	0.9696104547213115
O	3.2489139800163938	1.6357175638434422	-0.44887660727868856
O	0.7629350700163937	-1.6827418581565576	-0.3146849722786886
O	5.348377570016394	2.950315941843442	-1.1137074242786886
O	4.158342800016394	2.299141261843442	-1.2922328012786886
O	-2.8584290899836065	-0.8964893281565578	0.9552923147213114
O	3.9147629700163935	1.8944598318434422	-2.6168889352786886
O	-1.6405638099836062	-2.190185518156558	-0.5143698582786885
O	3.678711610016394	0.5200875618434422	-2.7711054852786883
O	-1.8625570999836063	0.7256212438434422	2.4991864847213114
O	3.404977120016394	-0.37786444815655784	-1.7434607252786885
O	6.651247260016394	2.4615415918434422	-1.1447244292786887
O	2.9052540100163937	-0.6742206881565578	0.5915521847213113
O	1.456811760016394	-0.9076936781565579	0.4934692947213114
O	-0.5731875407136063	-0.5116703181565578	0.9355078247213114
O	-0.5256270298836063	-1.3698287681565577	-0.16049604927868855
O	-1.8001678199836062	-0.44941248815655777	1.7399522647213117
O	-2.857245669983606	-1.7672040181565578	-0.03717048827868852
O	1.2393951200163937	-2.460260748156558	-1.4388606722786885
O	1.2750466100163937	-3.9363445381565585	-1.1772339232786886
O	0.04690441401639367	-4.4626195481565585	-0.48974274127868855
O	-0.06228531298360629	-5.9408663481565585	-0.8444521532786886
O	5.630916500016394	-1.0554495081565578	-1.3993585922786886
O	4.279684940016393	-1.4945784281565577	-1.5912472962786885
O	-4.004534839983606	-2.420139688156558	-0.08381144027868859
O	15.246132780016394	5.3787297618434415	-1.0456451652786884
O	5.320080510016394	0.28572063384344215	8.984773004721312
O	2.436816660016394	2.110252271843442	7.274631114721311
O	-0.16040228798360628	0.9509172598434421	9.836818614721311
O	1.0302528500163937	-2.6247020981565576	9.288675914721312
O	0.6807016600163938	-2.193872748156558	5.470572434721311
O	-2.8740545599836063	-0.9685553681565577	6.124885394721311
O	-3.6029547499836063	-3.9385313981565577	8.380620064721311
O	-2.402032289983606	-6.399036608156558	5.6419550247213115
O	-4.608870969983606	-4.639453448156558	3.0792092947213114
O	-7.590721469983606	-4.785369838156558	5.493684674721311
O	-6.905027669983607	-8.533187158156558	6.122058624721311
O	-6.886854429983606	-9.056123898156558	2.2862676547213114
O	-10.307963019983607	-7.500521898156558	1.6095045647213118
O	-11.744016119983607	-11.939643028156558	-0.09082487627868852
O	-2.3156518699836064	11.045353071843442	6.368871864721311
O	-2.752615779983606	7.335673561843442	7.052347094721311
O	-6.114440579983606	6.204720521843442	5.722664174721311
O	-7.356240719983607	2.6662545418434425	5.373210394721311
O	-8.391944729983607	-2.081169728156558	2.8044445947213115
O	-8.284448209983607	-3.7546139681565585	-0.5532162432786886
O	-6.726760799983607	-0.8383905781565579	-2.4327898552786884
O	-4.247141069983606	-0.9100425181565579	-5.2823956252786886
O	-4.803551139983606	-1.2647425381565578	-9.03057480527869
O	-2.8677340199836063	0.7090412993934422	-11.624497385278689
O	-0.8280073669836063	-2.4821058081565575	-12.232290885278688
O	0.2224663380163937	-2.623585768156558	-8.570341855278688
O	1.3814904000163937	1.005072146843442	-8.697248135278688
O	3.4119539200163937	0.9764947118434422	-11.908318585278689
O	4.638081950016394	-2.560646318156558	-11.922839685278689
O	3.7727369000163935	-5.1011951881565585	-9.29919716527869
O	4.9391412500163945	-3.4791199381565576	-6.214602695278689
O	8.280472240016394	-2.556651678156558	-7.724914365278689
O	8.192679530016393	-7.655155088156558	-5.538827575278689
O	10.240087080016393	-4.899484788156558	-3.8760076752786885
O	13.207435380016394	-7.300686228156557	-0.42897751927868855
O	9.410261760016393	-4.291012588156558	7.433634494721311
O	10.873058080016394	-7.806102178156559	7.8047336647213115
O	11.885007680016393	-7.344900788156558	4.121041024721311
O	8.345786360016394	-6.356481978156558	2.9398258547213114
O	9.617321980016394	-2.758510928156558	1.9693684847213118
O	8.462616970016393	-0.8044748781565578	5.026614694721311
O	6.603733650016395	1.6827387718434421	2.8888366547213113
O	9.841919480016394	3.469412131843442	1.9375603047213117
O	10.470695980016393	4.297576741843442	5.587190904721311
O	7.9685443300163925	7.104472091843442	4.8853232147213115
O	11.000796080016393	8.869909361843442	3.4947109647213117
O	-0.8076773829836063	7.750151901843442	-2.2853755152786888
O	-4.476515429983606	7.857102921843442	-3.2295826352786885
O	-5.898295139983606	4.400410001843442	-3.7258073952786885
O	-8.995643579983607	2.6673839718434422	-5.055066885278689
O	-9.418028049983606	-1.0953328781565579	-5.736953465278689
O	-9.119955229983606	5.836698991843442	-8.296291385278689
O	-5.453589139983606	6.754269481843442	-8.785408315278689
O	0.6902462700163938	8.068503621843442	-7.034608685278689
O	-12.180685019983606	1.5979462678434422	-1.5571721472786886
O	-8.837603299983607	1.7052618908434423	0.1476291917213114
O	-5.574900259983606	3.612469661843442	0.38494187472131147
O	-4.533461599983607	7.041786731843442	1.8266863347213116
O	-0.8467369729836063	7.711721541843442	2.2582816247213113
O	-0.2559931079836063	11.447357971843442	2.5582027347213114
