27

O	4.042237234049055	11.67633244752756	23.70322434712217
O	1.0645124237937384	11.225593353052762	24.060324183407268
O	5.207723419501043	11.54507209178431	24.38036305037086
O	2.0012083295665386	9.81041636717659	25.386066281063748
O	6.1322874039703255	10.69566304201983	23.74679083554835
O	5.5807955230195105	12.666134198436403	25.121917542713213
O	-1.7297837797731581	10.599644440918746	26.20442702462037
O	5.1805802915962955	13.96380084246081	24.734937648714475
O	0.1613633714810251	9.50560668524092	27.00926976380367
O	4.572385960340226	14.027360379106069	23.463594612850535
O	-1.7973656151414181	11.804571389405952	24.061779980872725
O	5.276384549565334	14.755136456107374	22.538882477158317
O	3.6195448284310716	12.972578568795992	23.41615938092913
O	7.120943841767012	11.393474924405165	22.967706557920707
O	6.313984838105176	14.415874857116698	21.676880789599124
O	3.2662769965406993	10.488348075970741	23.331189250824302
O	2.0940920935069514	10.393154340711819	24.209283615720874
O	0.13346232966552618	10.750615265035025	24.87842557090658
O	0.8366495663541704	10.15932539768435	25.92635739192101
O	-1.3334600841541444	10.762763866240272	24.882517360976358
O	-1.145345051430452	9.909317212131395	27.17021782331064
O	2.9798231453047457	9.008122903081134	26.075778999663676
O	2.5973310204950684	7.514521834710769	25.98848738594722
O	3.9842506822559303	6.84577057369151	25.91994771147019
O	5.086265615150977	7.839744411944507	26.00777588743595
O	5.4426511067388335	8.981437078466673	26.323490491062067
O	-2.0510572504030176	9.503964960442477	28.0514280170647
