85

O	3.6910132383518524	0.7266117850185185	-1.7587541991666664
O	4.271345828351852	3.2258419550185184	-0.9040389381666665
O	4.612513198351852	6.005140085018518	-1.6400403091666664
O	4.042891918351852	-0.5947370649814814	0.2446213268333336
O	2.9765126783518525	0.15344801501851868	-0.3239973971666664
O	3.7280200783518525	-0.6357132649814812	1.7412721508333338
O	2.4344408183518524	-1.1487916749814815	1.8759884208333335
O	3.7000321883518525	0.7855394470185186	2.1951211808333335
O	4.828655148351852	1.2997011940185186	2.7829773008333336
O	2.5735241583518524	0.7892907160185186	3.1826812308333334
O	3.1160108883518522	0.7438415050185185	4.454186190833333
O	1.7544222583518523	-0.41741912498148137	2.8258179508333336
O	-2.9884319016481475	1.1807814650185187	4.341586330833334
O	4.0327558683518525	-0.5559004449814813	-2.4006878591666663
O	2.9169156983518523	2.9448029450185187	-0.3809784861666664
O	4.9313563283518524	6.000788415018518	-0.19509313716666643
O	-1.8126368016481473	1.0862916330185186	5.009112830833333
O	2.8399817083518526	1.6067056420185186	-2.8495406791666666
O	5.097189868351852	3.9083423350185185	0.3537822848333335
O	3.5150383683518527	6.996642935018518	-2.3306249091666666
O	4.244323178351852	4.378208755018519	-2.1885082991666662
O	-0.7056731216481477	0.5580431850185186	4.487067020833333
O	4.903296808351852	1.7165522435185185	-1.1865084571666664
O	6.035677438351852	6.405531095018518	-2.3606513791666663
O	-0.6396160816481476	0.3222321250185185	3.1753590208333335
O	-1.7554110216481473	0.6442475750185186	2.4035717908333334
O	-2.8951853516481476	1.1675517220185188	3.0104960508333334
O	-4.088638031648148	1.3280491600185185	2.2912397608333337
O	-1.3101932916481478	0.5445394550185185	1.1365744308333336
O	-0.07624109164814763	-0.03400259498148128	1.1559335008333336
O	0.3908241747218524	-0.07410523498148147	2.4210900708333334
O	4.223853238351852	-9.929876124981481	-9.808204959166666
O	-4.058793881648148	0.22642159501851866	-10.784013559166667
O	-6.846282471648148	2.3545475660185184	-9.298046599166666
O	-4.840645461648148	5.519866375018518	-8.627707579166666
O	-2.0582310816481475	3.3799072350185186	-7.058271719166667
O	-4.473908051648148	1.8667726690185187	-4.520141789166667
O	-6.283725961648148	5.182610365018519	-3.8397772191666664
O	-2.8694000216481474	6.743700025018518	-3.2063232691666665
O	-2.0287782516481476	3.9458268150185187	-0.7887857151666664
O	-5.323567681648148	4.661838935018519	0.9825407108333335
O	-4.517322241648148	8.323647185018519	1.1339448908333336
O	-1.1410573216481477	7.6358486950185185	2.7905606808333334
O	-2.7581626016481477	5.404120165018519	5.339828220833333
O	-5.395151161648148	8.070398355018519	6.057144410833333
O	-2.6387046316481477	10.725870955018518	6.4480026808333335
O	-0.8224579716481476	8.350046725018519	8.920278880833335
O	-3.759734711648148	7.841579345018519	11.282580240833335
O	-0.9634487016481476	9.91532044501852	14.828467540833334
O	-11.222711091648147	-0.08988946498148143	-2.3976563091666665
O	-6.769263381648148	4.665468865018519	7.369380140833334
O	-4.296848831648148	3.325465225018519	9.845068840833335
O	-4.727968731648148	-0.3248664149814813	8.954023360833334
O	-2.0390367016481474	-3.0242312349814817	8.906821960833334
O	3.1336377683518526	-5.603961254981481	8.233301560833334
O	1.3951233483518521	-8.37702922498148	6.301844410833333
O	3.8735474683518523	-11.196901324981482	6.786768450833334
O	7.090133538351852	-9.289620724981482	7.105660170833334
O	7.378662958351852	-5.561865624981482	6.965108750833334
O	5.756929748351852	-4.834845044981481	3.6620299008333332
O	7.803885568351852	-7.479935934981482	1.8987816008333334
O	11.075400708351852	-6.342961844981481	3.4991139508333338
O	10.539527308351852	-2.7765160749814815	2.2326709308333337
O	9.214322848351852	-3.9525770549814814	-1.1489781081666663
O	11.528984608351852	-0.8488601549814816	-4.573656249166666
O	10.966292208351852	-3.9200041549814815	-6.723360899166666
O	11.527826408351853	-0.6713501449814814	-10.550557859166666
O	5.365447068351852	1.6080203920185185	-10.430640079166666
O	4.208705688351852	3.9358159450185184	-7.635227429166667
O	7.421291908351852	6.003263045018518	-7.813430469166667
O	9.086366598351852	2.8166478850185186	-6.415486619166666
O	6.796005448351852	2.2089358620185187	-3.6245918291666666
O	5.285654118351852	-1.0241354849814814	-5.033907269166667
O	2.0741937783518525	0.3076687250185186	-6.558362219166666
O	-0.00598998964814762	-2.2144415749814814	-4.652781639166667
O	1.0805363173518523	-5.010303224981481	-7.070298829166667
O	-0.40992573364814766	-3.1460889449814813	-10.018573719166666
O	-3.6330581116481473	-4.6918966349814815	-8.683674199166665
O	-2.4915550016481474	-7.710807114981481	-10.646636459166666
O	-7.264550061648148	-4.8394771449814815	7.345663900833333
O	-7.562578591648148	-3.7629787149814815	10.973921540833334
O	-8.684073741648149	0.49342081501851864	8.009264770833335
O	-8.078372061648148	-1.5649214749814813	4.893842740833334
O	-10.263248691648148	-3.039198724981482	2.1367991308333334
O	-8.597775721648148	-4.283489364981482	-0.9943217791666664
