12

O	0.05229054460097737	12.369797106765429	25.445461612352602
O	-0.968883714400159	9.984455606414427	27.642658973391267
O	0.2487683801704239	12.757988014433312	24.116587663108593
O	-0.48279565455101525	12.884772957970887	21.947134165979726
O	-0.6028749616275899	12.262822865414282	23.167024027458602
O	-1.6854678849814662	11.542797236185946	23.60067211124723
O	-1.6965866758423527	10.948688103339112	24.81818599189686
O	-0.19272555338334585	10.158712514268586	26.65505459564269
O	1.8084009828257275	10.891894386293707	25.672557857369295
O	-2.81694667009848	10.41610793204785	25.48747794050234
O	1.2473150869182084	10.22320549136708	26.941875502887214
O	-0.666100969499579	11.187303891295493	25.680076938914585
