28

O	2.622746309503474	4.522429583546041	28.864009526594387
O	1.846297857216228	4.263722255270567	27.751451263440263
O	2.182726408264186	5.162928882324101	26.5557697821889
O	2.969342257695833	6.196551840167096	27.118415783195267
O	2.8715271163457166	7.577998462213406	26.99431902889622
O	2.108994443497904	8.25043381583033	27.95133917897148
O	2.505289494484624	8.130480839669284	25.793731659171094
O	1.4001145737144944	8.975981040278558	25.577274352305373
O	1.6167084022058624	9.48272651682549	24.383816449448148
O	1.4032765714982443	10.927235125174164	24.681717605105913
O	0.16618308456624065	11.214924196846589	25.238862642929433
O	-1.0971046900378874	11.253352013015743	24.61286896881622
O	-2.0465100170301933	10.78177068541325	25.22224421142327
O	-3.3049894258310486	11.138487602508743	25.04734458632473
O	-1.4912559743601026	10.112500560653842	26.298537469820413
O	-0.17146573445987445	10.206745701114254	26.14054345744619
O	0.9270386019737625	9.565887276200817	26.67246798081476
O	0.7212898550699787	8.610915398870146	27.619961714214497
O	1.985386416922719	11.361953350240498	23.523606318330074
O	3.1969965064715593	11.908288441665448	24.215020236377796
O	3.169078880089568	12.787983842467249	25.241220243779814
O	4.17009464078767	13.774499507851283	25.23736230714314
O	4.004588170222515	15.14232314840499	25.52859016784685
O	5.072988826152064	15.887122536309292	25.011757470169222
O	5.894911266985548	14.858982333812765	24.52989104551704
O	5.032206943212246	13.851598279469709	24.141840889020674
O	5.348659967226446	12.560603932886558	23.710624711836555
O	4.3872798804746544	11.54366524964997	23.808244509767334
