85

O	3.0005786741071425	-0.22556855917857144	-2.4076592184553567
O	1.6910551541071426	0.8567192578214285	-2.254145238455357
O	0.6782463971071427	-0.28449307217857145	0.6806477695446431
O	4.659272524107143	-3.2655840061785715	0.7249128255446431
O	1.380113274107143	1.0324922798214287	-0.8721534494553569
O	2.2115963241071426	-0.37416147617857154	3.439197461544643
O	-1.1029181208928573	1.3667152258214286	5.004593271544643
O	1.7778156141071428	1.4889687948214285	0.3581051485446431
O	-0.3436542559928572	0.01837644082142853	-1.597326218455357
O	3.2682147841071427	1.2550690678214287	0.3975401685446431
O	-1.0967615558928572	2.2025496438214285	-2.981575388455357
O	3.2953300441071427	0.1360055198214286	0.9425262015446432
O	0.6993407241071429	1.1354564878214286	-3.060698638455357
O	3.930650594107143	-1.2427644561785716	0.9655277515446432
O	4.468234954107142	-2.2301987461785715	1.825756121544643
O	5.8879211641071425	-2.4767977561785712	2.125044741544643
O	3.465289814107143	-2.9308727261785714	2.549347811544643
O	0.8259848541071427	1.0298077128214285	1.2066044715446431
O	0.6819459391071427	-1.2831429861785715	1.6283652915446432
O	0.9962457041071427	-0.5807746561785715	2.931330281544643
O	2.223379034107143	-0.09633147017857147	4.761350831544643
O	1.1065155541071428	0.5881957968214285	5.229868011544642
O	0.6930912541071427	0.23474973382142855	6.624101011544643
O	0.1079243991071428	1.0444133298214284	4.372114241544643
O	-1.0799757338928573	1.9424373738214284	6.294541501544643
O	-0.019876923892857223	0.34955435282142855	3.2055863015446433
O	-1.409130515892857	0.14369494682142858	2.6314598515446432
O	0.4695639861071428	0.05772906682142853	-0.6032779174553569
O	-0.4316701308928572	1.1547001328214286	-2.429127848455357
O	0.014430036107142774	7.1135184438214285	15.541882091544643
O	4.142346194107143	10.311508633821427	1.4536554515446432
O	1.0749455041071427	8.589657643821429	0.013512758544643066
O	1.8651465941071428	9.588076913821428	-3.604430088455357
O	5.343864194107143	8.188533553821427	-3.1182956584553567
O	3.794119064107143	4.970263873821429	-1.772223668455357
O	1.653340914107143	4.797981003821429	-4.917449728455357
O	4.685951804107143	5.427593893821428	-7.121871968455357
O	6.649225994107143	2.5594888838214285	-5.4910480084553575
O	3.6125580441071428	0.21381895282142854	-5.967429268455358
O	3.3622175341071427	1.2724830758214285	-9.576481738455357
O	7.1094844041071426	0.7007189814214285	-10.152390658455356
O	6.645269854107143	-2.8529376461785714	-8.632922178455358
O	3.8882797541071428	-4.020337636178572	-10.952955608455357
O	6.949306464107143	-7.619008596178571	-12.483974308455357
O	-8.803167255892857	9.587527823821429	-1.917111288455357
O	-5.416987665892857	8.655190943821427	-3.3254484284553567
O	-5.870123085892858	5.995879633821429	-5.973445668455358
O	-3.231002045892857	3.9678854538214288	-7.694232598455358
O	-0.043524824892857195	-0.3391134541785714	-8.613693218455357
O	0.6196776271071428	-3.837556076178571	-7.491330618455358
O	-2.000509255892857	-3.952579526178571	-4.774658478455358
O	-1.7566176458928573	-5.640937766178571	-1.3249406384553568
O	-2.5764938958928574	-9.174997456178572	-0.26999322495535694
O	-4.422457345892857	-10.097259456178572	2.9127672015446433
O	-1.019684981892857	-11.106089956178572	4.363169201544642
O	0.39100435410714274	-7.676708706178572	3.7985624415446435
O	-2.6010578158928572	-6.084611646178572	5.551629091544642
O	-2.7941633858928574	-8.167317326178573	8.689130711544642
O	0.7718846241071428	-9.117028136178572	9.169049541544643
O	3.515508854107143	-8.113835466178573	6.957236351544642
O	3.132896354107143	-4.354681546178571	7.1309834015446425
O	3.067426224107143	-4.260837026178572	10.787453991544643
O	8.208872814107144	-4.198284146178572	9.055902291544642
O	6.7935912741071425	-0.9724439161785715	10.509054591544643
O	10.948621844107144	2.0894906538214286	11.106610691544642
O	11.821850144107144	5.515563423821429	7.916797491544642
O	9.436335794107144	3.7231576338214287	5.502444731544642
O	6.341658224107142	4.588200293821428	7.677498831544643
O	5.0676922541071425	7.549091643821429	5.667574011544643
O	1.6440353941071426	5.971923453821429	5.454828161544643
O	0.8792417641071427	7.106691023821429	9.070008541544643
O	-2.2540387258928574	10.230203053821429	6.860768221544642
O	-7.548742285892858	1.3584030098214286	2.326846271544643
O	-9.165168135892856	-0.6166801361785715	-0.4990327594553569
O	-6.663873615892857	-2.8267676661785712	-2.255423568455357
O	-6.558684885892857	-5.636326916178572	-4.832250518455357
O	-3.511897295892857	-7.790759766178572	-5.746599758455357
O	-10.282196125892856	-7.273386886178572	-2.854782958455357
O	-9.948719645892856	-6.120273116178572	0.7806540025446431
O	-8.652757945892857	-2.1127932361785713	5.6864279215446425
O	-5.784395605892858	-3.9891010861785716	-9.331248178455358
O	-4.252534855892857	-1.3953686761785713	-7.042889678455357
O	-4.812201125892857	0.5578408132214285	-3.8611405784553567
O	-7.110118005892858	3.4451534938214285	-2.7894130484553568
O	-6.349666435892857	5.272176763821428	0.4046600945446431
