76

O	-1.5542398494266663	-0.81372428495	-0.551033514408333
O	-1.0968592164266664	-3.22495881195	-1.4222891144083332
O	0.3098900195733336	-1.60448429195	-1.1580024674083331
O	-0.9161608281266664	-1.82626536195	-1.404173644408333
O	0.34665041957333353	0.64863348505	-0.579779417408333
O	-1.0484565609266665	0.4966974660499999	-0.4238194954083331
O	-0.25349327942666644	-1.63340967195	1.1266934055916669
O	-1.5450713044266664	-1.08763966195	0.8248909255916669
O	-4.138227470426666	1.34849712805	0.877756735591667
O	-1.8079949734266663	1.51809417805	0.20153337459166693
O	-2.1873368204266663	-0.058834060950000086	1.567235255591667
O	-0.4181448304266664	-4.34036084195	-1.049593635408333
O	-1.7344134214266664	-3.7547036419500004	-2.537475414408333
O	-2.8585505304266663	0.93495441605	0.9255133655916669
O	-1.1172015694266664	-5.498112351950001	-1.3956445744083332
O	-1.5163077904266664	-5.13141221195	-2.648361044408333
O	-9.625905290426667	2.2258189680499996	5.860730665591666
O	-6.2179681704266665	3.4257764680499996	4.614734665591667
O	-4.362016290426666	2.3898842180499997	7.7726809555916665
O	-5.936904110426666	-1.06651348195	7.454788395591667
O	-4.733010230426666	-1.26160080195	3.766735875591667
O	-1.2643540254266665	-0.3634489009500001	5.103959165591667
O	-1.4425300514266663	-3.0009920019500003	7.831011315591668
O	-2.4298349504266663	-5.80275750195	5.338360705591667
O	0.5349650295733337	-4.7848384819500005	3.0894431155916666
O	2.9136757395733337	-4.74431347195	6.009855185591666
O	1.5810987895733335	-8.24349347195	6.9723373955916665
O	2.219019699573334	-9.418420561949999	3.324003245591667
O	5.858248039573334	-8.347706701949999	3.114648435591667
O	6.3755468295733335	-9.70484847195	6.605997365591667
O	6.930369579573333	-13.13298216195	2.364810605591667
O	10.209248739573333	-12.379298161949999	4.158712945591667
O	3.1173262895733336	3.59346866805	9.261962135591668
O	0.8242279795733336	9.973744348050001	9.147206725591667
O	2.068889129573334	13.27062863805	7.739692685591667
O	-0.11065221942666637	11.49739223805	3.577209225591667
O	-0.3887017874266664	7.89543999805	4.792687385591667
O	3.004558509573334	6.2374151080499995	4.426295895591667
O	3.7465423795733335	2.5635200180499997	4.815889255591667
O	6.7413809095733335	0.26690923604999994	4.238520495591667
O	4.5031661495733335	-2.62875981195	3.124599025591667
O	4.851274079573334	-4.80364462195	0.11300135659166693
O	4.2295452395733335	-2.0595832719500002	-2.4312700644083334
O	2.3964750295733337	-2.3174411519500002	-5.772394284408334
O	3.575777669573333	-3.32221683195	-9.192393644408332
O	2.4933038595733334	-1.5774883019500001	-12.378497064408332
O	0.20125045957333354	-4.59095221195	-13.002056164408332
O	-1.5923038474266664	-4.03490010195	-9.701183764408333
O	-2.1698509904266663	-0.36047320695000007	-10.547255964408333
O	-3.4992516604266664	-0.67401681295	-14.075925864408333
O	-5.251956790426666	-6.1998900719500005	-10.853392764408332
O	-6.755058260426667	-3.8821783519500004	-8.259120984408332
O	-13.917787960426667	-2.0265684219500004	4.009671065591667
O	-16.121326460426666	-5.23145041195	0.6778229165916669
O	-12.314752360426667	-4.867046681950001	0.14837239459166696
O	-12.779244260426667	-1.35357429195	-1.524959314408333
O	-12.009698860426667	0.91144772005	1.4491658955916669
O	-9.420074120426667	2.8002372480499997	-0.5609588534083331
O	-12.121537760426667	4.77114820805	-2.3872764244083333
O	-10.342937320426667	8.56904339805	0.3708280855916669
O	-0.37072799542666646	7.02444877805	-4.678616504408333
O	3.3868784195733337	6.60799924805	-4.824211744408333
O	4.394939119573333	2.9729771180499998	-4.553147444408333
O	7.413187749573334	0.71116780105	-4.931690974408333
O	7.4384886295733335	-3.1381946319500003	-5.009938154408333
O	8.575603489573334	3.3091462880499996	-8.484244684408333
O	5.171170979573334	4.50795786805	-9.824364484408333
O	-0.8840150498266663	6.751100828049999	-9.646645784408332
O	11.191292439573333	5.3131036280499995	-1.281199464408333
O	12.861945139573333	1.92718083805	-0.858231116408333
O	9.639898439573333	-0.15486249195000007	-0.7092589374083331
O	6.058373379573333	0.5897547070499999	0.19506021159166698
O	3.3153152195733337	3.0426056880499996	-0.49414070740833305
O	2.3193753795733336	6.58530165805	0.20599710259166693
O	-1.2283955414266665	7.72306620805	-0.27584547690833305
O	-2.851562150426666	-1.9832292819500001	14.581428735591668
