93

O	1.890689645241935	4.208368112741935	-0.43283449404838703
O	-0.7215693067580651	0.043547412741935076	1.3329799909516131
O	-1.4814671957580652	0.6360539127419351	2.253125150951613
O	-0.507620023958065	1.580457328741935	2.195955950951613
O	0.09047401824193502	1.937076625741935	0.929468400951613
O	-1.054981023758065	1.839738563741935	0.05920599095161294
O	-0.689522020758065	0.49392751274193514	-0.04524382704838703
O	1.4616397952419349	1.291096655741935	0.6578606309516131
O	2.163515915241935	0.02175234274193505	0.7149941809516129
O	2.645260385241935	1.963680649741935	0.731643890951613
O	0.338031731241935	1.004224191741935	3.271550890951613
O	0.04415975024193497	-0.8801570072580649	1.9442287409516128
O	2.496541125241935	0.039604542741935145	2.006543740951613
O	2.234648855241935	1.309227206741935	1.920971550951613
O	3.523621345241935	1.188062533741935	2.331925110951613
O	2.739549395241935	3.0674303227419353	-0.149385202048387
O	3.312632275241935	2.956221692741935	-1.433143207048387
O	3.995683495241935	3.897585492741935	-2.168672019048387
O	3.230722595241935	5.050599072741935	-2.366824109048387
O	0.518465045241935	0.625265672741935	-0.847011288048387
O	0.359979163241935	1.767902186141935	-1.828311147048387
O	0.9540220252419349	-0.08937224725806492	-1.8455699960483871
O	1.291444715241935	1.6901667163319352	-2.857489089048387
O	1.129702905241935	2.987462242741935	-3.217797979048387
O	2.491487255241935	5.276206762741936	-1.188255725048387
O	-0.708845645758065	2.707138752741935	-1.8385542610483872
O	0.5421008452419349	4.123052632741935	-3.029006269048387
O	0.446051409241935	4.689429612741935	-4.153938909048387
O	-0.494627577458065	3.800314762741935	-4.758820109048386
O	0.17267505024193497	2.7583457627419348	-4.3099029490483876
O	3.434076525241935	1.584858150741935	-1.5441584650483868
O	-7.011023254758065	8.518501292741934	2.650106700951613
O	-6.385166654758065	4.756511822741935	2.848149390951613
O	-5.574528124758065	4.813541932741935	6.557166150951613
O	-3.062117814758065	7.529282982741935	5.861353910951612
O	-1.558542304758065	5.227390792741935	3.0631554209516128
O	-1.317911261758065	2.535556476741935	5.6896502809516125
O	0.18421722924193495	4.865483392741935	8.276786000951613
O	2.829428355241935	5.781799162741935	5.6910956109516135
O	3.437169615241935	2.179849048741935	5.057121710951613
O	3.7550263752419353	1.420679331741935	8.802414370951613
O	6.097069305241935	4.4424319027419354	9.289069440951613
O	8.272892625241935	3.035965302741935	6.441032370951612
O	8.805888435241934	-0.4525048072580651	7.914081940951613
O	9.296096665241935	1.0980644337419352	11.334300340951614
O	13.652267385241935	0.579421562741935	8.042460400951613
O	-11.042910914758066	-4.117294917258065	4.0522599909516135
O	-8.224791774758065	-1.8511062572580648	5.251067710951613
O	-5.423201974758065	-4.018296967258065	6.546335850951612
O	-2.027739284758065	-2.908039267258065	7.543270400951613
O	1.2379344952419349	-4.5853342072580645	8.507601240951614
O	3.282362195241935	-1.9222122272580648	6.875115460951614
O	6.0905401852419345	-2.3458867472580653	4.483411290951613
O	4.017429605241935	-3.5883539472580646	1.554406830951613
O	4.402536525241935	-3.316361137258065	-2.093214839048387
O	6.646146695241935	-5.084794527258065	-4.545098129048387
O	5.598742825241935	-6.179270357258065	-8.005698689048387
O	7.607003955241934	-3.2418395172580645	-9.404307789048387
O	5.637403535241935	-0.8433144272580648	-7.283928099048387
O	2.337688255241935	-2.337864037258065	-8.580953999048386
O	3.023021835241935	-2.364538287258065	-12.295526259048387
O	5.345009785241935	0.564305352741935	-12.656365559048387
O	6.515069245241935	2.716657352741935	-9.807660269048387
O	3.419326695241935	3.937514392741935	-8.344887389048386
O	4.821956315241935	8.965969672741934	-9.362938099048387
O	1.031679445241935	9.415646612741934	-9.690222629048387
O	-4.528967144758065	13.387531732741934	-0.45130190504838696
O	-2.596561424758065	16.685754032741936	-0.639265235048387
O	-1.698066604758065	15.534860832741934	-4.198830779048388
O	-0.44225951575806505	12.077023732741935	-3.029271879048387
O	-3.284622294758065	10.278987582741934	-5.064632239048388
O	-5.757012344758065	9.609675082741935	-2.1876884790483873
O	-5.971050344758065	5.903175412741935	-2.994252129048387
O	-8.139413104758065	6.5285032627419355	-6.046066869048387
O	-11.535160414758066	4.293471652741935	-3.090371279048387
O	-13.515095114758065	4.623681072741935	-6.298320519048387
O	-5.148943244758065	-5.070918367258065	-3.091461719048387
O	-3.266686694758065	-7.930332957258066	-1.505291565048387
O	0.25351118524193494	-7.007372887258065	-0.527029666048387
O	3.4897792752419345	-8.489655567258065	0.5802304209516129
O	6.916351955241935	-6.874553327258066	0.8158504909516131
O	2.573292245241935	-11.944030267258064	-2.253339229048387
O	0.5719767752419349	-10.227598967258064	-5.044524389048387
O	-3.7953573547580652	-6.342000857258065	-7.732122599048386
O	-1.754562474758065	-8.378742067258067	-11.169888259048387
O	-0.09882677675806506	-15.736962867258065	3.2813144809516133
O	-0.12469323175806502	-12.432084667258064	5.137947190951612
O	4.015294335241935	-8.523405967258064	5.368518030951613
O	1.8092077352419351	-5.595761827258065	4.5637149609516126
O	-1.158795696758065	-4.565317417258065	2.566763580951613
O	-4.900118254758065	-5.228093227258065	2.518543140951613
O	-7.156751074758065	-3.0428420572580652	0.4323837509516131
O	-10.472444614758064	-4.760552287258065	-0.20221838304838702
