106

O	-0.6266026673381164	-0.47792700784057995	3.908356304362319
O	-0.2625053063381164	-0.9048593658405799	5.063263574362319
O	0.8571975496618836	-1.61755184884058	4.738381904362319
O	1.9141794196618835	-1.15321121884058	3.9549953643623192
O	1.3590709896618838	-0.7795491918405799	2.765993134362319
O	0.1204166096618835	-0.23536296884057997	2.757198544362319
O	1.7536898296618835	-0.34210814884057994	1.550921798362319
O	3.0835424396618833	-1.9588609888405801	4.050986394362319
O	3.1159127596618834	-3.2508046988405797	4.729650854362319
O	-1.9184824333381165	-0.12595489184057995	3.4762171943623192
O	-3.9531528803381164	-3.7618559488405796	4.152239574362318
O	-2.8608997903381166	-3.47552975884058	4.958961874362319
O	-3.740726090338116	-3.4164593388405797	2.7844579343623193
O	-5.173150760338117	-3.66544932884058	4.817888754362318
O	-1.6765921733381164	-3.6623247588405796	4.360917704362318
O	-3.0068515903381163	-2.80103765884058	6.127290724362319
O	-2.6232097203381164	-2.9431846788405798	2.152476274362319
O	-5.283933970338117	-2.53824301884058	5.626968494362319
O	-1.7634589513381165	-3.51469470884058	3.027394324362319
O	-4.226429230338116	-2.24372039884058	6.3909786743623185
O	-2.7638993303381163	-1.90752134884058	1.181390694362319
O	-1.9850935883381164	0.06219870855942004	2.111879544362319
O	-2.9858147603381164	-0.82388619284058	2.0681515243623187
O	-1.9033567443381165	0.7982048501594201	0.9710712453623189
O	-3.8222799503381166	-0.7762652098405799	3.219604754362319
O	-2.9206008603381166	-0.40364406284057996	4.073978834362319
O	-2.251959200338116	0.08193691615942005	-0.21942089963768108
O	-2.3860996503381164	-1.33583261884058	-0.030944446637681033
O	0.9028157896618836	-0.50702321184058	0.38758658336231894
O	1.1378750196618836	-1.87254629884058	0.32182362336231896
O	1.9427619896618837	-2.59179109884058	1.505116257362319
O	1.1072989396618838	-3.5552741588405796	2.142856364362319
O	0.13522219966188365	-2.5625815188405796	1.9229131743623191
O	0.0540672296618836	-1.68249689884058	0.780332487362319
O	1.1154598596618837	-4.41369992884058	3.1331681643623193
O	-5.167343570338116	-1.05640661884058	2.916564224362319
O	4.246655329661883	-1.83846255884058	3.625603574362319
O	-6.943152010338117	2.4846524211594203	-12.466377535637681
O	-6.865067380338116	6.94093249115942	-7.737672035637681
O	-5.694778650338117	10.38447519115942	-2.932216385637681
O	-2.7861655703381167	14.092186991159421	-1.4469837456376808
O	-0.1787168953381164	12.64046099115942	-3.782141025637681
O	6.4745751596618835	5.17595322115942	7.495689004362319
O	7.194772579661883	2.14429434115942	5.256869874362319
O	8.960990329661882	0.10603607315942006	7.987236424362319
O	6.0189191096618835	0.7446519531594201	10.301180314362318
O	3.626261919661883	-0.40333451684057997	7.6409341043623185
O	5.605937499661883	-3.58914282884058	7.197119104362319
O	5.688083199661883	-4.16312512884058	11.005823564362318
O	1.8220632696618837	-3.98063299884058	11.059705164362319
O	1.5805605196618837	-6.48510728884058	8.144952844362319
O	1.9497934996618838	-8.47239555884058	13.262509264362318
O	-1.1738992510081165	-9.43027012884058	11.166067364362318
O	15.561602529661883	1.39128533115942	-2.459257345637681
O	13.510537329661883	-1.67698664884058	-1.7379042256376809
O	11.697651629661884	-2.35173538884058	1.553671006362319
O	0.5295813696618836	-10.819597408840579	5.397315544362319
O	0.6963911096618836	-9.60765203884058	1.829220494362319
O	-2.0169283193381164	-8.17192046884058	-0.40507687563768113
O	-4.812750500338116	-9.58461456884058	-2.441094995637681
O	-5.904144900338117	-8.00697994884058	-5.636077735637682
O	-9.010552420338117	-6.63772056884058	-3.8929215356376807
O	-6.8690887703381165	-4.75316762884058	-1.475607885637681
O	-4.814457760338116	-3.2145504588405798	-4.227098195637681
O	-7.630233530338117	-2.00927268884058	-6.404782095637682
O	-10.331895280338117	-1.27784903884058	-3.9488950956376807
O	-9.950498440338116	-1.7144780988405801	-0.30552580663768103
O	-7.017516750338117	0.5460187631594201	0.17844246536231895
O	-8.347499120338115	3.38820049115942	-1.5666854956376808
O	-11.634560570338117	3.08175885115942	0.32875186636231896
O	-9.924312560338116	3.32279692115942	3.730390104362319
O	-7.427026510338116	5.94766878115942	2.551855034362319
O	-10.230033180338117	8.38406323115942	1.607651166362319
O	-10.964085820338116	9.348043101159421	5.257898124362319
O	-7.329872220338117	9.42874048115942	6.359669224362318
O	-6.440667980338117	11.65979449115942	3.419495144362319
O	-8.338736100338116	14.31507389115942	7.927699424362318
O	1.2928416296618834	8.26088605115942	9.557757654362318
O	-3.7205150403381166	9.466786721159421	9.450978114362318
O	-2.9642973003381163	5.90442800115942	8.25521826436232
O	-1.7096638963381166	7.18762361115942	4.790810564362318
O	2.0758903496618837	7.10160799115942	5.454176524362318
O	2.5904442996618835	5.03021296115942	2.309607854362319
O	2.149666949661883	8.01546639115942	0.04936779236231892
O	7.064150579661883	7.37585470115942	-0.6381775556376811
O	6.709941389661883	3.1899650311594203	-6.668927215637681
O	6.3449504596618835	-0.46263647384058	-7.520039615637682
O	4.872094099661884	-2.8968263788405797	-5.133024055637682
O	5.193204699661884	-6.62116095884058	-5.498025805637681
O	3.0366563196618834	-8.61803886884058	-3.116557865637681
O	1.7692075896618837	-12.08502770884058	-2.372751305637681
O	-1.0322614233381164	-13.12917330884058	0.05349321336231894
O	1.4592224196618837	-12.53082450884058	-6.9225881656376815
O	0.6616958896618836	-8.92337886884058	-8.065763125637682
O	2.5722680396618838	-5.8667602488405795	-9.180096245637682
O	1.0684607296618835	-2.48045889884058	-8.212889205637682
O	1.3919376296618837	9.37418807115942	-9.485966235637681
O	-3.3792154003381167	6.587662781159421	-12.015193935637681
O	-1.8834202283381165	3.29283466115942	-10.88145323563768
O	-2.0098115053381163	-3.59482034884058	-11.226490535637682
O	4.729689019661883	-10.60240430884058	1.8223917643623189
O	5.396374269661884	-7.30277755884058	0.16686517036231896
O	8.358317639661884	-5.51228031884058	-1.550100065637681
O	8.022383669661883	-1.75322875884058	-2.016323615637681
O	10.476377229661884	-0.6526743818405799	-4.685648405637681
O	11.182329329661883	3.0684003211594204	-4.514479335637682
