79

O	2.981590832214286	-0.9968770584693869	-4.433180278734694
O	2.552735212214286	-2.950379808469387	-2.3998714987346936
O	0.6069638822142855	-0.22908949446938698	-0.5101255053346939
O	3.9166576722142854	-3.250967118469387	-2.5233559887346937
O	2.1013365022142856	-3.358458448469387	-1.188712962734694
O	-0.14640304778571434	-0.46760572846938686	1.081532041265306
O	-0.07892552778571438	-3.0995682084693867	-0.14526076573469393
O	1.0216099122142857	-2.611131788469387	-0.811473523734694
O	-5.143673377785714	1.9507378415306131	-0.23958857573469394
O	2.0989642822142858	-0.509147038469387	1.201079011265306
O	0.8406885122142858	-1.3373503584693869	-1.3950122347346938
O	-4.477378887785714	-0.29364961846938686	-4.116041968734693
O	-6.884752557785715	2.861867991530613	-1.668208778734694
O	0.8474225222142859	-1.266810208469387	-2.755757858734694
O	-7.651337667785715	1.008256445530613	-0.5413555534346939
O	2.1991158022142856	-1.737103938469387	-3.014169728734694
O	1.067979292214286	-0.12829537946938696	0.7003351212653062
O	-0.9275783447857143	0.5908189065306131	0.4151101212653061
O	-2.3506607337857144	0.692781088330613	0.48240427126530605
O	-3.140347527785714	0.6053739565306131	-0.7373547397346939
O	-4.498037877785714	0.7220821622306131	-0.23705468373469396
O	-6.100631447785714	0.29554163653061305	-2.4077589687346936
O	-5.400102097785714	-0.764265588469387	-1.714810848734694
O	-5.423192667785714	-1.869767438469387	-2.6106208187346938
O	-4.680617177785715	-1.592385608469387	-3.763784588734694
O	-5.177197917785714	0.6058584835306131	-3.407901288734694
O	-2.4771082877857142	1.3998302405306131	-1.681506678734694
O	-1.1891801897857142	0.9154575775306131	-1.9587842087346938
O	-0.39196987778571435	0.6639036002306131	-0.8921153257346939
O	-6.484165717785714	1.550056825530613	-1.273652930734694
O	3.241770432214286	-6.873763198469387	-4.781290448734694
O	2.2644720722142857	-9.383960578469386	-2.127711498734694
O	-1.3734953822857143	-8.745567008469386	-3.095701678734694
O	-0.7631200827857143	-5.038266608469387	-2.735112958734694
O	0.7100114122142855	-5.729987808469387	0.6964065112653062
O	-2.2472093887857145	-7.922903278469386	1.5991799912653062
O	-4.629620357785715	-5.178432768469387	0.667168381265306
O	-2.700431197785714	-2.776878518469387	2.849535641265306
O	-2.7218650177857144	-5.090465448469386	5.683462141265306
O	-6.499671917785713	-5.656192898469387	5.259143791265306
O	-6.912398467785714	-1.9081018184693868	5.521914151265306
O	-5.120590467785714	-1.177257558469387	8.694753031265305
O	-6.807270307785714	-4.270404018469387	10.112891341265305
O	-10.265356197785716	-2.891282658469387	9.248422671265306
O	-9.287146517785715	0.537242921530613	10.667240541265306
O	8.718108332214285	-6.691146698469387	-0.05278684273469392
O	7.892542202214285	-5.422941018469388	3.362326011265306
O	4.593129992214285	-5.094362658469388	4.962962981265306
O	3.150392152214286	-3.591500088469387	8.152946201265307
O	0.026133092214285725	-2.434509188469387	6.396170111265306
O	-1.5779673027857144	0.967023704530613	6.345016831265306
O	1.265508482214286	2.788550431530613	4.683267571265306
O	1.2407184722142857	5.629420951530614	2.209502961265306
O	0.9488563522142859	9.389518721530614	2.8682264712653063
O	2.9846903322142855	11.955317221530613	0.906362841265306
O	-0.21817830778571423	12.710278221530613	-0.995079326734694
O	-0.4895592647857143	9.086142741530614	-2.109236428734694
O	3.046682872214286	9.013972501530613	-3.416527848734694
O	3.0536278022142853	12.300929821530614	-5.380175068734694
O	-0.5267322147857143	12.514988721530614	-6.446824138734694
O	-3.099806777785714	10.031409181530613	-5.534106108734694
O	-1.6326557747857142	6.7159879615306135	-6.713028778734694
O	-6.128694887785715	6.4066998815306135	-9.673129838734694
O	-3.6438817977857143	4.594262201530613	-11.828853658734694
O	-6.666122457785715	-3.160873498469387	-13.472495958734694
O	-5.294030347785714	-2.076856208469387	-9.982177868734693
O	-1.8181546497857144	-1.250803798469387	-11.507698958734695
O	0.07127348221428575	-4.404713158469386	-10.544720758734694
O	2.6543863122142857	-2.2929228284693868	-8.650981558734694
O	4.334652232214285	-1.496634188469387	-12.080491258734694
O	7.912152072214285	-4.534394008469388	-10.448599658734693
O	6.503997922214285	3.899532241530613	3.5564391212653064
O	5.027001682214285	5.264347351530613	6.781505361265306
O	1.3325588722142858	6.077126361530613	7.464070491265305
O	4.0875041822142855	1.758657011530613	9.952460241265307
O	3.8328060122142857	0.13060289253061308	6.536462241265306
O	5.4176148122142855	-0.15365372746938688	3.041557981265306
O	8.710511232214285	-1.6027581284693868	1.8327973112653062
O	-2.5971437277857143	-14.920477678469387	1.5245377212653062
