103

O	1.0792418297500004	-2.4793788550791658	1.6312574313472221
O	2.2464557597500003	-2.272011665079166	0.8526792713472221
O	2.0780467697500002	-2.148534425079166	-0.6013167940527778
O	0.10462996275000029	-1.487866705079166	1.3354423913472222
O	0.2384111157500003	-0.7195767850791661	0.1518651683472222
O	0.8202441367500003	-1.4845474850791658	-0.8927514826527778
O	0.7681075377500003	-0.3864447150791659	-1.815963228652778
O	1.0551203897500003	0.6020039369208341	-0.11865420565277784
O	1.8345699897500003	0.4373243049208341	-1.2717563986527778
O	3.17502193975	-0.135706565079166	-1.3172952276527778
O	4.011850719750001	0.5181018639208341	-0.40797758865277783
O	3.09583376975	1.4254009009208342	0.013545033347222124
O	2.0079941797500003	1.094861962920834	0.8973199913472222
O	1.0086725997500003	1.208533697720834	1.778943941347222
O	1.2871527397500004	0.34295168992083414	2.854374071347222
O	0.36130705575000027	2.173034048920834	2.368580001347222
O	0.3453847387500003	2.019263932920834	3.684602321347222
O	1.4368180397500003	1.238322658520834	3.7843787313472217
O	1.8621611797500004	1.011367173920834	5.131164311347223
O	1.5611347797500004	1.906153028920834	6.109951751347222
O	1.2142674997500003	3.100958534920834	5.649583081347222
O	0.1756199787500003	2.858202194920834	4.795594791347223
O	1.0982848597500003	-0.08007243507916595	-3.043961578652778
O	2.2882986297500003	-0.4305829750791659	-3.710061228652778
O	3.37749999975	0.41244114992083414	-4.175278808652778
O	2.6703799097500003	-1.5357852050791658	-3.204665168652778
O	4.705988109750001	0.16357894492083402	-4.216960198652778
O	5.591194989750001	0.9068641339208341	-3.344235868652778
O	5.39825036975	2.2195505299208342	-3.365799468652778
O	3.30661300975	1.774522825920834	-4.262971428652778
O	4.091317499750001	2.4337925249208343	-3.269821308652778
O	-3.91074999025	5.902052564920835	11.444861331347221
O	-0.5068082332499997	0.237222774920834	11.126433631347222
O	2.1741097697500003	-4.937577215079166	9.414455531347222
O	-0.9751718162499997	-5.482096435079166	11.494101731347222
O	1.1949999197500003	-9.717758315079166	8.828608351347222
O	-2.3103298302499997	-8.665587575079165	7.7787806813472224
O	1.3612365897500003	-9.219253615079165	-6.774324938652778
O	-0.6664808972499997	-6.056493845079165	-7.523086738652777
O	0.07586565775000027	-6.207066155079167	-11.29548586865278
O	3.7815519497500003	-6.447498425079166	-10.475528998652779
O	3.4356692897500003	-3.412515125079166	-8.144601908652778
O	1.7918110297500003	-1.549646165079166	-11.050221168652778
O	7.25937136975	-1.216455405079166	-11.031560468652778
O	5.283439509750001	2.091569111920834	-10.86065736865278
O	9.455462489750001	4.4617921349208345	-12.40162526865278
O	-12.11074681025	-5.7592099250791655	-8.757450608652778
O	4.145678519750001	7.200124364920834	-10.792082168652778
O	1.4828262597500004	7.391217954920833	-8.084042428652777
O	1.8723398797500004	7.930219544920835	-4.363321708652777
O	2.25435863975	11.145300334920835	-2.3094163086527777
O	0.6111246927500003	11.670482984920834	1.0518217113472224
O	4.090324719750001	10.940137124920835	2.579346461347222
O	4.20933148975	7.4720187649208345	0.9500115613472221
O	0.7586517627500002	6.765280194920834	2.171267551347222
O	1.1640229297500004	7.817494684920835	5.909583231347223
O	4.922254559750001	7.1650539149208345	6.448567801347222
O	7.18113339975	5.809797174920835	3.777402541347222
O	5.621008379750001	2.600187834920834	2.6194178713472223
O	5.28525467975	1.4453391369208342	6.299753411347223
O	8.82714395975	2.247654497920834	7.106456901347222
O	9.964587389750001	0.06881481492083408	4.107910511347223
O	7.357584769750001	-2.629348725079166	4.792382881347223
O	8.618464009750001	-3.2191164250791657	8.40339485134722
O	11.74796298975	-5.143167745079166	7.316600901347223
O	10.03730528975	-7.037191645079165	4.515338931347222
O	7.271338169750001	-8.135033515079165	6.888077221347222
O	11.79742478975	-11.339109415079166	6.914099601347223
O	6.36317363975	-10.644188315079166	-3.128691298652778
O	10.01054668975	-11.738940615079166	-2.658714708652778
O	9.805802559750001	-9.645040315079166	0.5692728113472222
O	8.411049469750001	-6.414913415079166	-1.1703314176527777
O	5.07599081975	-6.800926595079165	0.8026490213472223
O	2.89235862975	-8.370304985079166	-1.9057867886527777
O	0.18494858975000028	-5.766105605079165	-1.6260171186527779
O	-1.1864215502499997	-7.423965135079165	1.5904439013472222
O	-5.03792249025	-8.263253245079165	-1.374045558652778
O	-6.451646620249999	-9.368966315079165	1.9657884213472219
O	-10.83305711025	-8.513790875079165	-0.16049986065277783
O	-9.146857050249999	-2.281112635079166	0.08089590634722221
O	-9.37802616025	1.2735991156208342	-1.231357430652778
O	-6.36683623025	2.874558854920834	-2.945839968652778
O	-6.895616070249999	6.0063918549208335	-5.012255898652778
O	-3.62394829025	7.537151004920833	-6.0941220386527775
O	-2.20274863025	10.674112034920835	-7.633350868652777
O	1.4908859797500003	11.672195684920835	-7.887855418652777
O	-5.28343110025	12.961487184920834	-5.1905820986527775
O	-5.763559140249999	10.788971144920835	-2.0865235186527777
O	-7.95431350025	7.920095734920833	-0.9803881076527778
O	-6.379395200249999	5.355243714920833	1.328560921347222
O	-8.61854775025	2.676485414920834	2.851173011347222
O	-8.296573720249999	-0.288677085079166	5.149834851347222
O	-7.51473050025	-4.327243365079166	8.356026141347222
O	-5.190399450249999	-2.524322795079166	12.774537331347222
O	-6.019437450249999	0.851950327920834	11.208198331347221
O	-6.302657450249999	2.637962254920834	7.870305091347222
O	-7.65046544025	6.048961624920834	6.766515521347222
O	-6.482735090249999	8.720456964920833	4.338175551347223
O	-2.88167701025	4.285395004920835	-8.649044058652779
O	-6.2114726102499995	2.355025154920834	-8.54585794865278
O	-6.36697637025	-0.4666524450791658	-6.011262938652777
O	-10.09318836025	-1.267945885079166	-5.459894978652778
O	-10.65546731025	-4.721327695079166	-3.9752240386527777
