88

O	-3.7334871426779666	0.09181049318644052	1.0383386649152548
O	-2.0070866026779663	-2.1028846468135596	1.2903926049152548
O	-2.3504097526779666	-1.8501329368135593	0.1575723579152548
O	-2.0989510756779666	-0.42105929681355936	-0.2458437100847452
O	-1.0034525596779666	0.23617851818644053	0.47831040291525484
O	-1.6516681726779665	0.4473311171864406	1.5908931349152546
O	-2.1548839616779665	-0.9374282668135594	1.9684600649152546
O	-0.0670120726779666	1.1798859481864405	0.6944645649152548
O	-0.012441802677966685	1.5663521361864405	2.0525157349152545
O	-1.3383615833779665	1.4423737091864406	2.3672179549152546
O	-3.5488684426779664	-2.5030679768135595	-0.3284614080847452
O	0.7295675473220333	2.0772648331864403	0.0016985689152547723
O	1.8617271173220336	2.2291971731864404	1.0361439349152548
O	2.0508132173220335	3.3120721331864402	1.7632915349152547
O	3.322700567322033	3.7440243231864407	1.8895239649152547
O	4.324271597322033	2.8948796431864405	1.4308135949152547
O	3.9988940073220336	1.5419322381864404	1.2312865549152547
O	2.6833481173220335	1.1579450631864405	1.2606062849152548
O	-2.0450572066779666	2.6922907731864405	2.4010327949152543
O	-1.4358736156779666	3.9538444231864407	1.815951344915255
O	-1.4660522996779666	4.33198687318644	0.4668796139152548
O	-1.1884563616779666	5.59108570318644	0.019578431915254768
O	-0.8630567616779665	6.4539984831864405	1.0654420849152548
O	0.0290176073220334	5.84474893318644	1.962679554915255
O	-0.5415065226779666	4.707676153186441	2.521555054915255
O	2.3415798773220335	-0.12748883681355938	0.6131464549152548
O	5.070038557322033	0.7876258041864406	0.8364873449152548
O	5.986786217322034	1.2925659591864407	-0.13137019108474524
O	5.526366157322033	3.43029286318644	0.7005612549152549
O	14.266271587322034	4.975213663186441	6.802686064915255
O	1.5798898273220332	-1.9337530068135595	10.921303634915255
O	1.4266543373220335	-3.9451309768135596	7.688684774915255
O	-1.7711052806779666	-5.82298908681356	8.656671244915254
O	-3.3828579726779666	-2.4830418468135598	9.444261544915253
O	-2.3062885926779666	-1.1549764368135593	5.983665674915255
O	-3.9684050326779667	-4.216682276813559	4.471728144915255
O	-7.105730862677967	-3.71599294681356	6.541480354915255
O	-7.492454482677966	-0.09565669681355948	5.391778754915255
O	-7.0263310926779665	-1.1830334268135594	1.748450544915255
O	-9.647506782677965	-3.9559110968135593	2.277932804915255
O	-12.124391112677966	-1.4882622168135595	3.870751194915255
O	-11.512145912677965	0.8389483671864406	0.7909313649152547
O	-12.451479612677968	-1.7408135968135594	-1.8606513750847453
O	-16.134965012677966	1.3336737731864405	-3.180454295084745
O	4.752770707322034	-12.130324066813559	2.8356936349152546
O	1.6884471073220335	-10.14970996681356	3.8450866549152547
O	-0.9890630196779666	-10.62488326681356	1.2038989049152549
O	-7.610063832677967	-4.882192306813559	-0.8877274200847451
O	-7.881905542677966	-2.0184360668135595	-3.2829096950847454
O	-4.364889832677966	-2.234736646813559	-4.612874925084745
O	-2.0923965536779665	0.6141500691864406	-5.663811035084745
O	-1.8046954836779667	2.3773424031864403	-9.063449385084747
O	1.5087034973220335	3.386572663186441	-10.605447065084746
O	0.7029105973220333	6.97245054318644	-9.497561665084746
O	0.3959575973220335	5.8686657331864405	-5.871550115084745
O	3.7937427773220334	4.11452847318644	-6.048021765084745
O	5.860416607322033	6.82348400318644	-7.648219305084745
O	4.127657297322034	9.90117254318644	-6.394499995084745
O	1.1279651073220336	9.82319490318644	-4.131799735084745
O	2.3678680973220336	7.731686803186441	-1.232884372084745
O	5.534564047322033	9.84703246318644	-1.036220862084745
O	3.639117937322033	13.124857533186441	-1.1721783420847451
O	1.4164773373220334	12.16031893318644	1.7576043049152548
O	4.299742227322033	10.48217353318644	3.6364700449152547
O	3.674953767322034	12.10340413318644	8.491475394915254
O	1.3919288273220336	4.17106408318644	12.503009234915254
O	1.6187363573220335	9.18007494318644	11.569514034915255
O	0.37362813732203337	7.11888034318644	8.528929844915254
O	3.9884002373220335	5.88489200318644	7.7512276649152545
O	3.8407948473220337	2.451114883186441	9.370659094915254
O	4.961991687322033	0.7958760501864406	6.163282144915255
O	8.578441207322033	1.8123344881864405	6.840055984915255
O	9.178596587322033	-3.12531836681356	7.597014284915255
O	5.637721627322033	-4.919483096813559	-3.0366785850847453
O	3.521292497322033	-6.44813172681356	-5.699174935084745
O	0.25823625732203337	-4.63204609681356	-6.193191785084745
O	-2.6710399226779664	-4.5029794168135595	-8.586518805084745
O	-5.493062102677967	-1.9074551568135594	-8.718105895084745
O	0.3350346173220333	-5.08543321681356	-11.920739265084746
O	3.509934307322033	-3.4472208168135596	-10.553209765084747
O	7.995831307322033	-1.8627799568135595	-6.232586715084745
O	9.167424087322033	0.24923165318644058	-10.013461115084747
O	-6.387967382677966	-7.307763246813559	-7.183469785084745
O	-4.543235502677966	-6.3799256068135595	-4.036167665084745
O	-1.0983108176779666	-5.86699859681356	-2.406487795084745
O	1.5992321673220333	-8.33662426681356	-1.3171477890847452
O	4.394354067322033	-7.048402116813559	0.7899801249152547
O	7.344602457322034	-9.49525136681356	0.6129737949152547
