37

O	0.48655457316748674	9.040444138738891	25.83900594373155
O	1.5670031901301846	9.534197766332223	26.652122452620752
O	5.351311252372089	11.658478888696985	23.033876198583922
O	-0.262968240077857	10.343521590740863	25.586362821133587
O	3.3652263011642045	12.209670944597784	23.893508751435018
O	9.931386616979239	15.334101089533085	23.604482655443366
O	0.6436495591442402	11.522155179112271	25.468868528853132
O	6.155103750874899	13.40410612402557	26.014883424877606
O	1.690343204004645	6.720209953588262	26.69430481018093
O	0.8199846035237641	8.673232198806012	24.430706625483236
O	7.864342776336104	12.804693481763078	24.540318564117495
O	2.859518891497184	9.564294751297433	25.986967780629723
O	2.5560426295106695	5.998699756770574	25.15728965564186
O	2.8528217694524485	9.609109427631806	24.495470252034416
O	3.8756641122800723	10.112036410745077	23.95826056670845
O	4.156056393666541	11.293200402414469	23.25950954506558
O	3.866808685186629	13.15914667102529	24.654683673145872
O	5.270135984909312	13.46971249939856	24.125405265797554
O	5.617233589419086	14.44281066878761	25.179420790748605
O	5.012117341296749	12.910717777529609	26.648295170852222
O	3.881781964148648	12.378591721553104	25.961422698492747
O	4.0490240030680615	14.088258271414617	26.878796461592632
O	4.314336884131212	14.928045077554291	25.71299884872474
O	7.440950908034757	12.870486710650255	25.78873952037893
O	9.197689885237818	12.914975838148301	24.287378987144685
O	10.122902604837275	13.67247882981064	25.043064521729935
O	10.456956196933564	15.136010602889755	24.761441123533267
O	9.812288666624834	16.284669090737584	25.578188468738396
O	8.545793122697049	15.706503531700065	26.321518996708893
O	8.235569288714085	16.097156369593776	25.080569214793762
O	8.450344495311967	12.89137597076216	26.683723531876705
O	9.607581584120291	13.633984256153644	26.31923279675434
O	3.4394904506413053	8.35819150230073	26.107331346378476
O	2.9411894443996482	6.953229445386691	26.24615991127193
O	4.763248992973463	8.744194484805888	25.781306249018456
O	4.992262021518915	9.5292802928065	24.632933594383104
O	6.128164898924325	10.406969211759716	24.849760182263122
