82

O	1.262594410982456	1.484634215842105	-4.863493861892983
O	-0.566183758017544	-1.6636117441578948	0.3768306481070173
O	-0.5254801980175441	-2.690243624157895	-0.5161331718929828
O	-0.46678808301754404	-2.120515984157895	-1.7315829248929828
O	-0.07897136101754398	-1.0301331651578947	-1.2427702258929827
O	-0.907259143547544	-0.6251028031578947	-0.30421648389298284
O	0.9504812509824561	-0.11980019235789477	-1.4772509838929828
O	-1.4736969670175442	-3.8386654341578947	-0.42482090389298277
O	-2.516782009017544	-3.448048134157895	-0.9340200053929828
O	-1.271623008017544	-5.118042174157895	-0.7765224328929828
O	1.1664288709824562	-0.06359453261789476	-2.855173661892983
O	1.7056991009824558	1.1508604758421053	-3.149877851892983
O	2.435780930982456	1.8403778558421051	-2.255275481892983
O	2.386160150982456	1.6425329558421051	-0.9224191974929828
O	1.799428550982456	0.4921726828421052	-0.5383284048929828
O	-0.45782483201754404	-4.999302734157895	-3.8025675518929827
O	-1.121065299017544	-3.796486994157895	-3.2580743818929827
O	1.366674950982456	-5.168581244157894	-2.6340159918929826
O	0.6706713709824559	-4.080208684157895	-2.0464512418929828
O	-0.017268519017544004	-3.008638004157895	-2.6831810418929827
O	1.2609449609824561	0.5061222478421052	0.7677667181070172
O	0.32107088098245606	-5.955250894157895	-3.1820795718929826
O	3.262165630982456	2.816625225842105	-2.7232271518929827
O	-2.3053512590175442	-5.935711964157895	-1.2592565948929828
O	-3.410634379017544	-5.785435584157895	-0.2828726418929828
O	10.943440200982456	1.6618216758421052	-4.211219881892983
O	7.9836747509824555	3.2081007658421052	-2.384330101892983
O	9.245530800982456	2.3576926458421053	1.0863423081070174
O	9.730656100982456	-1.2164000341578949	-0.10398567789298285
O	6.120062950982456	-1.2575941241578947	-1.4317696728929827
O	4.982361730982456	0.03540765884210524	1.928946958107017
O	7.069110370982456	-2.643160014157895	3.7436492281070173
O	5.555672990982456	-5.472449854157895	1.6426034081070173
O	2.082443380982456	-4.124937624157895	2.429443918107017
O	2.876833030982456	-3.976307044157895	6.1115950281070175
O	4.270432910982456	-7.569022534157895	6.027814928107017
O	0.9864343009824559	-8.675736214157894	4.356884008107017
O	-1.465518471017544	-7.2527745141578945	6.882067978107017
O	0.837259350982456	-8.610379884157894	9.556462398107017
O	0.712121600982456	-12.144063524157893	8.043459888107018
O	-3.053520049017544	-11.939958024157894	7.542426108107017
O	-3.677492079017544	-10.884364224157894	11.118691998107018
O	7.705831810982456	10.344551875842106	5.502112948107017
O	4.017518710982456	11.896879575842107	1.2652799381070174
O	4.855467470982456	8.248945935842107	2.0160278881070175
O	2.3700959109824558	6.948119445842106	4.546300458107018
O	1.9561607709824558	3.380848825842105	5.609310458107017
O	-0.521167643017544	1.3825696258421052	7.6897860781070175
O	-0.23708817701754403	-1.7104978041578949	5.502918138107018
O	-2.933346399017544	-3.724060084157895	3.975923598107017
O	-4.332990169017544	-1.0295090351578948	1.6738532081070172
O	-5.836551579017544	-1.0955112141578949	-1.8480729978929828
O	-9.318342939017544	-2.172913134157895	-2.9186451818929826
O	-11.103697299017544	-0.4250770241578948	-5.791145461892983
O	-10.453399249017544	-3.576220024157895	-7.8380671118929826
O	-6.761726439017544	-3.2047483241578947	-7.313535691892983
O	-6.685430699017544	0.3874279968421052	-8.388591511892983
O	-8.703833689017543	0.06844761684210524	-11.589743801892983
O	-5.592388259017544	-5.664403374157895	-10.796722491892982
O	-2.4316992090175438	-3.570466544157895	-10.539860701892982
O	10.271808600982457	-6.265223334157895	-12.036271101892982
O	7.539748410982456	-5.489188724157895	-9.390591551892983
O	6.824948920982456	-2.014053244157895	-11.036675901892982
O	8.861183330982456	0.21416619884210525	-8.711379211892984
O	5.919121900982456	2.426108535842105	-8.079490691892984
O	6.225422270982456	4.154533745842105	-11.418718301892982
O	7.565128520982457	8.027308995842105	-8.541417561892983
O	-2.676955209017544	7.597765355842105	-3.7711499918929827
O	-5.099310829017544	7.548325965842105	-0.9034004189929828
O	-5.787172849017544	4.0839147358421055	0.31370217810701717
O	-8.088144499017545	2.0247409658421054	2.5142151381070175
O	-8.445122159017544	-1.7854353341578948	2.680073558107017
O	-11.386379099017544	4.794541965842106	1.0893766881070173
O	-10.246216939017543	5.729470795842105	-2.4655869518929827
O	-7.226290089017544	6.873074775842105	7.481041348107018
O	-8.183014219017544	3.647205505842105	9.239732998107018
O	-6.219461199017544	1.2820029158421051	6.900902738107018
O	-3.264004469017544	1.7218040758421052	4.6759586381070175
O	-1.889384466017544	3.913270275842105	1.8953278881070172
O	-0.5493199740175441	7.404089655842105	1.4475125481070172
O	1.341693540982456	8.098240875842107	-1.7224811438929828
O	13.318803700982455	-1.966924174157895	6.743108528107017
