87

O	5.456254421137931	-0.4932128959655173	3.040844822310345
O	2.228652211137931	0.8911709230344826	2.036948732310345
O	3.447245631137931	0.5596118830344826	2.669943232310345
O	4.275309791137931	1.5210804377344826	3.1928074423103454
O	4.104559521137931	2.7525579940344826	2.535658792310345
O	4.173039101137931	-0.6323100159655175	2.5052643523103453
O	3.1716903211379313	2.9366678340344827	1.5185830323103453
O	1.973522391137931	2.2150233920344826	1.7604890223103453
O	5.377732341137931	0.7633083440344827	3.615004292310345
O	-2.5175142788620692	-0.6158188659655173	-1.8545109376896547
O	-3.2085435388620693	-0.05460013596551727	-0.7998279236896548
O	-2.198667448862069	-0.0356244059655173	0.3013084093103451
O	-1.210441023862069	0.5876750300344826	-0.19302691708965486
O	-0.3742756728620691	0.3233957940344827	-1.3704712576896547
O	-1.0762185718620692	-0.5806920359655174	-2.184593567689655
O	-0.762811520862069	-1.2346031059655174	-3.2226336276896546
O	0.5386619311379309	0.7695437430344827	-0.4572285846896549
O	0.34316205113793086	2.150955038034483	-0.21612777977965486
O	-1.051250459862069	1.9624251080344828	0.25937903031034515
O	0.968949191137931	2.8529781740344826	0.9097882223103452
O	-1.661026860862069	2.865806614034483	1.2323462323103451
O	-1.174404363862069	4.255345974034483	0.8162685023103452
O	-2.449633298862069	4.983419384034483	0.38355950831034513
O	-4.4461229988620685	4.056174244034483	1.3807352623103453
O	-3.303933888862069	4.904442494034483	1.5387077523103452
O	-5.1506645488620695	3.823775514034483	2.6809393423103454
O	-5.349117678862069	4.4358368340344825	0.24620731831034517
O	-3.556923538862069	1.3810145180344826	-0.7014383516896548
O	3.4342279011379304	2.6478081440344825	-0.6833021956896549
O	14.351687781137931	7.674897474034482	3.221629032310345
O	4.515799491137931	5.913418614034482	-7.899984577689655
O	3.9267931311379307	2.254289281034483	-7.055602927689654
O	1.4618017711379307	1.6605657820344826	-9.909490417689655
O	-0.486229869862069	4.730755794034483	-8.796571217689655
O	-0.576708316862069	3.3468511140344823	-5.182206157689655
O	-1.948282108862069	0.10795409403448275	-6.638082537689654
O	-4.545212488862069	1.9930400090344826	-8.719618347689655
O	-5.781024378862069	3.8871958140344827	-5.558161977689655
O	-6.083606568862069	0.5730227270344826	-3.730656577689655
O	-7.9735811588620695	-1.0038262059655174	-6.6131046776896545
O	-10.330847998862069	2.0651341010344826	-6.701356567689655
O	-10.917304368862068	1.6057289400344827	-2.8880722776896546
O	-11.989652818862067	-2.0464345559655177	-3.0206435576896546
O	-16.357154218862068	-0.5835839459655172	-1.153798714689655
O	7.48829240113793	-7.169432815965517	-8.029648937689656
O	4.4300325611379305	-4.943710235965518	-8.379394867689655
O	1.310288061137931	-6.955950895965517	-7.653601477689655
O	-2.171387158862069	-5.659351985965517	-7.183331937689655
O	-6.570672098862069	-3.884468855965517	-4.378163677689654
O	-7.9247798488620695	-3.4306804759655174	-0.9161981226896548
O	-4.836915108862069	-4.652768895965518	0.8989124023103451
O	-3.373515948862069	-3.3827608559655173	4.158933282310345
O	-4.206255048862069	-4.401199445965518	7.750756922310345
O	-1.571165377862069	-4.8572834759655175	10.452257732310345
O	-2.617015748862069	-1.4366487759655173	11.791078632310345
O	-1.886289140862069	0.22721987403448263	8.462152072310344
O	1.6149678811379307	-1.3139427659655174	8.403623712310344
O	2.7732122211379306	-0.5271402359655173	11.905305032310345
O	0.8970709011379309	2.636801354034483	12.615780832310344
O	-1.417359202862069	4.242866314034482	10.159262632310345
O	0.801198781137931	4.6501779940344825	7.133459342310346
O	3.494997771137931	6.218813014034483	9.271638592310344
O	-0.264927141862069	9.924107734034484	7.677488592310345
O	3.2348030311379308	9.973032074034483	6.138598352310345
O	3.491060531137931	14.489837874034484	3.647068542310345
O	3.572426371137931	11.474373714034483	-5.047244517689655
O	2.776019951137931	14.536963774034483	-1.0295734856896548
O	1.1324948211379309	11.028821224034484	-0.6567510986896549
O	4.570135891137931	9.386664684034482	0.13751694631034514
O	5.405565451137931	7.969653044034483	-3.271870617689655
O	6.171693721137931	4.5199097040344824	-1.7593965876896547
O	9.540668781137931	5.648825024034482	-0.5372926046896549
O	11.136082081137932	2.5051526740344827	-4.089970817689655
O	14.417548581137932	3.2901538940344826	-2.4023528876896547
O	5.567245451137931	-5.923264255965518	1.0158369223103452
O	3.1775251511379308	-8.857294725965517	1.1916457123103452
O	-0.367471905862069	-7.711367025965518	1.7820809523103454
O	-3.798562278862069	-9.143408225965517	2.6331472423103452
O	-6.945635698862069	-7.1578551459655175	3.620141512310345
O	-1.6232155698620692	-11.978061925965516	5.442508212310345
O	1.4579876011379307	-9.970028525965517	6.524983072310345
O	6.546529041137931	-6.042114545965518	5.897515862310345
O	-6.521826668862069	-10.004756925965516	-1.2950876676896548
O	-4.141811098862069	-7.230994825965518	-2.2842389976896547
O	-0.5503680398620691	-6.110394975965518	-2.101527477689655
O	2.772995011137931	-7.248617525965517	-3.6550471876896546
O	5.74185316113793	-4.908884655965518	-3.3952786376896547
