27

O	0.8098369820886632	6.69842711720287	27.705160123312048
O	2.8778627320790853	6.462810964975048	25.676128229086203
O	1.3606251114103904	4.524641908916274	26.360048127486678
O	1.972896040973462	5.737969311118024	26.915306079670064
O	-0.35617950204225846	9.779401497360539	26.15950529635622
O	2.9375007074834487	5.321244480717173	27.914304080884815
O	4.271109725576574	7.377124208662822	25.860134795532804
O	-0.04014244429089153	11.030157975671056	25.434157146599
O	-1.8071992404046484	9.872809374656686	24.183417084790936
O	1.2859819009465987	11.139523771571257	24.984813645186048
O	-2.3471490493895044	11.758072924239627	25.229037081073447
O	-1.3761971871049417	9.15385096220148	25.4200590909475
O	0.6633889256122988	8.839787695186985	26.42420563561212
O	-1.0866403617799518	11.703067042768895	24.755784894132905
O	2.3544250649625735	7.107727212222418	24.638479014735033
O	0.21748292634453958	7.602495295435497	26.823145306515094
O	4.551362467988403	7.65513046638473	24.15456351049418
O	3.298466661994752	7.2623525951280605	23.678304489885097
O	1.633377985856963	11.794119755469707	23.82847226669282
O	-0.8225384928498894	12.28692449618427	23.61932904852673
O	0.528503526470015	12.448516802799867	23.271155598185057
O	-0.7064851286986387	7.98267960709941	24.793977555746814
O	-0.2381979549460026	7.004154909706974	25.626276617353238
O	2.358723132208515	10.346702608507462	25.44358133434396
O	2.85329138533404	11.630388555417662	23.247514764905706
O	3.688611860194145	10.674583537389308	25.148823480293704
O	3.8973859462439773	10.978035068194389	23.83415476840965
