35

O	4.0117942095956725	13.482816411064004	24.90115845638592
O	4.108165322184359	12.168971453430933	24.3102896322579
O	5.37994900203532	11.695737466822337	24.19522041324525
O	6.677828698929163	12.284739510752459	24.561527017423735
O	6.571132366517355	13.475852732489043	25.380297344484376
O	5.185532653870989	13.9740955961625	25.614081472000986
O	5.087821758139837	14.124614327626938	27.09907370474481
O	5.492002801974421	15.38382016018592	25.324706609316145
O	7.773061750961663	11.732826804498071	24.400053866448747
O	5.203647374426595	10.366984610005519	24.296342742319176
O	3.9461199992238534	10.109980865083816	23.991078869892956
O	3.261967271913347	11.220954616448193	24.004374594850475
O	4.022585412858591	8.684478468695161	23.7152879225872
O	1.9001165172756558	10.968523227627813	24.307953823558837
O	1.5647534894571402	11.609377543428302	25.46035676831476
O	0.39211095538732554	11.334752234759655	26.17381214037864
O	-0.24571835081546556	10.201175478007034	25.778421071907264
O	0.5838161804676336	9.20158557695874	25.373457287412442
O	1.8190896204625864	9.616742896955829	24.875245602508222
O	-1.5856057663224639	10.09102584625665	25.227830579821806
O	-2.3724188289205013	10.544535165165874	26.07780587289188
O	-1.7373351929108227	11.129319967881214	24.151435749815636
O	0.8439270028907894	8.314602079772376	26.394381203568056
O	2.185088039136514	8.317571982201203	26.79519304124047
O	2.7873500873939534	7.516179258846622	25.88874899703199
O	4.212092666287736	7.527558792697791	26.138373575992542
O	4.920870255764648	8.46108071677635	26.773833521163123
O	4.137823819789946	9.46788365493306	27.182529257544985
O	2.7454386406291986	9.503759033203346	27.016066365095945
O	4.772061410448122	10.658272973898754	26.985466048911263
O	4.166029213377995	11.650959927884475	27.59513535475513
O	5.868814535410972	7.931984210689567	27.57632508529087
O	5.139108605612033	7.2607243280199505	28.6800013005725
O	4.7085501700218	6.294248636855712	25.788735686430577
O	4.329298977177179	5.526270817518056	26.887771789342004
