29

O	2.3024283797334357	14.144789445330469	24.03554426367855
O	4.519700823272993	12.664852197318279	23.67165588348783
O	1.2460051551648568	10.375241927906465	26.098173317864386
O	5.464375250511113	9.470599098857587	24.848723483988955
O	3.265895895618366	12.659911878989728	24.199887512924338
O	-1.1271597301762397	10.166332232196623	25.824764929198913
O	6.564966706702241	12.157316371620821	24.364176722861963
O	2.586422021125829	11.485761240978253	24.350728271793
O	-2.1169014195287934	11.680451704632056	24.100610920538642
O	2.418042704054246	7.853942020175306	27.464580496580357
O	3.425216266624008	10.424290068492422	24.575462003810912
O	1.6094287032407903	12.378969451567677	21.355440102742392
O	4.794232959263713	10.648059728128947	24.799802698144475
O	1.7145327938181913	7.482064662278843	25.259289871804842
O	5.341036877658293	11.674510884005803	24.10613059718583
O	1.2746938624663526	11.313173306601055	24.965366457456966
O	0.09051925229146435	9.852353847255875	26.406803178472348
O	0.08015520487894445	11.26284090932776	24.17211466795952
O	-1.1457580133989778	11.062774123812734	24.914748065006748
O	-1.5974229247825842	11.835828612663915	22.908493089226045
O	-0.1963354124782679	12.064412908034386	23.13456340307169
O	0.7315160436954298	12.197804399859969	22.067385102754187
O	4.809899678235649	8.456062100949897	25.633048892363746
O	0.32217295872382656	7.253535109338405	27.453455244358413
O	1.5376116183348607	7.38445808270307	26.63769908748095
O	6.918542820891651	13.457581950652317	23.968598188550764
O	0.9420364657377317	8.016465445544245	24.164240493536404
O	2.500322272141234	6.4216674173620945	24.63161747815122
O	-0.06462207662870789	8.965327687934206	27.992912532992992
