85

O	0.8788797302034481	-1.2382253963275867	1.5493846317379303
O	1.1964948232034482	-0.694719246327587	-0.2634600117620697
O	0.6872603912034483	-1.9752062363275869	-0.4106484486620697
O	2.044776803203448	-1.079779326327587	0.7173472517379302
O	0.2908361272034482	-2.3195700663275867	0.8427101517379303
O	0.7662590052034481	0.741005747672413	-0.1460236682620697
O	1.3591420932034481	-1.6797569463275868	2.83038352173793
O	3.1325416732034483	-0.495567166327587	1.2346042617379303
O	-0.41281576879655185	1.339323751672413	0.3133693507379303
O	1.7511595032034482	1.549793055672413	-0.6361583422620697
O	-0.3196656457965518	2.567168773672413	0.8887761117379303
O	3.861356923203448	1.766541079672413	1.8369739517379302
O	0.7472719452034482	3.3450085436724133	0.42766457873793035
O	1.6809955132034482	2.903075513672413	-0.4599933062620697
O	2.9349329232034482	0.778487546672413	1.7875229517379303
O	5.050715273203449	1.304010369672413	1.5180493017379302
O	3.968807673203448	3.109565073672413	1.6332040717379304
O	5.634079873203448	2.297816183672413	0.6818640217379301
O	5.236096533203448	3.4822026236724133	1.1945745517379303
O	4.133201603203448	-0.39789762632758696	0.41665879573793035
O	2.1920791232034484	-1.086130476327587	3.59689770173793
O	5.322801863203448	-0.015090538327587	1.1744329117379302
O	2.167864123203448	-2.9016981363275867	2.9539897017379304
O	-1.3027811867965517	0.37848221867241305	0.8202353517379302
O	0.43553054420344817	4.677319443672413	0.40949034973793036
O	2.875668163203448	3.556221433672413	-1.0801930032620697
O	3.8597428332034482	2.445371573672413	-1.6273382482620697
O	1.3255480332034482	9.550621333672412	6.330968361737931
O	-0.5406847037965519	7.764244813672414	3.4792959317379304
O	-3.317241236796552	6.558102463672413	5.75185506173793
O	-0.7109155177965518	5.056642583672414	8.04650564173793
O	0.8621537422034482	3.321067303672413	5.0002369217379306
O	-2.3135245467965517	2.010317613672413	3.99469265173793
O	-3.1263023667965517	0.861916098372413	7.629761041737931
O	0.12320140240344818	-1.0816716763275869	7.7445724317379305
O	-1.2047633967965519	-2.7250420763275867	4.43942964173793
O	-4.312221436796552	-3.682117756327587	5.74828774173793
O	-2.4935676967965517	-5.142346306327587	8.87334689173793
O	-0.21846495079655182	-7.229074346327587	6.53810681173793
O	-2.946983046796552	-8.880274706327588	4.4755890817379305
O	-4.878969106796552	-9.440588476327587	7.685557721737931
O	-1.8757513967965518	-11.204596776327588	9.311248681737931
O	-1.1922378767965518	-13.216072176327588	6.15403182173793
O	-4.806258276796552	-14.410793376327588	5.90508766173793
O	-10.751382436796552	8.969274633672413	0.8306533917379302
O	-6.404421686796551	7.317700713672413	-0.8551090102620698
O	-7.685746076796552	3.852948283672413	-1.4634191182620697
O	-6.781951016796552	0.863126251972413	0.5467119097379303
O	-7.7056512667965515	-2.8501846963275868	0.22140764073793034
O	-4.525670546796552	-3.926172826327587	1.82157250173793
O	-1.867861846796552	-6.312390556327587	0.6110588457379302
O	-0.9603647367965518	-4.483601706327587	-2.60120354826207
O	2.4976410732034484	-4.102275176327587	-4.19602547826207
O	4.237529743203448	-6.382502876327587	-6.71350599826207
O	6.214241573203449	-5.076813116327587	-9.67500974826207
O	9.384399153203448	-5.905228966327587	-7.71491875826207
O	8.297292493203448	-3.6205853163275865	-4.89978993826207
O	7.635496253203448	-0.735441806327587	-7.27119396826207
O	10.841195963203448	-0.838319446327587	-9.30723142826207
O	12.322083763203448	-2.972141036327587	-3.2304602982620696
O	10.795766863203449	0.23385361967241303	-2.0347143482620695
O	7.114540103203448	8.987495353672413	8.90593128173793
O	11.985362263203449	7.303557263672413	8.93073884173793
O	9.618790963203448	4.984665313672413	6.97245367173793
O	9.566451103203448	7.526078223672413	3.94847137173793
O	6.2329708132034485	9.255740213672413	4.630749861737931
O	4.9915654732034485	8.447938273672413	1.1350899117379303
O	7.072515023203448	11.268524923672413	-0.3589350450620697
O	2.5651905932034484	13.447549323672412	-1.0122282412620698
O	4.765500953203448	15.895040623672413	-2.8536507582620696
O	-0.34225012979655184	4.701139013672413	-7.72058307826207
O	-2.502946886796552	1.846971334672413	-8.86719202826207
O	-1.7541811067965518	-1.3346926763275868	-7.01661878826207
O	-2.5905626667965516	-5.037427476327587	-7.11392331826207
O	-1.0106683467965518	-7.892902506327586	-5.08491352826207
O	-2.214447316796552	-4.691030186327587	-11.60844577826207
O	0.3411784142034482	-1.9019840563275867	-12.12920567826207
O	-9.296743356796553	-3.338830346327587	-8.301945918262069
O	-9.302697206796552	-6.809944666327587	-6.74312719826207
O	-6.375347566796552	-6.1882735263275865	-4.306729398262069
O	-4.912299436796552	-3.1308066763275866	-2.7565912082620696
O	-3.503813656796552	0.28428386067241307	-3.5594466382620698
O	-4.865347686796552	3.631561283672413	-4.63748560826207
O	-2.7396525467965516	6.673736963672413	-4.36901129826207
O	-6.758722676796552	3.930029633672413	12.73920182173793
