85

O	-2.0438432735468757	1.436439734384374	2.4673039713562495
O	-1.4190897225468755	0.711272369384374	3.3617507413562495
O	-1.2935665255468756	-0.581110478615626	2.8570074613562495
O	-1.3211852395468755	1.469275649384374	1.2721949313562497
O	-1.3915326245468755	2.7495834513843738	0.6057414433562498
O	-2.0140886535468754	1.098678911384374	5.00632539135625
O	-1.5422998155468755	2.777197121384374	5.3831481513562505
O	-1.1920316185468756	0.23592767538437398	0.7440295913562496
O	-1.1081920405468755	-0.8505478986156261	1.5676400113562496
O	-1.1761951075468755	-1.880585298615626	0.6690595543562496
O	-1.1906868295468755	-1.439678718615626	-0.5909284106437502
O	-1.7016753555468753	-0.18673794861562598	-0.49747862564375034
O	-2.3308509335468752	3.600334731384374	1.0816518313562495
O	-1.9719840635468755	4.891178211384374	1.2973169713562496
O	-0.8879380211468755	5.394863571384374	0.6736525133562496
O	-0.41171494254687546	4.647881351384374	-0.3982161892437503
O	-0.5329505475468754	3.265789781384374	-0.2960875042437503
O	-1.0459188565468756	6.825602161384374	0.14863426935624968
O	0.7322611664531244	2.678931711384374	-0.7051278376437503
O	-1.7976522375468755	0.813368541384374	-1.4975342186437504
O	-1.4879155335468754	1.148424397084374	-2.5414163086437505
O	-8.457199433546876	1.182054898484374	-6.04658429864375
O	-5.109078673546875	-0.5504424786156261	-5.38121920864375
O	-6.678868153546876	-3.9645595786156256	-4.74592451864375
O	-9.035836133546876	-2.315427648615626	-2.2449054986437504
O	-6.015289433546876	-0.647720318615626	-0.48113043464375027
O	-4.4530813335468755	-4.112229218615626	-0.3238989444437503
O	-7.649725243546876	-5.6195449286156265	1.0768915713562497
O	-7.782234843546876	-2.926547618615626	3.85864209135625
O	-4.129801763546875	-3.627943728615626	4.6885828713562505
O	-4.8385973335468755	-7.399351238615626	4.80044231135625
O	-7.920052093546876	-6.796337128615626	7.04811649135625
O	-5.653429093546876	-4.726341468615626	9.397790491356249
O	-2.990129763546875	-7.383139448615626	9.93246295135625
O	-5.715858723546876	-10.001612648615625	10.24892815135625
O	-1.0327106065468754	-9.259482348615625	-9.763573908643751
O	2.9117019664531245	-4.951719608615626	-9.762848918643751
O	0.2214880264531245	-5.2788572086156265	-7.10516167864375
O	1.5537688364531246	-7.344384908615625	-4.23487138864375
O	-0.05381685654687551	-7.8349519286156255	-0.8774171376437503
O	0.9238152264531245	-9.484148948615626	2.4138142813562498
O	-0.9858795865468755	-6.915802068615626	4.43641840135625
O	0.2047691464531245	-4.965332368615625	7.3892965213562505
O	2.795116056453124	-2.910790088615626	5.48331623135625
O	3.898398076453124	0.654520168384374	6.03950237135625
O	6.383725356453124	2.194064431384374	8.41884532135625
O	3.4417767064531244	6.339823821384375	7.20530472135625
O	5.446594156453124	7.032605851384375	4.0568468613562505
O	6.9188011464531245	10.433877761384375	4.91850515135625
O	4.269846346453124	11.829145651384374	7.17986178135625
O	1.1393550664531245	9.992010101384375	8.13181139135625
O	-0.37413046154687546	9.154601761384374	4.86099679135625
O	-4.6483729435468755	12.005607551384374	6.31002227135625
O	-11.709114023546876	5.917040661384373	-3.4104455586437505
O	-14.759665023546876	7.333126031384374	-1.5624161286437503
O	-12.287739123546876	10.054756551384374	-0.4250357946437503
O	-9.601184313546876	7.5725505113843745	0.8775391713562497
O	-7.0878919035468755	8.779160631384373	-1.8634831686437503
O	-7.473660973546876	5.998544071384375	-4.40765036864375
O	-3.780840193546876	5.3109903413843735	-4.49820227864375
O	-3.1474738935468753	8.394938331384374	-6.68477850864375
O	-5.298364093546875	6.918446361384374	-9.41061620864375
O	-2.1183122635468754	4.918378061384374	-10.14251294864375
O	-1.0942115295468755	8.037312701384375	-11.996519048643751
O	5.215205766453124	4.4379284713843745	-9.100186818643751
O	6.216363796453124	1.159021716684374	-3.4565551086437503
O	8.211510486453124	-1.4655683786156262	-1.5907488286437503
O	6.826007086453124	-2.091351408615626	1.8649793513562498
O	7.659862196453124	-3.836756648615626	5.11782954135625
O	5.821093756453124	-3.4470788586156265	8.461440351356249
O	11.571724476453124	0.7818576393843739	2.46109445135625
O	11.303153176453124	1.911247652384374	-1.1410460146437502
O	9.085977206453125	4.913454581384374	-1.8740405786437504
O	8.800147376453124	11.672444351384375	-3.8543415486437502
O	12.225002276453123	7.230916341384374	0.32371293035624965
O	13.324204376453125	-9.028407148615626	1.6341008013562497
O	9.571760176453123	-9.458329348615626	1.4251225113562496
O	5.6742842764531245	-8.250734328615625	5.42436690135625
O	3.4221023264531247	-6.3127621886156255	3.1213296013562495
O	3.4341880764531245	-3.935560428615626	0.19050437835624973
O	4.273843246453124	-4.114254568615626	-3.5432211286437503
O	3.127517196453124	-1.263673638615626	-5.74007627864375
O	5.115485146453124	-1.2969776486156261	-8.972916278643751
O	3.3873633964531242	0.643435164384374	-11.75653474864375
O	-12.493402123546876	-9.285740648615626	-2.3995557386437505
