93

O	-0.2629983377859374	3.630029358234375	0.23495180642187474
O	-1.9283950947859374	6.4471310382343745	0.8395434224218747
O	-3.6528234517859373	5.888747988234375	-1.4906985905781251
O	-1.9724039217859373	4.919120368234375	0.9217600724218749
O	3.0487106982140633	-1.5255906017656249	0.8563525424218748
O	1.4354183282140627	-1.593308831765625	2.6849991424218747
O	-0.7224401537859374	4.407002078234375	1.2586145224218748
O	-1.3253723407859375	3.465675888234375	-0.5524619267781252
O	-2.2855062817859375	4.385158508234375	-0.26985859157812525
O	-3.294417971785937	4.690950408234375	-1.2681959675781251
O	-3.515287071785937	3.5832305582343746	-2.211611347578125
O	-3.1392783017859376	2.2992407432343747	-1.4782454425781253
O	-1.6665265437859373	2.271162209234375	-1.3369188295781251
O	-3.8390709817859374	1.084677972234375	-1.8604830675781252
O	-3.6413578017859374	2.4926872942343747	-0.023349620578125285
O	0.5628571082140625	2.499904555234375	0.5446162024218748
O	0.7907097882140626	1.6347401316343748	-0.4574859395781252
O	1.2371047082140627	0.3803164682343749	-0.22217942257812523
O	1.0616802182140626	-0.14357576176562503	1.0218256624218747
O	0.41423224821406257	0.6755225362343749	1.9424734424218746
O	0.5683115582140625	2.0554056982343747	1.8263120124218746
O	-0.4873018927859374	0.35246614823437494	2.987889032421875
O	-1.8081939447859374	0.03790839823437486	2.361573602421875
O	-2.8361203217859376	0.975725862234375	2.903202502421875
O	-2.0156741117859376	2.0140644422343748	3.592375982421874
O	-0.7277468827859374	1.3402522962343748	4.065910262421874
O	1.7593867582140625	-1.3789348117656253	1.4528250924218746
O	3.4288877782140625	-0.3205474817656251	0.042359587421874734
O	2.411107128214063	-0.10076231176562511	-1.0246794375781252
O	-2.810953881785937	13.879016798234375	-7.343588067578126
O	8.733344988214062	6.175798398234375	-1.6126452575781252
O	7.206874468214063	2.841772818234375	-2.7346062075781257
O	10.124119948214062	0.7832240552343749	-1.3875802305781253
O	9.691486148214063	2.520501282234375	1.9692848324218748
O	5.887214958214063	1.7171764792343749	1.9270841524218747
O	6.923126458214063	-1.9167689017656249	1.2551706124218747
O	9.476423548214061	-1.879462371765625	4.076145372421874
O	6.853252508214063	-0.5915082417656252	6.587441452421874
O	4.437291948214063	-3.3466275817656257	5.446404552421875
O	7.198878878214063	-5.975872311765626	5.834755282421875
O	8.026864918214063	-4.610418361765626	9.351110252421876
O	4.258969358214062	-4.906244091765625	10.226429702421875
O	3.8460678182140624	-8.569793901765625	9.301743752421876
O	2.6535678382140624	-9.399992901765625	14.053281002421876
O	6.337121368214063	-3.4952847917656253	-10.611517097578124
O	7.266855378214063	-3.1661214417656254	-6.949338237578125
O	6.437711638214063	-6.3954059717656255	-5.173087947578125
O	6.496492158214063	-7.055107811765625	-1.4875544575781252
O	4.428683938214063	-7.523196761765625	3.560237612421875
O	1.2126252082140627	-7.506299661765626	5.485304362421875
O	-1.0553471303859374	-6.673205861765625	2.530128502421875
O	-4.2084102717859375	-4.565549061765625	2.4376955024218745
O	-7.827289481785937	-5.419724981765626	3.209097182421875
O	-10.759492641785938	-4.126721121765625	1.1850435924218747
O	-11.361971351785938	-1.6427254517656251	4.0451419924218746
O	-7.836046581785937	-0.183904811765625	3.6549291224218745
O	-8.365031501785937	0.2901177182343748	-0.05375226057812521
O	-11.754212751785937	1.956129709234375	-0.06438897857812526
O	-11.730940151785939	3.7307831582343747	3.238931472421875
O	-8.821912721785937	3.6127517182343754	5.634583782421875
O	-6.008707761785937	4.829743038234375	3.5381043324218746
O	-8.134975041785937	7.790888978234375	2.303202452421875
O	-5.464339951785937	8.788446538234375	7.018694442421874
O	-4.299936041785937	10.557968358234374	3.8798942424218748
O	-1.0261481988859373	14.237973298234374	5.434634622421875
O	6.9915849282140625	10.829001848234375	2.3282253724218744
O	7.446451048214063	12.919131498234375	5.499082952421874
O	3.6537110182140626	13.442968598234375	5.239182732421875
O	2.8041577482140623	9.674654858234375	4.934860202421874
O	1.4896657682140628	10.215755738234375	1.3008129424218748
O	4.477759618214063	9.014267538234375	-0.7127962045781253
O	2.377567218214063	6.508971038234375	-2.634542797578125
O	0.9587289582140626	9.270592388234375	-4.850042077578125
O	4.428675748214063	10.130285768234375	-6.108845517578126
O	3.8288121682140632	7.082613578234374	-8.352353187578125
O	1.9708683282140627	9.584210978234374	-10.481060477578124
O	-2.213916991785937	-2.408706041765625	-6.965339337578126
O	-2.7088934317859374	-6.117575821765625	-6.334567357578125
O	-2.8063536917859375	-6.880065041765626	-2.6373378875781253
O	-3.6240592917859376	-9.743176801765625	-0.30015005757812524
O	-3.9860255817859374	-9.599864601765626	3.5229560224218748
O	-7.054023241785937	-10.765064101765626	-3.1081285775781256
O	-8.017502681785938	-7.341356711765625	-4.565831017578126
O	-7.073392031785938	-5.233757061765625	-7.556754067578125
O	-7.139153881785937	-1.469946431765625	-7.088915147578126
O	-10.323115101785937	4.672127978234375	-8.611795727578125
O	-11.576261751785937	-1.958648201765625	-6.7528885575781255
O	0.29433040821406253	-12.333760901765626	0.9487572024218747
O	1.5734294282140626	-8.878408201765625	0.1498698914218748
O	1.2665887182140627	-5.949415411765625	-2.2783025975781253
O	2.3533952782140624	-5.450625551765626	-5.9261679775781255
O	2.2867516882140624	-1.944286461765625	-7.313618587578126
O	2.2889615982140628	-2.0322804117656252	-11.110725597578124
