28

O	4.930477664698417	12.739662067569057	24.013123862668497
O	5.972160091460804	12.25414224273877	24.726734021413495
O	6.4369004774606555	13.119684260258554	25.731702625349605
O	7.166068359647293	14.20098191257633	25.19806108517334
O	6.484784725033351	14.618236283697978	24.055589690525586
O	5.234411590161068	14.01332889953822	23.655336710080235
O	4.078594973744717	11.752429549626452	24.084415652497942
O	4.346895926935799	11.152866219034319	25.33830727222834
O	5.734876598359959	10.995557979327652	25.11012604128861
O	6.066118908403131	10.11022601785714	26.309154906230486
O	5.087630281004066	9.638258444821407	27.35451318809111
O	3.706115385499198	9.81474523437348	27.44869781775604
O	3.431383935144221	10.508981685923175	26.299665944331597
O	6.916737570367318	9.57854214728605	25.512253540295763
O	2.707917134582055	11.645997757242863	23.74446903139068
O	1.9291380488993615	12.449715388156068	24.491639630475873
O	0.8249527348136264	12.009927407614834	25.254149214770266
O	0.21492759671624628	10.762688585901822	25.078331104057188
O	1.197021276939597	9.878515772616758	24.677616413811915
O	2.3456254913520125	10.3238294130446	24.097564920692545
O	-1.1405347198079085	10.564049103421663	24.65217735881365
O	-1.6997599813214124	11.690660159117783	23.887051230386202
O	-2.105958644798747	10.035326714786503	25.218384501864033
O	1.1210392947753531	8.603360121322337	25.24595476754488
O	2.358191297347762	7.84495053023449	25.142533841106186
O	3.051759872880222	8.202587439053957	23.81128740251512
O	4.316323510097607	8.424068907202301	24.06221132716931
O	4.478257602098946	7.544888778800058	25.14852201745851
