108

O	4.204538050346667	0.715943336453333	3.0928673335733334
O	2.9351054903466665	-0.580786350546667	-0.13939281092666667
O	3.2171074903466663	0.16063201945333283	-1.2315066664266667
O	4.268400240346667	1.0488995704533328	-0.9077903974266667
O	4.909613680346666	0.4887972264533329	0.2369877285733333
O	4.170214250346667	0.10586372945333289	1.4852656235733332
O	2.9786214703466665	0.26459276745333293	0.9971876235733332
O	2.5217515603466665	1.782053168453333	0.7406397295733333
O	3.2408202203466665	2.7126537594533326	1.2041335735733334
O	2.2109407203466667	2.442450669453333	-0.6221396354266667
O	2.9129787303466665	0.8890448624533329	-2.4579425764266665
O	-2.1881552096533334	1.0899041894533328	-1.4940033464266667
O	-1.8103850796533334	2.013697573453333	-2.5107173164266663
O	-0.6415372066533334	2.611750869453333	-2.1583090164266667
O	-1.3240395396533335	0.11716327945333282	-0.8744988544266667
O	-0.03109318865333338	0.5337024954533329	-0.7729199244266667
O	0.24075750834666665	1.658636054453333	-1.5595845764266667
O	1.0465372503466668	2.486852699453333	-0.7856351074266668
O	0.4795258503466666	0.9088983804533328	0.5017878325733333
O	0.2542974903466666	2.330290309453333	0.4245147285733333
O	0.6296509983466666	3.095038469453333	1.3341055035733334
O	0.5830591633466666	2.374164069453333	2.6372255335733334
O	-0.1438305916533334	1.2513959385533329	2.3470623635733334
O	0.5980313163466666	0.21773312245333287	1.7318066735733333
O	0.7485406803466667	-1.126348720546667	1.4601950135733333
O	0.8660912603466665	-1.3948830105466672	2.8632320935733335
O	1.5097516203466665	-2.2481960705466673	1.4021542935733333
O	2.4596214703466663	-2.539653440546667	2.2243108835733336
O	2.1922254003466666	-1.596608070546667	3.1237676135733334
O	2.5751400703466665	-1.9663729105466672	4.497836403573333
O	3.5001790403466666	-2.9487306305466667	4.696630223573333
O	4.2059888403466665	-3.151292910546667	3.5870951535733333
O	3.3381442303466664	-3.4790428605466674	2.6566269335733335
O	3.4098250803466663	-11.684373480546666	5.850903833573333
O	2.7262977003466666	-9.922598280546667	9.219400223573333
O	2.1830852803466665	-6.155281750546667	9.196657353573332
O	0.4514936993466666	-0.581902410546667	10.992563713573333
O	-1.8087592796533336	-3.3691646705466667	12.303798913573333
O	-3.4993094296533336	1.8371053504533328	12.644726013573333
O	-5.581585829653333	-0.4896319305466672	10.488470613573334
O	-6.191610159653334	9.611479409453333	-0.6274532434266666
O	-5.868733059653334	6.897995389453333	-3.2907541464266665
O	-6.095986699653333	9.353590389453332	-6.194695376426667
O	-3.3333265696533334	11.415314619453333	-4.5903673464266666
O	-1.1416029386533335	8.192738269453333	-4.192785156426667
O	-1.7637193396533335	7.608297359453333	-7.887801146426667
O	-0.8946897686533334	11.225650119453332	-8.831492896426667
O	2.4609632503466665	10.916754749453332	-6.900465726426667
O	3.1929081503466663	7.689344799453333	-8.829495496426667
O	7.4302043003466665	9.811967339453332	-10.499489786426667
O	-14.314025759653333	0.021104109453332853	-6.817259326426667
O	-10.970978859653332	0.009406109453332867	-8.565980546426667
O	5.571149740346667	4.029030039453333	-11.707678686426666
O	4.256765460346666	0.7921169564533329	-10.247467786426666
O	5.7076686103466665	-1.1971606005466673	-7.323296876426667
O	8.480203020346668	-3.8006031305466674	-7.0625242264266666
O	8.321352890346667	-6.892955640546667	-4.862048286426667
O	10.805003640346667	-5.136036530546667	-2.4579576864266666
O	8.433780670346668	-2.222228970546667	-2.057750576426667
O	5.519646650346666	-4.662322890546667	-1.2972524264266667
O	7.208305830346666	-6.726358630546667	1.3879801935733334
O	9.711187540346668	-4.309910750546667	2.9816409835733335
O	10.160079740346667	-0.7491088905466672	1.9352435535733334
O	6.808941660346666	0.8276835684533329	2.3758388535733337
O	6.2458085203466664	-0.665056730546667	5.840577823573333
O	9.603704460346668	0.739398022453333	6.950907363573333
O	8.502767510346667	4.352806379453333	5.884174453573333
O	4.886593370346667	3.849086039453333	7.163636303573333
O	6.096947440346667	3.119272279453333	10.722858813573334
O	6.855727380346666	6.817808999453333	11.490056313573334
O	3.8201883303466664	8.237573969453333	9.679817013573333
O	1.5773777003466667	5.843793409453333	11.585234813573333
O	2.7539855303466667	10.587934739453333	14.189757213573333
O	-2.6862271296533335	11.847452519453332	4.169217843573333
O	-0.6068112686533333	14.578637519453332	5.880813523573333
O	1.1798618903466664	11.622116119453333	7.595710023573333
O	1.9261131603466666	9.825242219453333	4.2585759735733335
O	-0.4265954926533334	6.852703439453333	5.384587233573333
O	-3.5688525696533335	7.680196029453333	3.3641975135733335
O	-3.6626675896533336	4.254221809453333	1.7258101235733332
O	-5.090862439653334	2.6371973294533326	4.883366943573333
O	-9.184693879653333	2.212272721453333	2.0877996435733337
O	-10.204193889653332	0.22719243845333292	5.117826213573333
O	-13.366720059653332	-2.0022621905466673	2.0326514635733335
O	-8.056573979653333	-4.636470800546667	-0.5967937164266667
O	-6.2710223196533335	-6.2285171705466675	-3.5685733364266663
O	-3.4607189796533335	-4.481274760546667	-5.365286246426667
O	-2.1595427396533333	-5.416638150546667	-8.707355176426667
O	0.9819107003466666	-3.636056410546667	-9.769856736426666
O	3.7711967503466663	-3.692914400546667	-12.284172486426668
O	7.0843895903466665	-1.735902350546667	-12.214697886426666
O	3.4946978703466667	-8.228418620546668	-11.971125586426666
O	2.3970485603466667	-8.823327480546666	-8.347120176426667
O	-0.8259995946533334	-9.181784480546668	-6.418831796426667
O	-0.8465204286533334	-7.840269380546667	-2.8639470264266667
O	-3.9038808996533336	-8.538688950546668	-0.7039731274266667
O	-5.122061849653334	-7.828287740546667	2.7915610535733335
O	-6.509398359653334	-6.642592810546667	7.6839909935733335
O	-2.7289830696533337	-8.412804720546667	10.946229713573333
O	-1.4732298996533335	-10.092709380546667	7.757009053573333
O	-1.1722677156533334	-9.536769280546666	4.002364793573333
O	-0.1903321156533334	-11.792719380546668	1.0819465935733332
O	1.8787355503466663	-11.312642680546666	-2.0390024164266665
O	-1.0878855986533333	0.0704998094533329	-9.929357646426666
O	-4.730561449653334	-0.9921470205466671	-9.552911256426666
O	-6.173040219653333	-0.812014610546667	-6.057869526426667
O	-9.313960339653333	-3.0288502005466675	-5.959915776426667
O	-11.607985659653332	-2.136226110546667	-3.0530963964266666
