29

O	-0.16063799405645818	9.555846482441915	24.105809429968396
O	-1.5743672088406377	9.768928588723647	24.445503300183365
O	-1.4636822224069568	11.207051320152273	24.403163701699235
O	-0.3531787201947928	11.049045150121533	25.135582402206207
O	0.9443154301910529	10.514601594938352	24.633718174210323
O	0.746405073523693	9.132170708121112	24.942488798305902
O	0.4081992489509453	9.531721744083889	22.811313534358646
O	-2.8498285868042026	11.34339155436952	24.830725537979554
O	-0.48371552708036547	9.999456417903108	26.298065589260204
O	-0.9683342819503237	9.09503722421592	27.2769043986723
O	-2.06414520187172	9.798621777845336	27.136234780160606
O	-1.331641230384066	10.983477439462884	26.59621177661403
O	0.10655484555842121	10.817688113954054	27.09713817326566
O	1.4483432748458571	11.137916078343084	26.568164916623857
O	2.6212773614082274	10.557334809484487	26.87973185419896
O	3.851678832888995	10.513542506103445	26.333296655275237
O	4.117426984155156	11.033632300497898	25.098967157983544
O	3.1300916653460087	11.89113061427619	24.76643466192505
O	2.0003066981529463	12.11515271752343	25.616994573175717
O	-1.6947764947556214	11.682080955271944	27.54321329008163
O	2.164180208905317	8.184614543090598	25.002473462867368
O	2.976900749990207	8.57658629399887	23.968228770248377
O	3.249659852943829	7.87924168871811	25.887140013157158
O	1.1018409283622752	6.915539396163586	25.273534393487314
O	1.6806301776190038	6.123219649664309	26.228554381373627
O	1.717710469888928	7.230407100389645	27.240191377780256
O	1.3991668434151552	6.583829123036791	28.55929482488988
O	1.387047289785945	6.607873317462742	23.95117285553202
O	2.215228518958734	9.81008524504761	27.969307191476204
