26

O	3.9862303234905117	11.085097870243077	24.342624479872267
O	6.250005957489112	12.457921240453334	26.148446055709982
O	-1.8375128998282029	9.206037670148852	25.08438245283824
O	6.245714076765982	13.644615461172052	25.121812364193662
O	-1.8513363481004057	11.236779907670975	24.23533898551273
O	8.001067496755402	11.440838218642174	22.721625684179383
O	4.880384612373752	13.430833682446483	24.552242047028138
O	4.5453477234382875	7.345120670477458	23.882692500707446
O	4.97619548183428	11.96243597659297	24.150833791365837
O	6.16672695536751	11.30291827223908	24.056009599746833
O	5.65969164516933	10.10561691307426	23.728770553287024
O	4.59823350679565	9.859068190829474	24.51541166738468
O	2.5076887347060524	11.093164279043867	24.334853311973763
O	1.9099740705114816	11.188570713917933	23.076785005128386
O	0.9334374035933641	10.29922345616869	22.730177227356734
O	0.16091761104238378	9.806311535280527	23.791551669760416
O	1.2101015961016852	8.956290244326176	24.234300995811694
O	2.0367457629642725	9.88857260694105	24.930833476680228
O	-1.2071727901043992	9.954457557558799	24.27440381235369
O	4.314089230147962	8.425915219187473	24.66436197420099
O	5.3168909430556806	7.7632234079600035	22.791508617465333
O	5.221877033295376	9.252825645059747	22.636867803217495
O	5.20350485439489	6.219806359574324	24.555677891378576
O	7.447010658778684	11.91792449510045	23.779149125356106
O	7.385126930816568	13.396066642906291	24.084614047646077
O	6.871407677138045	14.60989915931166	26.007531518766136
