80

O	-1.3937579634035087	0.4953207979999996	3.907349758140351
O	-3.203072034403509	1.4069384789999995	3.437682308140351
O	-1.7028634228035087	1.6888298929999996	1.8615385981403514
O	-3.323201644403509	1.8110101819999995	4.855955578140351
O	-2.7558993644035086	0.035514303999999663	3.3721208881403513
O	-1.7427855114035087	2.6002988419999995	0.8518704611403511
O	-2.214663856403509	3.8577880319999993	1.325591666140351
O	-0.9623331204035087	0.9149567909999996	2.759430158140351
O	-2.775680484403509	3.4500123319999996	2.4276443881403513
O	-2.7888040544035086	2.1545427919999995	2.476775658140351
O	-0.35817451440350867	-0.6383252680000003	0.9649330331403512
O	-1.0384685414035086	-1.6243418880000005	1.725415658140351
O	-0.5200386044035088	-2.9394220380000005	1.460795361140351
O	0.3118264455964912	-3.3218564980000007	0.43318091824035115
O	0.2709729255964912	-2.4251746980000006	-0.6276856118596489
O	0.11764375559649132	-1.0928107480000002	-0.2373558598596488
O	0.2367329955964912	-0.15530342200000036	-1.2072503618596486
O	0.4348849555964913	-4.663460168	0.16282015114035114
O	-0.03798532440350866	0.4799235769999996	1.7552595781403513
O	0.7858569355964911	1.3829458069999996	1.6101590181403513
O	-4.656506694403509	1.8222896619999998	5.155936348140352
O	-2.8585748844035086	3.0372718619999994	5.222095048140352
O	-2.7155537144035087	0.9021346169999996	5.681952468140351
O	-3.5986733344035087	-11.121246848	0.7895781691403512
O	-0.9748728114035088	-8.717116028	-0.6139176518596489
O	-2.8555024444035086	-8.220528638	-3.9142860218596494
O	-5.944454694403508	-7.324112768	-1.885672211859649
O	-3.890171894403509	-4.812051448	0.16030754914035117
O	-2.699889454403509	-3.3435816880000004	-3.184749111859649
O	-6.262998564403508	-3.1671393380000006	-4.457161981859649
O	-7.3881905844035085	-1.2727148480000006	-1.2748968518596486
O	-4.509231314403508	1.1522182259999996	-1.7799947118596489
O	-5.376553114403508	1.6696674459999996	-5.430360221859648
O	-9.083404244403509	2.2217959819999997	-4.493733311859648
O	-7.896678574403508	4.849602131999999	-1.887075681859649
O	-5.877575614403509	7.0033764419999995	-4.320469241859649
O	-8.63551454440351	6.652342031999999	-6.890641441859649
O	-11.248400604403509	7.896624311999999	-4.335111541859648
O	-8.98470158440351	10.717937422	-3.171503981859649
O	-8.312418254403509	11.921631652	-6.7247263518596485
O	4.096630975596492	-9.252351147999999	-9.96080475185965
O	4.272456505596492	-7.114763918	-5.4540949318596486
O	4.238535915596492	-3.6358942780000003	-6.931921841859649
O	1.3401324655964915	-1.2678202880000007	-6.8139327718596485
O	0.7603803955964914	2.4086601519999995	-7.696878581859649
O	-1.7243465354035088	2.9282936219999995	-4.926289611859649
O	-1.7355284354035088	5.674653351999999	-2.416047931859649
O	1.4587296655964914	4.698540222	-0.5149361318596489
O	2.476187365596491	4.893444302	3.135735578140351
O	3.770200935596492	7.723045001999999	5.2188467581403515
O	6.539363495596491	7.356156241999999	7.800541628140351
O	3.802501385596491	7.575507151999999	10.462172628140351
O	2.0381405755964916	4.576633751999999	9.01060523814035
O	5.211073125596491	2.5027086419999995	9.00156852814035
O	6.396950335596492	3.1850320719999994	12.53048654814035
O	-0.18055912440350874	3.5852117919999995	12.695158948140351
O	-0.15927556440350865	0.13776379099999958	11.12057394814035
O	-7.376283134403509	-11.202372848	5.857068898140351
O	-8.889388664403508	-9.646562048	10.503142268140351
O	-7.137398284403509	-6.854706528	8.45401165814035
O	-3.611899884403509	-8.453199928	9.14544561814035
O	-3.1129958644035085	-10.319221948	5.867419178140351
O	0.2258777655964912	-8.602326227999999	5.307823028140351
O	1.9339693055964913	-10.922583848	7.829347538140351
O	4.072725165596491	-12.817612347999999	3.7362450181403513
O	8.53350125559649	-2.6301729280000004	1.759740708140351
O	9.42925005559649	0.36112474299999964	-0.3743489668596488
O	6.724936955596491	2.9718351019999996	-0.3504082658596488
O	5.979293765596491	6.549616481999999	-1.3314291718596487
O	2.923066665596491	8.661641372	-0.3053591278596488
O	10.254006355596491	7.466302032	-0.05666171285964883
O	10.89604025559649	4.911925112	2.743659958140351
O	8.95834635559649	5.213584121999999	-7.529563151859649
O	6.5385872055964915	8.105790082	-8.01537215185965
O	3.8178119355964917	6.842501892	-5.638702301859649
O	2.840558565596491	3.4726055819999995	-4.2939302218596485
O	4.322344325596491	0.4191851499999996	-2.690602731859649
O	6.511507295596492	-2.5413438880000006	-3.464468761859649
O	6.487024565596491	-5.458605058000001	-1.1108268118596487
O	-9.38322381440351	-7.608928578000001	-8.888599141859649
