35

O	-0.5439777267662373	11.14149404859815	25.21206798511926
O	0.669578261593893	11.145401292378615	24.465487776080764
O	0.5857515103504034	11.794505789749131	23.28974293129861
O	-0.6446110910336074	11.576901905553804	22.680360766040657
O	-1.8416188213859306	11.2703170240593	23.336908611726653
O	-1.7741724911003136	10.958196864551885	24.64007538064994
O	-2.8458187727628905	10.924549689260488	25.551457396931443
O	-1.0155532244702277	12.653490347075342	21.857487687894466
O	1.8645530443914444	12.34608009456301	22.91820875163657
O	-0.1650727524742727	10.709007198779538	26.606780166797513
O	2.8005400413536887	12.713290494981642	24.11291388495787
O	2.961527868118911	11.299968988977408	22.53296719539916
O	-1.047133330345275	10.57676715299082	27.693985976588355
O	-1.4796768387936006	9.403449410963491	27.276222881371936
O	-0.22891764564040634	8.83936560547395	27.501875322434678
O	0.6184290654831259	9.544492145042915	26.517399413011773
O	1.491455397660923	8.87922494509186	25.598140064706485
O	2.4986112507521234	8.991065718568478	24.741268386545418
O	3.295864504847576	7.799616512908852	24.587988523673253
O	2.7356474338880465	6.584990074846425	24.963798441117827
O	1.4067698133476283	6.64385503153646	24.456955083868568
O	0.7953178797512066	7.884962127894956	24.75398888717897
O	3.424735327826434	5.312105044080859	25.168635165503613
O	2.7339094059948508	4.386983189447407	24.238440762984496
O	0.447199386796644	8.020713521223861	28.466415151129468
O	1.3592697849951014	6.981840326031654	28.2136029833338
O	0.8128296954137517	6.1128434367231375	27.46898845082722
O	2.2942348305237608	6.401468756947981	29.187858452020144
O	3.77480555437658	6.089077717344938	28.85765130587626
O	2.832849656644343	5.037548110585139	29.227453580745582
O	3.452868951551523	4.618317096652259	22.982100019191034
O	4.101941539814798	3.3395467970342523	22.576095234434526
O	5.156370036962642	3.0935575888452256	23.431005457272693
O	4.720056073134638	3.2938446526926874	24.723885716601856
O	3.209632109346388	3.082241396808607	24.705579842226292
