83

O	3.6387432655081966	1.231204696034426	-2.3963084002786887
O	-2.780374964491804	-1.8521799599655737	-0.41357953527868896
O	-2.4313035844918036	-2.949466129965574	-1.6218853002786888
O	-1.8437130144918035	-0.9598398799655739	-0.23569573827868895
O	-0.6506796037918036	-1.248565579965574	-0.845711784278689
O	-0.8493119864918035	-2.482791389965574	-1.356257056278689
O	0.6537217155081965	-0.591465889965574	-0.603085364278689
O	0.12927804150819644	-2.998067489965574	-2.269378610278689
O	1.0876975855081965	-3.604385019965574	-1.510815484278689
O	2.202921795508196	-3.9645550299655743	-2.262790110278689
O	2.752475035508197	-2.8259097699655737	-2.876137000278689
O	1.8007014855081966	-2.314380109965574	-3.708521820278689
O	0.5462816855081964	-2.146723329965574	-3.222314610278689
O	0.6970965655081964	0.066230531034426	0.6290815897213111
O	1.8787627955081965	0.616555303034426	1.031493849721311
O	2.870434275508196	0.7218469090344259	0.09290840272131107
O	2.710954695508197	0.281991690734426	-1.219923226278689
O	1.4226839655081964	-0.0035567409655740123	-1.562416561278689
O	4.081588535508196	1.253961965034426	0.5466400397213111
O	-0.43147285549180353	0.203056966034426	1.4469186297213112
O	4.024724755508196	-2.803229689965574	-3.402026180278689
O	4.325518085508196	-1.637461949965574	-4.1725591902786885
O	10.308472865508197	-2.2308768599655737	2.924530239721311
O	7.583115715508197	0.418781689334426	2.769785239721311
O	6.372150995508196	-0.24506212896557394	6.33592297972131
O	6.1152843055081965	-3.941259169965574	5.458323879721311
O	4.069748485508196	-3.038998059965574	2.336862119721311
O	1.8123622555081964	-1.041457899965574	4.564736539721311
O	1.4876780255081965	-3.910051109965574	6.983958009721311
O	0.44904214550819654	-6.321704259965574	4.1640306897213115
O	-2.1690729044918036	-3.8046394199655738	3.033049619721311
O	-3.455225114491803	-3.370133019965574	6.5697528397213105
O	-3.6004681744918035	-7.221758709965575	6.916208749721312
O	-5.672753754491803	-7.340311309965575	3.683631209721311
O	-8.392916344491804	-4.8626006099655745	4.76426945972131
O	-8.462076974491803	-6.487892739965575	8.160220849721311
O	-9.038456894491803	-9.959561959965574	6.63915214972131
O	-11.605809734491803	-8.596339469965574	4.1773543797213115
O	-13.600976734491804	-6.866430239965575	6.94005658972131
O	5.642521735508196	8.450333870034425	9.43837590972131
O	5.691894505508197	10.338550970034426	3.9005615097213107
O	4.642633555508196	6.819225650034426	4.870300509721311
O	0.9126474655081964	6.763139960034426	5.457857209721311
O	-1.2459086214918034	3.728858430034426	5.9549848697213115
O	-5.002660784491804	3.067230560034426	6.290753379721311
O	-4.7259600744918036	-0.27142586696557397	4.5874432597213115
O	-6.791571824491804	-1.5689067699655739	1.7137276697213109
O	-5.565185224491803	0.9663117970344259	-0.9068365382786889
O	-4.8558055944918035	0.42635213633442604	-4.605680550278689
O	-7.268894034491804	0.586304976034426	-7.563297470278689
O	-6.408684084491804	2.1954151700344258	-10.887475790278689
O	-5.926346254491804	-1.350352449965574	-12.25264519027869
O	-3.2992722844918037	-2.083872889965574	-9.62446582027869
O	-1.3936522714918036	1.110630478034426	-10.500693750278689
O	-1.2899278014918036	0.792521189034426	-14.271876890278689
O	-1.4019042094918035	-5.378289889965575	-11.82568359027869
O	1.5411779355081963	-4.335017199965574	-9.71709483027869
O	11.768433365508198	-7.534455319965574	-0.1740368292786889
O	12.204357565508197	-11.336903259965574	-0.38034593227868896
O	11.345172665508198	-10.823456859965574	-4.102608660278689
O	8.109336105508197	-8.829390419965573	-3.447446120278689
O	9.670448965508196	-5.632041119965574	-5.11801587027869
O	10.674872065508197	-3.7241745899655743	-1.996238260278689
O	8.806521745508197	-0.6321376329655739	-3.065015500278689
O	11.504582465508197	0.293672167334426	-5.580842950278688
O	14.026386465508198	0.595929424034426	-2.760368860278689
O	12.354156065508198	4.004691700034426	-2.3063533002786887
O	14.688897765508196	5.033038310034426	-5.090861910278688
O	1.8069879655081966	7.621119420034425	-4.199870240278689
O	-1.6504474544918035	8.731911790034426	-3.221346030278689
O	-4.023740814491804	5.835913520034426	-2.756011970278689
O	-7.725537474491804	5.134928370034426	-2.280149120278689
O	-9.461027284491802	1.712068740034426	-2.450532990278689
O	-8.477255094491804	8.479017690034425	-5.253786820278689
O	-5.373341624491804	8.362939750034426	-7.517821900278689
O	-7.988927854491804	10.278833200034425	2.4503304797213112
O	-10.821524534491802	7.881912360034425	3.263562849721311
O	-8.954872544491803	4.657982540034426	2.395851619721311
O	-5.321383184491804	3.711275120034426	2.233097229721311
O	-1.9907558744918035	4.728019230034426	0.7292346597213111
O	0.5354374755081965	7.539104890034426	1.261864769721311
O	3.968286705508196	7.1359243600344255	-0.22913039427868898
O	4.869736055508196	-4.6624382199655745	13.11674260972131
