38

O	6.786428769578949	14.857623816159853	26.19227641136829
O	7.501268905709058	13.80580151116542	26.553740031745935
O	6.780300932267826	12.709430153800456	27.041247153623807
O	5.3659014653490935	12.356875265560614	26.93326476524139
O	4.9512669927140145	13.558450850110534	27.231523947223657
O	5.578917865278612	14.776538428250825	26.829647266001995
O	4.823936367680358	11.017850675045759	26.374437159793825
O	5.047988660035948	9.71749284392532	26.43423728936686
O	5.1856220517541045	9.565554430522958	25.05178389259808
O	5.763246120186072	10.629948738331656	24.52107057569797
O	6.158585220175822	10.737739462352813	25.761347521755866
O	6.117454292053519	11.896810079099197	23.972377282568626
O	5.27910164469464	12.975361912951357	24.3510843165436
O	4.849550992431619	13.842055154996888	23.594033403017775
O	5.710277321969908	13.820668926211066	22.542046825327212
O	7.0732861757805185	13.77693300327928	23.009175810277824
O	7.225931780865476	12.639294813218008	23.818947804625484
O	4.111617707740008	13.232841263443776	25.091392443697405
O	2.9776741012447356	14.066103140481811	24.966920013627306
O	2.468450018064318	13.751907055577101	23.744706396299442
O	3.5933231019461775	13.148648759640997	23.27077141100241
O	3.446319299326512	11.732345971672723	23.36951263940847
O	2.913617322055686	11.339485876634846	24.565587873251943
O	2.235838253903093	10.257704827887782	24.862110041075248
O	2.0181901959798063	9.290414651899116	23.945148916800523
O	2.7743937188369285	9.6977787000244	22.88776180542587
O	2.6313099091974452	11.06110158696972	22.556014286004476
O	0.9986530203300417	8.310231150008718	24.24244631579564
O	-0.36924666263722106	8.799767660689337	24.315483219785236
O	0.948519953769809	7.127069052086888	23.77411112025877
O	2.2834551330867887	9.75591819036953	26.127167656989716
O	2.6984787391306844	11.144774844571943	26.576770023561387
O	1.8906989398551266	12.15594288095743	26.279859915510382
O	0.5131815292415967	11.347903123999462	26.07035474253861
O	0.3738941328967851	10.35127062039317	27.14485032653341
O	1.4856153053668306	9.814166549916068	27.945890934599582
O	2.796041185110173	10.756348582945158	27.836136376416196
O	-0.7384718030093191	9.593526006615877	27.272342012900154
