86

O	0.11548310918965554	-1.4089197433724139	2.536853409586207
O	-4.915146390810344	-1.385255783372414	2.579310819586207
O	-5.9933121008103445	-0.9482355233724138	1.8595324395862067
O	-5.799693360810345	-1.6578156633724137	0.700950359586207
O	-4.649226330810345	-1.0846946033724139	-0.007745330413793106
O	-4.600223350810344	-0.6885621433724138	-1.3395948214137932
O	-3.5594455108103444	0.2517801306275862	-1.622885739413793
O	-2.5439281708103447	-0.7187109833724139	-1.349916861413793
O	-2.3512632608103443	-0.6726145533724137	0.03886735958620702
O	-3.430555890810344	-1.3119999333724137	0.5803119295862069
O	-3.573305000810344	-1.1552851533724138	1.981445639586207
O	-2.408484460810344	-0.8139007433724139	2.670496899586207
O	-1.2470771288903444	-0.30779845337241385	2.0788689095862067
O	-1.2343643253103445	-0.2851877233724138	0.6570237995862069
O	-0.10785269081034432	0.1751529146275862	-0.09269700341379306
O	-0.2753104328103444	0.031229190627586223	-1.341033613413793
O	1.3400419291896557	0.20090049362758622	0.10918037958620697
O	2.1803279291896556	1.0959386576275862	-0.5752927864137931
O	2.8892614991896552	1.7673751056275862	0.21671803958620695
O	1.1237887391896555	1.7498927396275863	-1.2390152704137931
O	0.47760535918965563	0.6167654866275862	-2.129537770413793
O	-0.9051160938103444	-0.17517324437241377	-3.175747360413793
O	0.1380344091896557	-0.9142553833724139	-4.4177502704137925
O	0.4401547591896555	0.2236760946275862	-5.406421110413794
O	-0.8214094308103443	0.7924380310675861	-5.994112260413793
O	-1.5408629958103444	1.7435668516275862	-5.1266350504137925
O	-1.4653398868103444	2.9600353066275864	-5.492163530413793
O	-2.8626910908103445	1.3499093676275862	-4.718335680413793
O	-14.246106340810343	-0.8577739433724139	8.930014029586207
O	-4.375459900810345	9.042879996627587	3.545568169586207
O	-1.4076546378103445	6.795872076627586	4.415981759586208
O	1.1545094491896557	9.394619526627586	3.242791919586207
O	-0.7003019438103444	9.590983176627585	-0.059760910413793056
O	-0.6638740388103443	5.793156316627586	-0.259540097413793
O	3.124652929189655	6.004219936627586	0.31856618958620686
O	3.509981619189656	8.619299736627585	-2.369379490413793
O	1.6062780291896557	6.384374876627586	-4.910021460413793
O	3.8531735491896555	3.422722386627586	-3.962722340413793
O	6.976656919189655	5.629898606627586	-4.395008950413793
O	5.6842314891896555	6.929720576627586	-7.784979240413794
O	5.195881929189656	3.2617524666275863	-8.880811850413792
O	8.740554389189654	2.0769593766275865	-8.165428900413794
O	8.096111479189656	4.708245626627586	-12.926526080413794
O	9.112628159189654	1.0397698116275862	-13.014255280413794
O	4.587916199189656	5.468697346627586	8.425983539586207
O	7.503254799189656	4.116467586627586	6.444479709586206
O	8.066963349189656	4.268095406627586	2.780608189586207
O	8.062874179189656	2.4773480566275863	-2.382284530413793
O	7.275734049189656	-0.5336528833724139	-4.463222360413793
O	6.019115979189656	-2.7656895733724136	-1.645104898413793
O	3.217653219189655	-5.309692313372413	-1.672243131413793
O	3.3160287491896554	-8.985394653372413	-2.6791823004137933
O	1.5546713091896556	-11.771387333372413	-0.7862784274137931
O	-1.0707529998103444	-11.681525933372413	-3.569537260413793
O	-1.7775977868103445	-8.017252363372414	-2.926822310413793
O	-2.2496064408103447	-8.686617433372415	0.809710569586207
O	-4.571389320810344	-11.639046933372413	0.6751992595862069
O	-6.393816720810344	-11.014060833372415	-2.528989320413793
O	-5.757693670810345	-8.104417383372414	-4.792183140413793
O	-6.296228630810345	-5.280831113372414	-2.509191270413793
O	-9.577668030810344	-6.676479253372414	-1.2737979324137931
O	-10.180041790810343	-3.640172603372414	-5.808290690413793
O	-11.515132340810343	-2.304425333372414	-2.510269540413793
O	-14.452608540810346	1.7328717836275862	-3.697597420413793
O	-9.341233560810345	8.613557766627586	-0.2951166144137931
O	-11.366334140810345	9.701645916627587	-3.348869710413793
O	-12.669141040810345	6.079686356627586	-3.242489630413793
O	-9.174792050810344	4.511212686627586	-3.158718520413793
O	-9.898525090810345	3.040286386627586	0.4205310095862069
O	-8.066316040810344	5.602969826627586	2.539587899586207
O	-6.047405650810345	2.9481512166275863	4.307532629586207
O	-9.029461900810343	2.0702692466275865	6.507524779586207
O	-6.140933290810344	4.135336636627587	10.093128219586207
O	-8.929922670810345	2.6879898766275865	12.188246519586206
O	1.9452646591896556	-3.675404093372414	8.023444249586207
O	5.411310439189656	-4.862905753372414	7.122134809586207
O	6.016696879189656	-4.878569203372414	3.399378799586207
O	8.571635649189655	-6.126162683372414	0.8959725195862069
O	8.198744479189656	-6.167826083372414	-2.932299190413793
O	8.899289559189654	-9.859915333372413	3.4484815095862067
O	5.410350119189656	-10.182884333372414	4.995904689586206
O	11.871678459189656	-2.757692353372414	-0.22094230741379306
O	8.824845859189654	-0.8416720933724138	0.805264069586207
O	5.912021259189656	-0.6525520733724137	3.2728048095862072
O	5.770522519189655	0.2713200796275862	6.995862109586206
O	2.4087669191896555	0.8536232172275862	8.567163149586207
