82

O	5.423753166339286	-1.8742765107053574	1.2330532478214289
O	4.198042856339286	-2.6421317107053572	1.0132911478214288
O	2.9951714263392857	-1.8131469307053574	0.7250236378214288
O	1.9154069663392859	-1.9691649907053572	1.3805029878214288
O	2.0929071363392855	-3.033178130705357	0.4618281378214286
O	1.0174279463392857	-3.0553226107053573	-0.17422014917857132
O	0.6451546473392857	-1.6815072407053573	-0.5775344611785713
O	1.1872238463392857	-1.0568517437053573	-1.5762552881785714
O	2.4922191263392857	-1.8132757707053573	-1.3554909901785712
O	2.3649341763392857	-3.0265917107053575	-1.9314671231785714
O	0.9546202763392857	-3.0810080507053574	-2.3325052221785714
O	2.6394008663392854	-2.0913432207053573	-2.6420537721785715
O	3.0604874463392857	-1.1185271767053573	-1.3928480731785713
O	4.620490466339286	-1.5554279507053572	-1.8541600361785713
O	5.026123576339286	-2.8496421507053573	-2.0729437521785714
O	6.572414696339286	-2.6728321307053573	-1.9941213361785715
O	4.855410116339286	-4.1047883207053575	-1.4325646471785713
O	4.170308796339286	-1.2055220807053573	-3.390068952178571
O	4.177651746339286	-2.365405060705357	-4.124187122178571
O	2.9462813863392854	-0.5385079127053574	-3.7249205321785714
O	1.8936573163392858	-1.5119833107053573	-3.7428865921785714
O	0.6056636903392858	-1.4123280907053573	-3.5971490721785715
O	2.7206265263392857	-0.5397496677053573	-0.9003407511785713
O	1.9992870663392857	0.1798682822946427	0.24051663782142874
O	0.7239235853392858	-0.46312836270535734	0.5103118678214287
O	0.7702219833392857	-1.4958080707053574	1.3492165978214288
O	6.908285806339286	5.734515359294643	7.326087747821428
O	3.3577981563392854	4.488435599294642	6.597943267821429
O	2.3736479963392854	7.7059978692946425	4.783997767821429
O	5.437975246339286	7.241176699294643	2.581496057821429
O	4.368980796339286	3.628057909294643	1.9172399978214287
O	0.8865396253392858	5.089060629294643	0.9639845778214287
O	2.4600273263392856	7.639663579294643	-1.3082303501785713
O	4.556748796339286	4.976016119294643	-3.0909723021785718
O	1.3381358963392858	2.8942983992946427	-3.4966711121785714
O	-0.5209244746607142	5.826979489294643	-4.926498972178571
O	2.4086637563392856	6.665045219294643	-7.286843462178571
O	2.3121234763392855	3.000436679294643	-8.495026152178571
O	-1.3489920636607142	2.8544907892946427	-9.440574222178572
O	-0.9805337226607143	6.301811669294643	-11.045080772178572
O	1.9993431563392858	5.040742999294642	-13.152643672178572
O	0.1917882523392857	1.8219471892946426	-14.060812172178572
O	-2.9512612336607145	3.6738288792946427	-15.165146272178571
O	-5.795944063660714	9.497878389294643	8.729905297821428
O	-3.8567192236607144	5.050135039294642	7.575184267821428
O	-6.056464743660714	4.720732109294643	4.515780787821429
O	-4.987907133660714	5.0588651292946425	0.9466937978214287
O	-6.419173463660714	4.353964269294643	-2.5171983321785714
O	-3.0693748036607142	3.071935869294643	-3.8447140721785713
O	-2.3852580936607146	-0.029388530205357324	-5.773690962178571
O	-3.2654025236607143	-2.4979875007053574	-3.0385937921785713
O	-1.7608008836607143	-5.916033990705357	-2.2731477421785713
O	-2.3439037836607146	-9.334650260705358	-3.5890588621785717
O	-2.4633663936607144	-12.474516710705357	-1.4418375841785713
O	1.0137571063392858	-13.297246110705357	-2.8363517521785715
O	2.3998012263392856	-10.079040260705357	-1.5165545911785714
O	1.0148662863392857	-10.678045210705358	1.9472784278214286
O	2.1980760963392854	-14.221474010705357	2.4661691878214285
O	6.618779676339286	-11.326574310705357	-1.4754991011785714
O	6.861865886339286	-8.647457890705358	1.183147757821429
O	12.750612266339285	3.724908899294643	5.8679304078214285
O	16.140790566339284	0.1954811302946427	4.290108317821429
O	12.607711566339287	-0.2743559877053573	2.7521579678214287
O	11.301222766339286	-1.7924095207053574	6.113664907821429
O	9.557238466339285	1.3079516792946426	7.54342254782143
O	6.349095086339286	-0.6852011067053573	7.747534297821429
O	7.575117536339286	-2.389059590705357	10.996329527821429
O	4.220465226339286	0.5253945342946427	13.278081827821428
O	-3.8170098736607145	-4.396408190705357	7.048382917821429
O	-6.940708633660714	-4.4896013607053575	4.889027407821429
O	-6.089433033660714	-4.351288120705357	1.2404140578214287
O	-7.525234733660714	-4.796245980705358	-2.2374579121785714
O	-5.580583733660714	-5.062185860705357	-5.536920952178571
O	-9.948095373660713	-8.188286760705358	-0.4508164711785714
O	-12.961202733660715	-0.8637380957053573	-0.23630446817857131
O	-12.644989633660714	-0.5869414967053573	-4.014819812178572
O	-8.816786113660713	-0.5903910137053573	-4.206725632178571
O	-6.130827883660714	0.3138562052946427	-1.7723445671785714
O	-4.871511593660714	-0.3189196277053573	1.6841586578214287
O	-5.935188293660714	0.5214392552946426	5.289923767821429
O	-3.2079839136607147	-0.01729987570535732	7.883866247821429
O	3.4661241063392856	14.379699789294643	0.07062426782142861
