23

O	6.120379095409885	13.711817295888693	24.61122106937551
O	7.136565319329065	14.361191668693698	25.209251681605316
O	5.500419439716618	12.527897759910621	25.180242429290942
O	5.025937013148436	14.448552313955506	24.341796069780447
O	8.276234517200404	13.876898594035948	25.414686975356094
O	6.501550480975442	15.672219873647107	25.745373575089637
O	4.147617188648008	12.572515152573208	25.195982881485175
O	5.891866625733218	11.284932584754834	25.110827626830137
O	3.844961614415772	13.75420214922923	24.451455373456206
O	4.551781695051998	15.865799696937263	24.500393239357557
O	8.92997480405478	13.196288157688507	26.347817986851155
O	9.369289251792303	13.936402414504453	24.5666770165504
O	5.942002896477833	16.26000977495256	24.436265729324766
O	3.2613214100836876	11.737758640533595	25.801320160039378
O	5.0636298583131225	10.25918931025592	25.53196749414671
O	3.0383491177630315	13.626067726436176	23.473441576330156
O	9.961999672483838	14.074131282336397	26.488565873331005
O	10.437249737614522	14.369196710879777	25.23512570372985
O	3.842680759726025	10.50542534893596	26.167879008104123
O	11.12475134085696	13.47880111064084	27.18396336708104
O	11.7356934036483	13.896842331079432	24.861502556024703
O	12.412043596742192	13.959433461001964	26.956302273959587
O	12.699653591725376	13.456534390565878	25.709323463160583
