19

O	0.7496307286246043	9.138786853358758	27.076963785525592
O	-0.507059705725087	9.315292387888231	26.628272445809
O	3.841195786458854	8.42186162332234	26.731369926793104
O	1.7691927558378366	9.652444138978709	26.20718746871188
O	-0.021083137414322994	11.072396451803055	25.64625209936558
O	1.2538258920526226	10.638667101007886	25.35733107177831
O	-2.2704708442856156	10.556675804502573	25.595127815805768
O	-0.9170626023611805	10.168261339384811	25.550179098755226
O	3.2214841078563454	9.34191212140194	26.176714161907345
O	3.9721236489277167	9.440641223769003	24.832355101740546
O	3.258352806390013	10.473888102046288	24.064143580938843
O	4.506023670542079	11.284097972014504	23.65687145418146
O	2.107475913514275	11.310628692910868	24.343615341957825
O	4.813359734431968	12.108335911631105	24.744985598895134
O	6.134251205049432	12.558450912651928	24.83674344381363
O	7.050407971468049	11.507394233702172	24.85582769335341
O	6.864770666920792	10.647207743942147	23.819140321012597
O	5.594160983527269	10.503972407956953	23.25802953567938
O	1.4091565256850531	8.15315542358855	27.945775583783632
