77

O	0.9857419630655737	1.1475538830754108	-3.216696673836066
O	-4.491707296934426	-0.17070953392458932	3.010083436163934
O	-3.4612217669344263	-0.19326793192458935	2.055226436163934
O	-3.7206535169344264	0.23212846907541068	0.7921345061639338
O	-4.861300696934427	1.0240327890754106	0.6149021461639337
O	-5.431313936934426	1.0769375790754108	-0.6210265978360662
O	-4.778055656934426	0.4041398840754107	-1.6232210338360662
O	-3.458384856934426	-0.023321397924589315	-1.4651758538360662
O	-2.804254956934426	0.034922388075410704	-0.20578614583606622
O	-1.3334391969344264	-0.03701224992458929	-0.1486027028360662
O	-0.7796060369344263	0.6693646644754107	-1.2443270198360663
O	0.43703597306557374	0.39056799807541065	-1.7701845938360663
O	1.0020303930655736	-0.7501103019245893	-1.4101378478360662
O	0.5429709130655735	-1.3622867519245894	-0.28961752283606623
O	1.5178735530655738	-2.2337658819245894	0.1972621511639338
O	-0.6036852199344264	-1.0931744919245894	0.3569894721639338
O	-5.004876726934427	-9.358015411924589	2.560228396163934
O	-1.8009674699344265	-7.384739881924589	3.214489946163934
O	0.37737961306557355	-9.741816411924589	1.1280786361639337
O	-2.0982573069344266	-9.32247588192459	-1.7386700538360662
O	-1.9011543659344263	-5.4937307419245895	-1.3604217568360661
O	1.8972821330655736	-5.89186816192459	-1.5722707838360663
O	1.6309429430655735	-8.06655955192459	-4.644833173836066
O	-0.5986855719344264	-5.444878061924589	-6.425653643836066
O	1.9065634330655736	-2.7019259219245892	-5.531427513836066
O	4.807688153065573	-4.88151618192459	-6.813463483836066
O	2.8704039430655737	-5.617437411924589	-10.057085863836067
O	2.3589005130655734	-1.8023222919245896	-10.472926393836065
O	6.021921383065574	-0.8156565719245893	-10.243023923836066
O	6.9247337130655735	-3.7852337219245893	-12.426278593836066
O	5.613256013065573	0.9422299930754107	-14.865714793836066
O	5.7679105330655736	-6.02592934192459	9.776757506163934
O	4.858370223065573	-6.680016791924589	6.151606456163934
O	7.505571233065573	-5.125001521924589	3.9352769961639336
O	7.351429383065573	-4.723191781924589	0.19449615816393379
O	9.413925643065575	-2.9790175719245893	-2.496143253836066
O	6.336280393065573	-2.1145944819245894	-4.536893623836066
O	5.403719653065574	1.2003268630754107	-5.989616983836066
O	4.820990143065574	2.9590400380754107	-2.652957253836066
O	2.2801681330655734	5.610553778075411	-1.7527063738360662
O	2.335166223065574	9.36013885807541	-2.2045422038360662
O	1.0612163030655737	11.81677348807541	0.3881153371639338
O	-2.0449372369344263	12.238624688075411	-1.8169739438360664
O	-2.7785629969344265	8.487738878075412	-1.6226752138360663
O	-2.529487286934426	8.574384338075411	2.177991726163934
O	-4.681635056934426	11.604349888075411	2.947370826163934
O	-7.114839396934427	11.491923988075412	0.09306853316393376
O	-7.045056356934427	8.91952790807541	-2.646675573836066
O	-7.220919586934427	5.67732337807541	-0.7027672738360662
O	-10.134716506934426	7.0166100280754105	1.3665448561639337
O	-11.776559056934426	4.7738785780754105	-3.395308873836066
O	-12.460081356934426	2.9698881480754107	-0.09195374783606619
O	-10.617172756934426	-8.196298381924588	-0.11768200283606622
O	-13.267539156934426	-8.749674231924589	-2.829920313836066
O	-14.319806556934426	-5.147094881924589	-1.9317305938360663
O	-10.802619796934426	-3.658941851924589	-2.296896263836066
O	-10.639679356934426	-2.729547421924589	1.5061652661639338
O	-8.636314536934426	-5.68846550192459	2.818432086163934
O	-6.174273816934426	-3.4166448619245893	4.516695706163934
O	-8.584687676934426	-2.6987887419245893	7.373473576163934
O	-8.555429586934427	-6.386744491924589	8.291483786163933
O	-5.2561089069344265	-5.418611831924589	9.973639406163933
O	-7.5234215569344265	-4.2959995819245895	12.778722106163935
O	2.5091295930655733	2.4265165180754105	7.483410966163934
O	5.862174043065574	3.6801232880754107	6.257556366163934
O	5.927963953065573	4.274111638075411	2.542856986163934
O	8.030891043065575	5.83568473807541	-0.1947368078360662
O	6.968955073065573	6.499133628075411	-3.826232883836066
O	8.998150023065575	9.116485488075412	2.802815726163934
O	5.852308563065574	9.261625468075412	5.010473906163934
O	0.8013904730655736	7.001508738075411	8.419469816163934
O	13.644881143065573	2.6942811380754104	2.566469026163934
O	10.861474443065575	2.5930808080754106	-2.422551953836066
O	7.927614033065573	0.6116605064754107	-1.1355802698360662
O	5.719572683065573	0.1429277070754107	1.8709254961639339
O	6.045597793065573	-1.3578189719245892	5.378544586163934
O	2.8738674230655734	-2.0798940519245894	7.291155206163934
