86

O	0.19387580155172368	0.3075715093448279	2.9620720645689658
O	-0.2261402484482764	-0.4828216666551721	3.9977035745689657
O	-1.0785483144482764	0.14355221334482793	4.922704864568965
O	-1.0493298354482763	1.5328832703448279	5.009837034568966
O	-0.7077215408482763	-1.769011116655172	3.9633757045689664
O	-0.2672151814482764	2.2798866633448283	4.1235165345689655
O	0.6437262905517237	1.573664001344828	3.334926524568966
O	-1.4081920794482765	-0.963448016655172	5.715731964568966
O	1.0732353905517238	-1.0091971566551718	-3.016773575431034
O	0.05386670355172363	-0.18861425665517206	-3.260273075431034
O	-0.5071939344482763	0.625510129344828	-2.378096675431034
O	0.2232587155517236	0.9162200043448279	-1.2904132614310342
O	1.3074667105517235	0.07419547334482801	-0.9856336024310342
O	1.7111214705517237	-0.8988598966551722	-1.854830085431034
O	2.7378901705517236	-1.802616786655172	-1.529377671431034
O	1.7275893205517234	0.484481554344828	0.23517409556896585
O	1.1980425605517238	1.706616605344828	0.5252848845689658
O	0.10057152855172369	1.7641082563448278	-0.23269196243103418
O	-0.7500487108082764	2.9597504933448278	-0.24927583443103418
O	-0.3812938454482764	3.674610733344828	-1.5446482254310343
O	-0.8616809314482764	5.092378873344828	-1.6034600674310342
O	-1.8697368494482762	5.157624733344828	-2.661591085431034
O	-1.4858781464482762	4.187740503344828	-3.655300875431034
O	-0.18739039444827632	4.637084613344828	-4.263763465431034
O	-2.4727337194482764	4.041607503344828	-4.7769247354310345
O	-0.8343228723482764	-2.163018036655172	5.306329364568965
O	-0.8982691904482764	3.878654963344828	3.2270072045689657
O	1.5847547205517234	2.461694443344828	2.1252628245689658
O	3.1946167305517235	3.383197883344828	15.692198944568965
O	10.254657840551724	2.946855873344828	2.472240584568966
O	8.395458590551724	-0.2109302166551721	1.4068266745689662
O	10.227816640551724	-0.4801493366551721	-1.9477230054310342
O	9.278695140551724	3.138564573344828	-2.6510275254310343
O	5.634287710551724	2.353495423344828	-1.819401775431034
O	5.856636610551724	-0.5340073666551721	-4.305009475431034
O	7.388916660551723	1.7048868783448279	-6.963600735431035
O	4.499068700551724	4.270829763344828	-6.548250515431034
O	1.9578539505517236	1.458247721344828	-6.907115335431034
O	3.732646440551724	0.10117121334482793	-9.995784445431035
O	3.8028295305517235	3.661912313344828	-11.498081055431035
O	-0.004173960448276337	3.907851223344828	-10.827471355431035
O	-1.0069653804482763	0.7173662773448279	-12.659171855431035
O	-3.6928469094482765	3.5869104833448278	-15.704978455431034
O	8.273029310551724	-10.308878806655173	2.263626694568966
O	8.193050570551724	-7.381887976655172	-0.1530141574310342
O	6.1300857005517235	-8.319677966655172	-3.1841374154310342
O	1.4519184605517235	-2.749995706655172	-8.613965005431034
O	-2.0624635594482763	-1.4447404066551721	-8.525682855431034
O	-3.1317517594482767	-3.224511706655172	-5.363863025431034
O	-5.4376079194482765	-1.965412536655172	-2.6145491154310343
O	-9.227555209448276	-2.1599796666551723	-2.346124565431034
O	-11.054120259448275	-2.9327745266551717	0.8857257345689659
O	-11.851705859448275	0.807043701344828	1.0923166145689658
O	-8.156133109448277	1.699824967344828	1.0043778345689658
O	-7.415989339448276	-0.750976936655172	3.8344511945689663
O	-10.186484269448275	0.16950512334482792	6.276000854568966
O	-10.632356679448275	3.8086862233448278	5.493168024568965
O	-8.668508539448275	5.637737543344828	2.872809774568966
O	-5.122517179448277	4.972771953344828	3.932509814568966
O	-5.9155694394482765	5.956266883344828	7.5214650345689655
O	-7.683655029448277	9.120165023344828	6.447800654568965
O	-4.698626699448276	10.326021763344828	4.357853894568965
O	-2.2382502794482764	9.181653413344828	7.043378204568966
O	1.1780475105517239	13.022212993344828	7.424819914568966
O	8.643144460551724	8.894272873344828	3.921391564568966
O	5.337975040551724	12.597383093344828	5.206894984568965
O	3.7291098505517235	9.785742653344828	3.089626334568966
O	3.643632210551724	7.376755143344829	6.172319714568966
O	6.759414100551724	5.297249533344829	5.475635094568966
O	4.701326040551724	2.064612640344828	5.692522824568965
O	4.782315500551723	2.271966713344828	9.516900744568966
O	7.897747190551724	-1.629955106655172	9.097354884568965
O	7.434918140551724	-1.5805922966551722	12.839053444568966
O	-0.41024419044827637	-7.309537136655173	3.9313604945689655
O	-1.9523089294482765	-9.352762606655173	1.185220134568966
O	-3.2879363594482767	-7.186319736655172	-1.5909662764310342
O	-5.415555879448276	-7.511048186655172	-4.747552165431035
O	-6.826119019448276	-4.618453776655173	-6.867783665431035
O	-8.015562849448276	-10.397228506655173	-2.4023229254310343
O	-7.655926079448276	-9.185142006655173	1.2163958345689658
O	-4.677411189448276	-6.950805076655172	6.4860033445689655
O	-2.7806620694482764	-8.135661186655172	-8.786661695431034
O	-0.5282440284482763	-6.302408046655172	-6.363261335431035
O	0.6160665105517237	-6.201845406655172	-2.759358435431034
O	2.7834252305517238	-8.412622836655173	-0.48994636743103415
O	3.9585616005517235	-6.982856796655172	2.784554694568966
