87

O	-0.5459969809365086	-3.049657483434921	-4.707556087587301
O	0.9061204090634913	-1.4135570034349207	-0.9356315855873012
O	-0.7679153900365085	3.774530326565079	0.2388786124126987
O	-0.6285131729365085	-1.726278523434921	-5.425401947587302
O	1.0324462290634915	-0.4754844434349208	-3.176164427587301
O	0.6339956890634915	5.330362506565079	-0.2897508895873012
O	-0.9644003549365086	-0.7736436134349209	-4.6008452275873015
O	1.0319964690634915	-2.112757673434921	0.27906678241269867
O	-0.35086616693650857	-0.7923724834349208	-3.321911887587301
O	-0.4634016569365086	-3.008322533434921	-0.5494579525873012
O	-0.7597178879365086	-2.061710853434921	-2.6278674775873014
O	0.4473492090634914	-4.035617933434921	1.447310052412699
O	-0.11514774293650853	-3.105021313434921	-3.348123737587301
O	-0.3465368389365086	-1.9441136134349208	-1.3902884435873013
O	1.4357598790634913	-0.5834559434349209	-1.9846018375873014
O	2.468314079063491	0.3507346065650791	-1.4965470075873013
O	1.8187166590634916	1.688755826565079	-1.3273337505873013
O	2.0755617690634915	2.566173946565079	-2.3762455275873013
O	1.7292184290634913	3.875601116565079	-2.060037327587301
O	0.9620970790634915	4.159748526565079	-0.9369110995873012
O	0.046545901063491435	3.1744746465650793	-0.7419856256873012
O	0.5721040990634914	1.8697631665650791	-0.7358936867873013
O	-0.6601580098365085	5.172635076565079	0.2018944824126987
O	0.5534474090634913	-3.2363437034349207	0.3720267524126988
O	9.311843319063492	12.898690516565079	-2.891610507587301
O	10.943124419063492	-1.8159542534349211	-0.5446976345873012
O	8.025550429063491	-1.928446573434921	1.9014458924126987
O	8.399961289063492	-5.654098913434921	2.629440052412699
O	8.366603959063491	-6.312315163434921	-1.1046692995873013
O	5.157753719063491	-4.223595733434921	-1.4112090525873011
O	3.6982732590634915	-6.409370913434921	1.3224519824126988
O	4.789122459063492	-9.59560768343492	-0.36777072658730126
O	3.0896558190634913	-8.49054524343492	-3.6658183575873013
O	-0.11108503493650856	-7.616684533434921	-1.759726581587301
O	0.014376183063491421	-11.05437968343492	-0.016096298587301217
O	0.5836501990634915	-12.841245883434922	-3.3716689075873014
O	-2.5090958109365085	-10.93457378343492	-4.732699847587302
O	-4.950881820936509	-12.02269398343492	-2.0392323175873015
O	-7.581926080936508	-14.26966308343492	-5.589445127587302
O	5.338198409063491	-0.2557285444349209	11.525574642412698
O	5.255022389063491	-2.722044843434921	8.641575922412699
O	2.1038539790634916	-4.790646563434921	8.876446132412699
O	0.7562854990634915	-7.158637403434921	6.297358012412699
O	-2.368733210936509	-8.78664951343492	2.0832523424126985
O	-5.096698410936508	-7.620085973434921	-0.2123793105873013
O	-5.405221310936508	-4.117740513434921	1.2408088324126987
O	-6.168338250936509	-0.8996504734349209	-0.5832656625873013
O	-9.582061240936508	0.6062925489650791	-1.5037771875873012
O	-10.361733360936508	4.313869086565079	-1.2701624335873012
O	-9.937238350936509	4.442002936565079	-5.077129677587301
O	-6.389359590936509	3.061835226565079	-4.816397357587301
O	-5.479201040936509	5.6897897165650795	-2.233622457587301
O	-6.785267250936508	8.76941813656508	-3.9359848175873013
O	-6.450017550936508	7.864413396565079	-7.547465947587302
O	-5.097922760936509	4.586269936565079	-8.741772337587301
O	-1.7079108609365086	4.43516250656508	-6.967013417587301
O	-0.9383776429365086	7.889088766565079	-8.1883281475873
O	0.3022471590634914	4.17220651656508	-11.988182757587301
O	3.0885762290634915	5.9952907965650795	-10.124309337587302
O	7.363279359063492	4.905034966565079	-12.764822357587303
O	11.684711319063492	-0.4641880634349209	-6.671354777587302
O	10.228649019063491	1.483336797565079	-11.181428957587302
O	7.255831139063492	0.2955487375650791	-8.982823707587302
O	7.554498669063491	3.431996786565079	-6.675015227587302
O	9.546241719063492	1.961256196565079	-3.7783309875873012
O	6.825057289063491	3.143463606565079	-1.3186049175873014
O	8.315465449063492	6.6672504065650795	-1.4272696975873012
O	9.870033319063491	5.591627296565079	3.240414202412699
O	10.718492519063492	9.26025309656508	3.092039982412699
O	4.006592819063492	8.22352811656508	7.003990592412698
O	-0.9916870979365086	3.9940540965650793	6.0806876224126984
O	-3.9080898909365085	2.108822786565079	7.553441032412698
O	-5.480995530936509	-0.2645219414349209	5.091073622412699
O	-8.549041770936508	-2.460313723434921	4.6738883924126995
O	-9.669204500936509	-4.206226913434921	1.4378499724126987
O	-10.900404480936508	0.8427731565650791	6.711638122412699
O	-8.987253860936509	4.02434861656508	5.738231582412698
O	-6.129219840936509	6.114746166565079	7.087201772412699
O	-3.8265012909365086	7.770806706565079	4.525488122412698
O	-1.7215253569365085	13.853621916565078	1.6222808824126989
O	-7.399976030936509	10.31174875656508	3.6110522024126985
O	-7.758030220936508	-7.082178233434921	5.967876482412699
O	-4.396985030936508	-5.723433093434921	4.963594102412699
O	-2.0957085909365087	-2.700369483434921	5.232776692412699
O	0.0010193330634914455	-1.1562547434349209	8.056477012412698
O	2.5993296490634914	1.411200287565079	7.108303092412699
O	3.542392759063491	3.458096866565079	10.167426842412699
