18

O	1.6446921701707153	13.384384911294273	22.784365037841546
O	6.456867946533914	13.894647791005765	24.940346614108606
O	-0.9426725994314705	11.189189269857307	24.75389763472499
O	-1.1029209050556288	10.683639438042256	26.000670579586917
O	6.289831909275535	11.241220961077799	23.47310728490239
O	1.429458565869202	10.958662008544346	24.832034230635703
O	0.28028093388896186	11.310636349895098	24.176990849495336
O	1.1606136151911892	10.254918306499349	26.012648334589958
O	-2.1250037123129153	11.759808032286095	24.262322172076853
O	-0.13430965845321063	9.894336917780638	26.454176964871372
O	-0.3646164262068251	9.41769711043081	27.868949421234824
O	2.726747542858576	11.553929378851825	24.467418411898517
O	2.80290671335483	12.868254398293175	23.975760606178817
O	4.01901662838239	13.577142374651928	23.914823125444002
O	5.069948738779492	12.922364087365994	24.557235132774682
O	5.173170499988206	11.583710589012401	24.16412942978085
O	3.937831632640813	10.89648548557513	24.21782073887538
O	7.354827337897037	12.172272995368068	23.250365072982266
