77

O	1.1740510624098368	1.0296581568196723	-2.8626083430491804
O	-4.339114137590164	3.0390018778196723	0.0003492799508196809
O	-3.2056494575901633	2.2493723378196724	1.2114380869508197
O	-2.532496897590163	0.7051486448196722	0.5324280209508196
O	-2.2271451175901635	1.0586851988196722	-0.6720307720491803
O	-1.7804529935901634	-0.41611867118032786	1.1827544069508196
O	-0.4603292155901634	-0.5609836921803278	1.0384522069508195
O	-0.030587097590163426	-1.7585012421803277	1.1096115469508196
O	-0.35502075859016335	0.1502123408196722	-0.14850380904918034
O	-1.3107991005901634	0.4257873369196722	-1.1847165660491803
O	-1.3768699065901633	0.14529265481967218	-2.6574634530491803
O	-2.0767697075901634	-0.9960437821803277	-3.0934390930491804
O	-2.6256095375901634	-0.5246645961803278	-4.32485945304918
O	-1.6529228065901633	-0.28827735418032785	-5.29141284304918
O	-0.4063319995901633	0.0685999758196722	-4.79381675304918
O	-0.16809638759016332	0.07117485081967218	-3.3930957830491804
O	-2.851667607590163	-10.214135232180327	-3.2288848730491804
O	-0.3239423615901633	-8.191765732180327	-1.2171051510491804
O	-1.8130217515901634	-9.221243792180328	2.15494014695082
O	-5.216940967590164	-8.105493692180326	0.8761055069508197
O	-3.6962005675901635	-4.744017422180328	-0.21402766104918033
O	-2.2719511675901636	-4.476533962180328	3.3418501069508197
O	-5.636296567590163	-5.271267872180328	4.83754150695082
O	-7.375868037590163	-2.534215822180328	2.75364431695082
O	-4.691990567590164	-0.06535200618032783	3.87054891695082
O	-5.154526607590164	-1.0766475821803279	7.50721468695082
O	-8.981500277590163	-0.7430150421803278	7.12817515695082
O	-8.433461687590164	2.803081017819672	5.70036260695082
O	-6.342897097590164	4.144069287819672	8.57763666695082
O	-8.683949587590163	2.4438586278196723	11.02916511695082
O	-9.940274617590163	7.492782267819672	9.29487216695082
O	8.982631662409837	-8.476381732180327	2.7895562769508198
O	5.3152713324098375	-7.790675892180329	3.4646298669508195
O	5.0505838424098375	-5.113775522180328	6.12592861695082
O	1.9448744324098368	-3.317097882180328	7.23118405695082
O	1.0822700124098366	-0.3680775831803278	9.486485136950819
O	-1.7419643795901634	0.7726758188196722	7.23466325695082
O	-2.4173746275901635	4.2119076778196725	5.91350258695082
O	0.6768651124098366	4.432154557819672	3.72328278695082
O	1.1082778024098365	6.108848787819672	0.3594528439508196
O	1.8501930324098366	9.709496197819673	-0.5342379130491803
O	4.207045392409837	10.734595567819673	-3.3134505030491805
O	1.0764809324098366	11.526649967819672	-5.38107519304918
O	-0.1718444345901633	7.941015507819672	-5.01115645304918
O	3.187477402409837	6.579099617819672	-6.17414617304918
O	3.7728177224098363	8.733451267819673	-9.24833383304918
O	0.2374509724098366	9.400045187819673	-10.34072078304918
O	-2.802880887590163	8.115194747819672	-8.53134257304918
O	-2.1896576175901634	4.388376197819672	-8.42047824304918
O	-6.7441092275901635	3.9560771978196723	-11.210650583049182
O	-4.778672497590163	0.9357701258196722	-12.47533868304918
O	-7.251494597590163	-8.983861032180327	-7.60547909304918
O	-10.890893577590163	-8.787053922180327	-8.79005986304918
O	-9.549129757590164	-6.016112982180328	-11.113592883049181
O	-7.856593697590164	-3.9961021121803273	-8.28460382304918
O	-4.295819397590163	-4.6374582821803285	-9.822905073049181
O	-3.1482689775901633	-7.535996862180328	-7.62855388304918
O	0.034978192409836684	-5.670566062180328	-6.71266034304918
O	1.6066961724098365	-6.565802892180328	-10.07661369304918
O	4.471226432409837	-9.558585582180328	-7.2479762230491795
O	6.191221752409836	-9.970509832180328	-10.584630283049181
O	8.139596312409838	-0.36803976518032777	-1.7746205330491804
O	8.924278562409837	1.727781617819672	1.2618073569508197
O	5.972001462409837	3.7312276178196724	2.4584949469508195
O	5.022631092409837	6.523159667819672	4.81952876695082
O	1.675889962409837	8.399572867819673	4.98222145695082
O	8.953662662409837	8.470609567819674	3.6400641169508194
O	9.487267562409837	7.2903031978196715	0.024574236950819672
O	9.561780662409838	3.2063559478196724	-4.97424904304918
O	11.950386362409837	5.648487557819672	9.580899646950819
O	8.912162962409838	3.401932777819672	9.73867561695082
O	3.4311247624098367	4.875895577819672	9.096275416950819
O	2.652777192409837	2.144910177819672	6.63632293695082
O	4.0280292024098365	0.20391832981967217	3.69575212695082
O	6.678684022409836	-2.4656641521803278	3.1788109069508197
O	6.778858612409836	-4.340354352180328	-0.06252493804918036
O	-7.712300447590163	-11.447499932180328	7.46524842695082
