24

O	3.954718048717427	11.909388595896718	23.80359375677926
O	0.6365914976196891	11.281979852860728	23.758989947707406
O	6.457333993624637	14.899247576342052	24.90336796659489
O	5.2076734385719385	11.949510035989086	23.276592024816466
O	1.973374219963283	10.136178211648694	25.120282129438234
O	5.976305635042116	13.112787006415623	23.1656319181864
O	-1.9030955167691663	10.4335185515478	26.176613595900942
O	4.399239102599451	15.282469938438094	25.33460183215573
O	5.70889929582817	14.059899801146601	24.11354081179453
O	0.24486401542182246	9.73559560154247	26.825834925678258
O	4.4119853601645715	14.088339368773292	24.61906138673103
O	-2.23790378427851	11.764553295544198	24.230961486440886
O	3.5931876197144685	12.956436053184692	24.598784751746326
O	5.665330825711826	15.651810763413543	25.778311607429387
O	2.992231368366464	11.039770344858528	23.046929029837035
O	1.8688998429562265	10.838784704892554	23.970883726805685
O	-0.06686654566337635	10.918138690083193	24.842444268908483
O	0.74997372831933	10.130939320265437	25.6495325484309
O	-1.414256747185844	10.988391731235222	25.069359041444553
O	-1.0858032961712258	9.69113983288262	26.927104071189596
O	3.0882470416981045	9.47152011651608	25.741828952238727
O	2.618900577690135	8.122453706960014	26.21211759444657
O	2.82026936265323	7.154286126539857	25.052405331161836
O	2.6778011411075076	5.766074631541712	25.613081713764878
