88

O	3.4079357069322036	-1.1142125578661015	1.3406631338610169
O	0.4886338139322036	0.9589509991338985	-2.0910985261389827
O	-0.5787629340677963	1.8379628821338985	-1.952655186138983
O	-1.1827554330677965	1.3385134641338983	-0.865549813738983
O	-0.3178839800677964	0.7738532222338984	0.147037432861017
O	0.9015569869322037	1.5204711851338986	0.06491358986101703
O	1.4814334069322035	0.8149399361338984	-1.028130850138983
O	-0.11265351927779638	-0.7535427578661015	0.05094593086101695
O	-0.7244232410677963	-1.6724544078661014	-0.781947153338983
O	1.1370737069322034	-1.4354317678661013	-0.03876454313898303
O	-1.8942451830677964	0.3791029841338984	-1.773472006138983
O	0.37042453393220365	0.21366515613389842	-3.231385156138983
O	-0.2694817800677964	-1.8448459778661013	-1.969945936138983
O	0.7637620599322037	-1.4550564678661013	-1.433997486138983
O	1.4527086369322035	-2.5882595778661015	-1.818696576138983
O	2.1948616469322038	-0.9778742878661016	0.8333382038610171
O	2.0245130969322034	0.052262701133898415	1.8887227838610168
O	3.0545730769322037	0.9890335791338984	2.2296808638610166
O	4.343798626932204	0.6739757367338984	2.3876502538610174
O	2.6171275669322034	0.027413074133898374	-1.3739075111389831
O	4.030827696932204	-0.3003218078661015	-0.950677661138983
O	3.0305684169322036	-0.23906299286610155	-2.4783491361389833
O	4.712280386932204	-1.5245512978661013	-1.326266869138983
O	5.387162056932204	-2.5439840978661015	-0.628629245138983
O	4.495825246932204	-0.6782186578661017	2.001685973861017
O	4.993812686932204	0.7665222506338984	-0.858645944638983
O	7.168890626932204	-1.0143878078661017	-1.174277031138983
O	6.722278966932204	-2.0347818278661016	-0.172052743138983
O	0.7635910849322036	0.03411324513389846	2.501665063861017
O	2.4024673269322037	10.412952442133898	-2.949880026138983
O	-0.48960981006779636	7.939863092133899	-2.373357276138983
O	-1.1617367430677965	7.4586126421338985	-6.106999746138983
O	2.4653186369322033	6.637349812133898	-6.574190706138983
O	2.0779269269322036	4.210262572133899	-3.761084706138983
O	-0.8026959310677964	2.5650787321338986	-5.621984906138983
O	1.1451135969322035	2.5280219921338984	-8.852739736138982
O	4.016141016932204	0.6409229662338984	-7.067973616138983
O	1.5560131769322036	-1.8680613878661014	-5.601344526138983
O	-0.009233463067796377	-2.2980615678661014	-9.113686646138984
O	3.4870823469322034	-2.7351307978661015	-10.687372066138982
O	4.227841766932204	-5.388411647866102	-8.002667576138982
O	1.1964342269322035	-7.597191817866101	-8.732662096138982
O	1.7245059569322034	-7.1142688978661015	-12.443067766138983
O	4.391318896932204	-11.189610547866101	-9.928578846138983
O	-10.426648863067795	7.437394982133899	-0.633713291138983
O	-7.552936653067796	6.232426682133899	-2.809710686138983
O	-8.338569163067795	2.7600382921338986	-4.041363386138983
O	-6.081715193067796	0.4359643531338984	-5.888055386138983
O	-6.143146573067796	-3.1852063778661015	-7.023529116138983
O	-2.4699673730677967	-3.665498297866101	-6.4728662961389825
O	-0.7105294060677964	-6.363192397866102	-4.5612404161389835
O	-2.0612652030677965	-5.354754837866102	-1.148476653138983
O	-0.41670499106779635	-5.611799787866102	2.217952813861017
O	-0.026929468067796378	-8.507375147866101	4.543847603861018
O	-0.46504332106779633	-8.3343492278661	8.320874843861017
O	3.3352494069322036	-8.546943037866102	8.616977693861017
O	3.6839246569322035	-5.470857437866101	6.400999763861017
O	1.2679336269322035	-3.4986163178661016	8.578283203861018
O	2.6636835969322035	-4.269274537866101	11.989882233861017
O	6.298100446932204	-4.756082167866102	11.231459433861017
O	7.764148846932204	-4.489148447866102	7.806391903861018
O	6.663384226932204	-1.0293243078661014	6.7171827338610175
O	11.889565536932205	0.09327596413389838	6.290910993861017
O	10.440117736932203	3.5031409921338987	7.153035693861018
O	8.564197436932204	10.561208452133899	-1.5038434651389831
O	12.284460736932203	10.585846202133899	-2.450956456138983
O	12.739418336932204	8.963987012133899	1.015386653861017
O	10.102889736932203	6.166625342133899	0.4909574838610169
O	7.856799576932204	7.6408082421338985	3.3458576438610175
O	5.330973636932204	9.547406002133899	1.230392403861017
O	2.4653250369322035	7.743864162133899	2.9299856338610173
O	2.7571104769322035	9.969992772133898	6.010794593861017
O	-1.5432047330677965	11.907513152133898	4.308785353861017
O	-1.3116272330677965	13.707589052133898	7.622644423861017
O	-6.227133413067796	1.6644711161338983	5.370218883861018
O	-8.163322193067795	-1.3693606178661013	4.178827433861017
O	-5.916894723067796	-3.8382750778661014	2.387980773861017
O	-5.9772023530677965	-7.382776917866101	1.0860993138610169
O	-3.0287392330677965	-9.483306747866102	-0.15718614013898302
O	-8.393928823067796	-8.457819317866102	4.775614223861017
O	-7.146551503067796	-5.975488187866102	7.407336463861018
O	-5.201287243067796	-0.3290457878661016	9.838357833861018
O	-12.259493763067796	-6.1182556778661015	-1.6914214301389832
O	-7.111549843067796	-7.646696397866101	-3.5853552561389828
O	-5.548655523067796	-4.283577867866102	-3.1210534561389833
O	-5.441893273067796	-1.2831781078661018	-0.864307682938983
O	-7.806160973067796	1.5618990351338984	-0.001187338138982974
O	-6.563069953067796	4.564423642133899	1.9048186638610172
