76

O	-0.7653744010095238	-1.388294654714286	-0.16361185400476183
O	0.4720576251904762	-1.121985044714286	0.4375972748952382
O	-0.9384130279095239	-2.795198764714286	-0.024190464104761847
O	-1.5972780958095238	-3.558356144714286	-0.9608830091047618
O	-0.43971178480952383	-2.597041164714286	2.254917951895238
O	-1.2249891598095237	-0.697110812714286	3.624533331895238
O	-2.5721764348095237	-2.1167683047142862	2.984565031895238
O	-1.4962129318095239	-0.584536135714286	-0.9507738311047618
O	-3.1178314148095234	-2.8741305047142864	4.110065291895238
O	-1.2718549848095237	-1.887609184714286	3.271441591895238
O	0.3094229951904761	-1.467252994714286	1.809959881895238
O	-0.8056473187095238	-3.365760094714286	1.209647551895238
O	-1.2346649078095238	-4.905452514714286	-1.071611393104762
O	-9.641724924809523	-2.372789484714286	-4.8925227881047615
O	-6.142312034809524	-0.9171126857142861	-5.154201768104762
O	-7.269890804809524	2.685507745285714	-4.642619788104762
O	-9.151767604809523	1.563886075285714	-1.534031538104762
O	-6.025559644809524	-0.14412308971428603	-0.24233456010476184
O	-4.126832904809524	3.0850257952857136	-0.8128630851047618
O	-6.826376554809524	5.057629895285714	0.9651779218952381
O	-6.638981154809524	2.839973715285714	4.047354141895238
O	-2.788733734809524	3.2043548652857137	4.014422501895238
O	-3.193209574809524	7.005074905285714	3.779069081895238
O	-5.763645244809524	6.958945025285714	6.6510970218952385
O	-3.225192494809524	4.970736045285714	8.76366226189524
O	-0.31660541480952387	7.375690295285715	8.398144271895239
O	-2.7103034948095237	10.283069825285715	8.91611638189524
O	-0.4837425628095238	7.920261435285714	13.333468461895238
O	0.7704703251904761	11.474404425285714	12.70109536189524
O	-2.459074214809524	6.865166615285714	-11.362253938104761
O	0.28346297519047625	6.533776945285714	-13.948910338104762
O	1.0518342151904763	2.178523655285714	-11.57496123810476
O	-0.9787570888095238	3.0795192752857137	-8.501056978104762
O	1.099740135190476	5.299794825285714	-6.258366668104762
O	0.27708630519047617	6.2785837152857145	-2.715821858104762
O	2.074076225190476	8.248706005285714	0.03983990889523817
O	0.45554962519047626	6.1345088652857145	2.730650811895238
O	2.0798933351904765	4.386394965285715	5.612236551895238
O	4.124208835190476	1.958939795285714	3.525656621895238
O	4.8968746651904755	-1.708311484714286	4.249372941895238
O	7.729409165190476	-3.2127740747142863	6.308467981895238
O	9.624065555190477	-6.336274584714285	5.296078321895238
O	7.553371935190476	-8.190817114714285	7.935993441895238
O	4.298829755190476	-7.1496603447142855	6.2557622818952385
O	5.542483015190476	-8.392277194714286	2.882237671895238
O	6.891029805190476	-11.810047874714286	3.872045961895238
O	1.9083600751904763	-10.388734374714286	8.01813696189524
O	-0.14841496980952384	-9.791422444714286	4.914062911895238
O	-12.676756344809522	-6.447957934714286	-1.1422972681047618
O	-15.355084444809522	-7.308645524714286	1.454257491895238
O	-12.915937844809523	-10.142315074714286	2.403068931895238
O	-9.848859274809524	-7.841220124714286	2.808347431895238
O	-7.991150524809524	-9.566693784714285	-0.16734378150476184
O	-8.778424354809523	-7.081946024714286	-2.947442568104762
O	-5.097157904809524	-6.768430934714286	-3.7534899081047617
O	-5.143623564809524	-10.079215974714286	-5.657592928104762
O	-7.7341728648095245	-8.736629544714285	-8.086893048104761
O	-4.668833514809524	-7.131464344714286	-9.705773708104761
O	-4.2844854448095235	-10.520519774714286	-11.32053283810476
O	5.098049795190476	-3.507615314714286	-5.290350058104762
O	7.638237155190477	-0.936364004714286	-4.237785418104762
O	7.173710285190476	0.26598694228571396	-0.7355121171047618
O	8.764466155190476	2.2386564852857136	2.047824301895238
O	7.683984195190477	2.4312723552857136	5.728701051895238
O	12.678419155190477	0.38175599128571397	0.6631650328952381
O	11.587693955190478	-3.050551484714286	-0.6972462071047618
O	7.941477715190476	-7.333429684714286	-3.859024028104762
O	13.958690155190476	6.392431385285715	-3.169205668104762
O	10.289783855190477	7.182362405285714	-2.670600888104762
O	10.167334055190477	8.885189735285714	0.7232025748952382
O	7.261158525190475	6.863248765285714	2.164979911895238
O	4.431455265190476	4.946394645285714	0.6250476718952382
O	3.6575071551904763	2.273193995285714	-1.927323828104762
O	3.623446625190476	1.8863280052857139	-5.705306728104762
O	1.8141614551904761	-1.055042604714286	-7.221015958104762
O	-12.044710944809523	8.787091465285714	-1.894062688104762
