29

O	2.644897396594313	13.64665435176053	24.160434219511654
O	0.8401495889772501	10.085783325180119	25.588169107965
O	0.29419507889689767	9.66375396442341	26.75572595096145
O	7.739793882782781	12.414684843083574	22.861415362068758
O	0.01495793122548461	10.877867294652017	24.812438099917184
O	-1.8169335650788665	10.435080208005687	26.22943760299868
O	7.8881686831105	13.578951723641794	25.12656656932009
O	-1.3300872815649574	11.001397574679348	25.098629666550917
O	0.7526351332339591	11.301928699558065	23.78715375499329
O	5.5728926969216595	14.728553043572152	25.487578408383644
O	-1.0280940535215088	9.560415105734531	26.85453712854247
O	2.0900183169998496	10.11792771743618	25.104980890413984
O	2.0043302623281374	10.90342246984424	24.002383913678884
O	-2.224686655852319	11.774419733808253	24.327902567612004
O	3.1537000763904626	11.140983721698772	23.116069807842027
O	3.2350182215626027	9.750091070476959	25.899222671618844
O	2.803271694848864	8.519012399629894	26.710113819761734
O	3.6920834947293386	7.415084619924526	26.12932622154713
O	5.027531078556393	8.037315549267214	25.930593347963924
O	5.770411464355059	8.636038952496824	25.15868412099957
O	4.311362262429803	11.671112911510145	23.944055990107447
O	4.2070151050101305	12.918543974515723	24.578219822081458
O	5.538428852975972	11.508119423467573	23.3984385265343
O	5.386082760391401	13.525557007410079	24.926314942038125
O	6.770923960142596	12.04652466709445	23.835298335931494
O	6.672863656017425	12.924711544593254	24.878456651218308
O	8.466467775142442	13.65678711282263	22.894268743815097
O	8.336420505813185	14.782133420871462	25.535872852113854
O	5.946651259915528	15.78726267756633	24.579730190895695
