31

O	5.219500672751158	7.6822312068951	21.151340300921802
O	4.365719925952467	5.123285485322308	20.911225287585044
O	3.814422642894748	3.7025913971117195	18.64142318338922
O	6.0787879120140875	7.900602222815873	23.432716170639917
O	4.86644268264174	8.079753205447071	22.775857042909834
O	5.542374564587389	7.9600835062971695	24.888337010345627
O	4.758519749769592	9.115330871232448	25.06426218568183
O	4.554362660043643	6.790533212628972	24.878276321287956
O	5.1522523636460456	5.5898721763408705	25.190349535664424
O	3.5241101985578704	7.301992809917039	25.837574487964584
O	4.006092343986722	7.012481381629067	27.13034563680164
O	3.592426765476147	8.797599240597155	25.718831595828274
O	-1.4218299061321331	10.208452015795169	26.638973949690357
O	6.128811602181415	8.77518406627315	20.78154890186439
O	3.4091905424516464	5.907327261778445	20.106008742003787
O	2.366807319030556	3.8177304988569833	18.95909655880568
O	-0.5593093662896993	9.51510615309483	27.382681781628527
O	3.813825747916463	7.989992408591524	20.328799811316312
O	3.7182747651824255	4.694199711848463	22.32689043742528
O	4.132122259875573	2.4114885920441838	17.781709564012175
O	0.7074678042172429	9.247023588242493	27.046025407727342
O	4.6136637423270574	3.552558016684552	20.20571325863394
O	5.661143683140374	6.104099173480835	21.25115426534706
O	4.226132716862633	5.1108769841080495	17.850371729065884
O	1.2191342300469599	9.655663593411521	25.874931989302375
O	0.32165520979727424	10.308728336779106	25.0292214300495
O	-1.0081876117954884	10.507198097295493	25.40474900718484
O	-1.900875466249162	11.268169328617706	24.626991665545127
O	1.0318314692753419	10.536868674682461	23.908381330629016
O	2.3040879476731684	10.09032099589146	24.092675058864046
O	2.4187010562710576	9.488252124888158	25.283912786073344
