85

O	0.09192407843500011	1.1095903853833335	0.17114895878333297
O	0.6652151954350001	0.15569504438333348	1.0140189467833332
O	-0.880404035565	0.4819003123833334	-0.628668198216667
O	-0.010253056564999918	2.4987761343833332	0.271092908783333
O	2.146941925435	0.34428907838333345	1.075705656783333
O	0.03344589443500007	-1.0697339856166665	1.090780906783333
O	-1.578343884565	1.8625316213833334	-1.437203413216667
O	-1.8451819345649998	-0.4011341656166665	-0.11172154821666702
O	-1.201396767565	3.087942234383333	-0.23780550321666702
O	0.529736126435	3.2154556443833338	1.309550306783333
O	2.7915564554350003	-0.5904637456166666	0.26497849178333305
O	2.7232827154350003	1.5174664293833335	1.458509646783333
O	-1.376391078565	-1.1511203556166667	0.878261326783333
O	0.5932294454350002	-2.031672815616666	1.9774439567833328
O	-2.448653824565	3.6783251743833336	0.368447595783333
O	4.1015539554350005	-0.7895220956166666	0.664054976783333
O	4.051270235435	1.6021777363833334	1.1359527667833331
O	-2.192732874565	-2.2299086956166665	1.189542346783333
O	1.225317505435	-3.0090387556166664	2.150387196783333
O	-3.685608544565	2.772871284383333	0.26050387978333295
O	-2.398564364565	3.938629234383334	1.6118085167833331
O	4.713840145435	0.40097395238333344	1.084140176783333
O	6.041911345435	0.4516285513833334	0.745892636783333
O	6.813446215435	-0.7226247756166666	0.44817217178333296
O	6.154680965435	-1.8340060956166664	1.262045746783333
O	14.996850835435	-3.9283826856166666	5.024811936783333
O	0.8224471054350002	-3.3896174656166664	9.866766816783334
O	-0.5346859975649999	-4.641285465616666	6.528251226783333
O	-4.170991554565	-4.610747065616667	7.692583046783333
O	-3.685084254565	-1.0317553356166667	8.865233376783333
O	-2.2342975745649998	-0.08333984961666652	5.4234041867833325
O	-5.270634664565	-1.6005320556166664	3.835486186783333
O	-7.598061224565	0.21793068338333343	6.253531576783333
O	-5.982336144565	3.570774724383333	5.336874256783333
O	-6.449483844565	2.6891678443833333	1.6711958967833331
O	-10.060463994565	1.7981114753833334	2.211443086783333
O	-10.668722764565	5.063593224383333	4.170803436783332
O	-9.032988604565	6.990059854383333	1.193622976783333
O	-11.262813964565	5.613567514383334	-1.5251273232166669
O	-12.853909064565	10.239718314383333	-2.3368159132166673
O	-2.342324094565	-12.909611665616666	0.916040286783333
O	-3.815153354565	-9.720903665616666	2.3341685667833327
O	-6.409958484565	-8.314070675616666	-0.043097711216667
O	-8.162825074565001	-5.0421541156166665	0.06640429178333301
O	-8.977837894564999	0.23154745338333338	-1.184763762216667
O	-7.720353584565	3.006656184383333	-3.352130483216667
O	-4.982357114565	1.0382097273833335	-5.037779293216667
O	-1.552600474565	2.3238934643833336	-6.044486393216667
O	-0.508458171665	3.9482425843833333	-9.394268223216667
O	2.7527384554350003	3.162354204383333	-11.189266883216666
O	4.083108165435	6.468033154383334	-9.801569523216667
O	3.3818739254350003	5.355564194383334	-6.224862803216667
O	5.235268345435	2.0750800243833334	-6.749697493216667
O	8.398240175435	3.3695863543833333	-8.419036973216667
O	8.694733765435	6.766867924383334	-6.866416703216667
O	6.223123615435	8.180730314383334	-4.405963343216667
O	6.187573745435	5.5530343643833335	-1.715635953216667
O	9.981093335435	5.476954844383334	-1.626418023216667
O	7.814204925435	9.410362794383333	1.591364106783333
O	9.470098165435001	6.367998694383334	3.1505396167833326
O	10.056538435435	7.541858614383334	8.104846226783334
O	4.013884865435	1.7001417933833334	11.836393716783334
O	4.3561768754350005	4.904146504383333	13.905727016783334
O	6.929478815435	5.856308034383334	11.212028216783334
O	4.599688185435	5.134755514383333	8.203438666783335
O	6.909130215435	2.2228886243833337	6.988773076783333
O	5.023554615435	-0.7569655756166667	8.428289596783333
O	4.892139745435	-2.4530453056166666	5.071215766783332
O	8.520097925435	-3.5371028056166667	5.3328623167833324
O	7.686414385435	-5.594238935616667	8.417704556783333
O	6.440575405435	-8.090754755616667	5.790843496783332
O	10.082023635435	-9.057925555616666	5.622868146783333
O	2.037181935435	-6.625087235616666	-4.521330003216667
O	-0.7137625705649999	-6.574107695616666	-7.100845563216668
O	-2.5180088545649997	-3.293262545616666	-7.237715953216667
O	-5.021006234565	-1.3578625656166665	-9.333219473216666
O	-5.914132634565	2.3630933443833335	-8.976622963216666
O	-2.968088914565	-3.1524598656166667	-12.965220283216667
O	0.649186925435	-3.6141623256166664	-11.805547583216667
O	5.505587175435	-5.107098265616666	-7.755214173216667
O	-9.565676004565	-1.8126235056166664	-7.699664633216667
O	-7.386334374565	-2.357755195616667	-4.697584123216667
O	-4.217452774565	-4.015662795616667	-3.452879373216667
O	-3.176752724565	-7.659401925616667	-2.755096403216667
O	0.014543285435000053	-8.309315445616667	-0.829238348216667
