13

O	1.6378876876400978	10.571369215907467	26.54499375490547
O	-0.642618019456322	10.922153611143953	26.00413912893877
O	0.6911259008909201	7.889942311303663	27.580361188346124
O	0.25642503147030093	10.625614990877919	26.946875882091977
O	-2.903401600034505	10.782932425329415	26.400719050336726
O	1.9665645236201121	5.134858781066569	26.76473506907731
O	-1.7384854902123583	10.100080507406565	26.235836050123915
O	-1.3775244659164343	9.053710222604584	27.269228842491074
O	-0.15115344976341305	8.896445366462476	27.2582456597337
O	0.16251058531429496	9.86117925360141	28.315523318458197
O	0.35358065856098086	6.7287548469249785	26.834204562628344
O	1.703412969072604	6.370777423801661	26.15106255378122
O	1.9041422855028136	5.365384158618767	28.12427272863758
