26

O	1.8737879333385765	12.920672227407112	22.96014477915112
O	-0.7748267137971767	12.30081753162112	22.95919965874598
O	-1.963823548639232	11.793867401428985	23.446162007846404
O	-1.9296352089683917	11.437763025832155	24.75532558282822
O	-0.712332790480587	11.16489628678163	25.278496441347794
O	0.42931019060481845	11.70473365434834	24.833568461291442
O	0.44998217863852763	12.120070739676027	23.542303213017956
O	-3.015434407115898	11.16392438601654	25.55970194800973
O	-0.8936830932495904	12.917418178499702	21.733033193443614
O	-0.6254962538097067	10.616966803049458	26.6554084523686
O	-1.6515628067280936	10.388408470958188	27.573593354877396
O	-1.785020834316422	9.175802532746662	27.26547812565873
O	-0.5630652537512739	8.842911521677456	27.704464417499228
O	0.16514458906738905	9.618002615551035	26.801728940518437
O	1.2808582109184374	9.122728392317944	26.123679498479667
O	0.1983255324595865	8.274509205331128	28.76696797366914
O	0.294367614264502	6.905742004081739	28.835967341506212
O	0.35826229662770404	6.3475360384409845	30.23389554291152
O	-0.4298862481337191	6.24664832910286	28.067608105170613
O	2.243804548931559	9.960701480775572	25.796857098982315
O	3.083654252498098	9.647149469543097	24.729874052004714
O	3.1788594093713884	8.311969358909394	24.463206666400552
O	2.1227523972108706	7.50267656963457	24.777356924560124
O	1.0029373345378383	8.088760762279872	25.274434520451322
O	4.415640435256107	7.638514555706131	24.389140442855386
O	4.541107929074812	6.634093702544316	25.39730860014025
