83

O	4.368840359001786	2.0203273867857146	1.4922380632678571
O	4.576610659001786	1.6701963667857147	4.278046013267858
O	4.791509819001786	0.6287169059857148	-0.45884132473214295
O	3.737005229001786	0.8886750657857148	0.3929501302678571
O	4.556809009001786	-0.8376941932142852	-0.8645137537321429
O	3.316032509001786	-0.8408880032142851	-1.509660196732143
O	4.323806169001786	-1.4881997232142852	0.5034064242678571
O	5.471838569001786	-1.9642927432142852	1.083468333267857
O	3.264011679001786	-2.485008283214285	0.16480356626785708
O	3.922215319001786	-3.585473923214285	-0.3514995147321429
O	2.529194959001786	-1.8237842832142852	-0.9596044517321429
O	-2.084169590998214	-3.545478453214285	0.572951974267857
O	4.762334689001786	3.049453716785715	0.527303762267857
O	3.1773518790017863	1.1373919527857148	4.243622223267857
O	-1.011526670998214	-4.283411893214285	0.28859392326785704
O	3.136669339001786	2.891560956785715	2.221486133267857
O	4.459335009001786	3.256886596785715	4.8049782632678575
O	0.11999197700178597	-3.6762436932142855	-0.05262938073214293
O	5.240186889001786	1.4289156347857148	2.760111473267857
O	5.332712049001786	0.8612893917857147	5.528647303267857
O	0.23450852800178598	-2.336738523214285	-0.23909369523214294
O	-0.859400412998214	-1.5367590632142853	0.08556302326785703
O	-2.0071691409982138	-2.2197730032142853	0.45542995326785707
O	-3.135547560998214	-1.4192051132142853	0.732882937267857
O	-0.5445861389982141	-0.22554601021428522	-0.08549108773214295
O	0.752397158001786	-0.19856389721428525	-0.49009751373214294
O	1.170962949001786	-1.4718686332142852	-0.6960383817321429
O	4.397545039001786	12.121703606785715	-8.875373856732143
O	-6.039146010998214	9.870826016785715	3.818339283267857
O	-3.834480900998214	8.848790846785715	6.777513083267857
O	-1.183470850998214	7.640968046785715	4.337974133267857
O	-3.614477850998214	5.225432616785715	2.6267206432678574
O	-5.229048890998214	4.1262167367857145	5.937102223267857
O	-1.771741800998214	3.394047196785715	7.305369963267857
O	-1.012916620998214	1.3431618807857149	4.144595663267857
O	-4.1780225709982135	-0.5959016932142851	4.790831863267857
O	-3.249695450998214	-1.1465306732142853	8.429506653267856
O	0.19734220900178598	-2.577018303214285	7.409187333267857
O	-1.4751041209982139	-4.913612403214286	4.926904533267857
O	-3.974793130998214	-6.0224984232142855	7.593754693267857
O	-1.081642690998214	-6.617016653214285	10.084487563267857
O	0.6708917700017859	-8.752423533214285	7.361329793267857
O	-2.211914110998214	-11.116454493214285	6.6889762632678575
O	0.782429317001786	-12.328380593214286	11.122359963267856
O	0.707277929001786	-14.819388193214285	8.240410503267857
O	-10.387806910998213	3.1586433967857146	0.733419950267857
O	-11.099876110998213	-0.5348810832142852	1.142777103267857
O	-5.453363060998214	-6.967330623214285	4.107450513267858
O	-2.969568760998214	-9.194316773214286	2.388368593267857
O	-3.559857600998214	-7.825158833214285	-1.100846348732143
O	-1.037725770998214	-7.396493013214284	-3.8658577867321426
O	3.944782129001786	-6.397125293214285	-6.6760167567321425
O	2.042043439001786	-4.122067773214285	-9.051548876732143
O	4.386413649001786	-4.203577423214285	-12.037673336732144
O	7.699069999001786	-4.667586573214285	-10.330483536732144
O	8.147084599001786	-4.988245173214286	-6.618975276732143
O	6.502847799001786	-1.8343205332142851	-5.405462386732142
O	8.402999309001785	0.2712366097857148	-7.924793196732143
O	11.739777489001787	-1.3694379332142854	-7.0378010667321425
O	11.301067289001786	-0.5850357732142852	-3.3131071267321426
O	9.872224819001786	2.8835632467857146	-4.072375706732143
O	12.251756289001786	6.032964516785714	-0.7330903547321429
O	12.120579089001787	11.955640806785715	0.11754481426785707
O	5.091017669001786	8.266330596785714	4.688922163267858
O	8.391127719001785	8.245121246785715	6.635427913267857
O	9.927603889001785	7.370361936785715	3.2018055532678567
O	7.628776349001786	4.4947009567857155	2.5941362232678573
O	5.985213119001786	6.294370926785715	-0.582407297732143
O	2.816832559001786	7.614652746785715	1.050593933267857
O	0.6462101000017859	5.999850526785715	-1.6235264067321429
O	1.569790049001786	8.742934116785715	-4.138724786732143
O	0.08962960490178598	11.403561906785715	-1.874432506732143
O	-3.176676080998214	10.169667766785714	-3.424139726732143
O	-2.219555220998214	12.493182006785714	-6.242426186732143
O	-6.394711960998214	0.06624069978571479	-7.3262874567321425
O	-8.276799880998214	-3.205336523214285	-7.2408177667321425
O	-6.431908810998214	-5.878311283214285	-5.324638446732143
O	-6.528476960998214	-9.607644993214285	-4.639088706732143
O	-8.824168150998213	-10.683838293214285	-0.5266531917321429
O	-7.524620050998214	-7.184664933214285	-0.035428351732142954
O	-7.132536680998214	-3.828766523214285	-1.7377084867321428
O	-9.485969730998214	-0.9951132332142851	-2.783694336732143
O	-7.952256470998214	2.324306586785715	-3.712431646732143
