34

O	9.261536499955557	15.455982202609238	27.113101527912935
O	10.095961296165168	14.528028748769682	26.79211294556105
O	10.14461818326037	14.588614869818255	25.482963170648308
O	8.349768321327316	13.214926328969053	24.35279770495322
O	8.211025544382515	15.709434693356565	26.22136406311615
O	7.039522121631456	14.781535242048985	24.101490348470843
O	7.016538809173959	13.536621018479039	24.145004178578613
O	3.5309924990885824	11.81967413140745	25.566364613343534
O	7.837191416389715	14.859187867901205	25.157606708920646
O	7.535148818974413	13.344022382533732	28.185704665475
O	9.009040691451428	14.248272335225229	24.844280890758064
O	5.67807047836575	14.736216713819541	28.089236474462762
O	6.570528402399328	12.391141957045157	23.890601373563463
O	4.882484248204855	10.073384371370256	23.539153506941798
O	6.30477736909137	10.074555608469705	23.662022335177955
O	6.601792649816436	11.306643629339204	23.010303518784728
O	4.809703408259827	11.155180250968833	25.813327644047344
O	5.824798878918994	11.859684189613006	26.69094282327957
O	4.188727639386512	10.043690013718738	26.07343588319366
O	7.150931900916698	11.630086556133378	26.826127359968318
O	8.218968054309382	12.377563305639306	27.313570321988216
O	3.341114449084597	11.726748429188572	24.33628276628617
O	4.428287761060553	11.334826361773814	23.457844334626902
O	5.209245473798699	12.429430475954518	23.95200101563648
O	3.232416808662125	13.048618328297017	23.928365043503092
O	4.48701951720408	13.633802646572901	23.763390902428778
O	4.348450796679201	14.853327795562548	23.189489495941544
O	3.358421894529091	14.810478113489948	22.200738009736085
O	2.1751745990056017	14.031097960918572	22.29742244933798
O	2.3740511220088756	12.771389079836599	22.787353423813546
O	6.004786885378797	13.276310937218414	26.503361736443363
O	6.44872154300583	13.73218838828319	27.671711783448178
O	6.043589105033982	15.506283021978309	27.14921343344824
O	5.366418735093553	14.41983780652731	26.240948645326498
