90

O	1.0157729534946427	-2.5242632476982143	-1.2541026913035713
O	1.0253993534946428	-2.7673794676982144	-2.6673429583035713
O	-0.11508617650535724	-2.9558033976982143	-0.8048583993035714
O	1.4535171434946428	-1.1563643576982148	-0.9091595363035714
O	0.3513826934946427	-0.3545892176982146	-0.7818161373035714
O	2.5628410234946424	0.4484343003017853	0.4932829416964284
O	2.5877799634946426	-0.6960108876982147	-0.2974466083035714
O	3.5740908934946427	-1.6898984076982149	-0.14661606830357132
O	1.3451746734946426	1.1190067023017853	0.6399488316964288
O	0.33397852349464263	0.9758755213017853	-0.3168536683035714
O	-0.9019753695053573	0.9638641053017853	0.20787570169642855
O	-0.6064194495053573	1.2984313013017852	1.4953000216964287
O	0.6776367534946428	1.6110666113017853	1.6713056516964284
O	-2.2097218565053574	0.3659184533017853	-0.33456017830357143
O	-2.340218966505357	-0.8296072776982146	0.07107643169642852
O	0.5932401534946428	-1.7862913676982146	-3.5617460083035715
O	0.8953561134946428	-0.4858866276982148	-3.3209962783035714
O	-0.6984062205053573	0.40011456030178527	-4.709715308303571
O	-1.0260994865053572	-0.9182153376982147	-4.899386748303572
O	0.30518399349464276	0.6190408302017854	-3.8354117483035717
O	-0.7643866815053573	-1.8188881776982149	-3.878398438303571
O	0.9186697334946425	-4.162640577698215	-3.0848890483035714
O	-1.4298970045053574	1.5169792293017852	-5.113956138303571
O	-1.7664373015053574	2.7529897623017856	-4.512716168303571
O	-2.4896854665053576	3.5959214023017854	-5.523710188303571
O	-3.6672316865053576	3.1005070523017855	-6.015735208303571
O	-3.439837446505357	1.8634809823017853	-6.560770728303571
O	-2.1125427365053575	1.2701413653017855	-6.335826948303571
O	-3.0779764465053576	-0.25547114469821475	-2.5480768653035715
O	-2.3943541665053574	0.6599205706417853	-1.7282685803035713
O	-3.1842409465053576	1.8976314923017854	-1.6360696970035713
O	-4.589064506505357	1.5077055523017853	-1.9183043533035713
O	-4.544294906505358	1.4651981193017853	-3.4463960283035715
O	-3.9074892365053575	0.13038349530178528	-3.7001318483035712
O	2.897510653494643	9.737644172301787	-2.0057765733035713
O	3.552905713494643	6.968159402301785	0.5448824816964286
O	7.130708393494643	6.361435942301785	-0.6197797713035714
O	5.846760993494643	6.039818562301785	-4.175737568303571
O	3.2604554034946434	3.5208313223017855	-2.9378534183035714
O	6.069130703494643	1.5811532973017854	-1.2880938573035714
O	8.153326693494643	1.7156623223017853	-4.467275478303572
O	5.206574563494643	0.2802850693017853	-6.551078698303571
O	4.824790083494643	-2.5196640776982147	-4.004830628303571
O	8.574236533494643	-3.2690492876982145	-4.122900568303572
O	8.472220723494642	-3.2815675876982144	-7.9813689383035715
O	5.525099883494643	-5.808576277698215	-7.806900738303571
O	7.268030463494643	-8.388534087698215	-5.596925668303571
O	6.690952213494643	-11.590544377698214	-9.35432509830357
O	6.286993633494643	5.1202078223017855	10.055336731696428
O	6.896250193494643	4.285749112301786	6.419630331696429
O	8.084038573494643	0.7068364077017852	6.178973841696429
O	8.556667373494642	-1.3307626976982148	3.0812913516964286
O	7.159182093494643	-4.910319757698215	-0.8714730933035714
O	4.450333703494643	-7.327469617698215	-1.8854532653035714
O	2.131691443494643	-6.594474857698215	1.0767409416964286
O	-1.6756820575053573	-6.558749937698215	1.1153240316964286
O	-4.130946946505357	-9.400924377698214	1.5240981616964284
O	-9.232759836505357	-8.907715457698213	0.37829351169642855
O	-7.187033346505357	-5.852029407698215	-0.6431755403035714
O	-7.9183548065053575	-4.187690417698215	2.7240860016964286
O	-11.661122116505357	-4.679168317698215	2.915510851696429
O	-12.568029616505356	-4.700415937698215	-0.7429145503035713
O	-10.119174676505358	-4.353313467698215	-3.5747541083035714
O	-8.630460426505358	-1.1329257376982147	-2.6651919283035714
O	-11.854033616505356	0.6284658867017853	-2.1328556203035713
O	-10.230261256505358	0.7271780276017853	-7.407954458303571
O	-10.250018486505358	3.9569313123017853	-5.366191028303572
O	-1.1668360632053574	10.588235732301786	-6.819535518303571
O	-1.9938963405053571	11.041319122301786	-10.530918308303573
O	-5.417341046505357	9.593411752301787	-9.509933198303571
O	-3.967003036505357	6.508650712301785	-7.734361088303571
O	-5.345469876505357	7.650530792301785	-4.2746172583035715
O	-2.1961489265053573	9.331189322301785	-2.8177679983035713
O	-2.4692073465053572	7.303849392301785	0.3399006116964287
O	-5.280330666505357	9.421409772301786	1.6859642516964286
O	-2.9008235365053574	12.370494122301785	1.6759334016964285
O	-1.7043487155053572	10.755592822301786	4.927657931696428
O	-4.665502716505357	12.576694522301786	6.416461051696429
O	-1.3354350315053574	-0.04986925369821471	8.457494231696428
O	0.3555693334946428	-3.3102550676982148	9.252591431696429
O	0.7691832834946426	-5.503802517698215	6.218069001696429
O	1.7248166134946425	-9.057114847698214	5.305885141696429
O	1.3565013334946425	-10.715014177698214	1.8510989516964285
O	-3.2990014465053576	-7.678911697698214	9.321959531696429
O	-5.912883606505357	-1.7884987276982145	9.253757531696428
O	6.4071732334946425	-9.472687777698214	4.152689551696429
O	5.527309213494643	-5.915960967698215	3.3667249616964288
O	3.6375607234946425	-2.8860612576982145	4.653836421696429
O	4.168110813494643	-0.3771967176982147	7.488109081696428
O	2.1280209634946425	2.7775319723017855	7.507642641696429
