95

O	-0.27141186245762666	-4.838383248796611	3.493526537627118
O	-0.6146645054576266	-1.8730550287966103	1.6246455876271184
O	-3.3549366444576267	-4.755717618796611	3.847145067627118
O	-0.8729975844576267	-3.92720150879661	2.4677073076271183
O	1.7183913755423732	-0.9208333687966104	-2.5012804123728816
O	0.3894623075423733	-4.359636078796611	-0.38128679537288157
O	-0.039851056457626655	-3.0848703787966105	1.7401907876271185
O	2.6955268955423732	-3.8785441587966107	0.14834253462711838
O	1.9560037155423733	2.2464317812033894	-2.594663762372882
O	-1.7537055344576267	-1.9308054387966105	2.2882021876271184
O	3.2798017155423733	-5.400404928796611	-1.8590167323728815
O	-1.9877467544576266	-3.2051832487966103	2.784041387627118
O	1.9214549755423733	3.1716970912033897	-0.7062695483728816
O	-3.2831192044576265	-3.68444984879661	3.214053247627118
O	-4.450305124457627	-2.91131100879661	2.7982347376271184
O	-4.073725714457627	-1.8536014487966104	1.7676393676271183
O	-2.912557354457627	-0.9938893887966103	2.264753117627118
O	-3.5027175544576266	-2.29106086879661	0.45241753962711845
O	-5.4040088644576265	-1.2554016287966103	1.5311858576271185
O	0.11251170454237336	-0.9268576687966104	0.8796601076271184
O	0.12685990654237334	0.34026110720338965	1.1142925876271184
O	0.20030389654237335	1.0492654952033897	-0.07397635637288158
O	1.2188458455423734	0.8455786002033896	-1.0086710653728816
O	1.3670438555423734	-0.5031236927966103	-1.1717689553728816
O	0.39487340554237327	-1.2763549487966104	-0.4955043690728816
O	2.0179068055423732	-2.40848312879661	-2.4118179523728815
O	3.1487636755423734	-2.39844977879661	-1.4798136923728815
O	3.790267025542373	-3.4771499687966103	-0.7724677163728816
O	2.1610229555423732	-2.7729753487966105	0.8099103676271184
O	1.4108194455423733	-3.1550454487966104	1.8664693376271184
O	1.6175535055423733	-4.4189401787966105	-0.6530149673728816
O	2.1060062655423732	-5.7312383587966105	-1.0088886273728817
O	1.2790090355423733	-6.451060428796611	-2.1403559723728818
O	3.6321369755423736	-1.0976429287966103	-0.9396130223728816
O	2.4985204555423732	-2.88850212879661	-3.731180842372882
O	2.095441035542373	1.8929738912033898	-1.4101258943728816
O	-7.898995214457626	-3.64431455879661	13.59191653762712
O	4.963794715542374	2.3643193912033897	8.824867387627119
O	3.176029055542373	4.32601569120339	6.0745652576271185
O	6.379608475542373	6.04341650120339	4.8817525376271185
O	8.002273815542372	2.6262712712033895	4.618301047627119
O	5.007424565542374	1.3804502522033897	2.646446807627118
O	5.5457618855423725	4.387816331203389	0.3309937336271184
O	9.232046395542373	3.6908553312033896	-0.0030312173728815894
O	8.542129715542373	0.05660446020338966	-0.9726908673728816
O	6.038480325542373	1.2218930132033896	-3.618509002372882
O	8.508122305542372	3.72798519120339	-4.969101852372881
O	11.203764845542374	0.9597514002033896	-5.107162032372881
O	8.638226505542374	-1.2383253787966102	-7.028737552372881
O	7.912015485542373	1.2609720902033896	-9.80806005237288
O	12.559722245542373	-1.5580587587966104	-10.46302206237288
O	9.766370945542374	-2.04061958879661	-13.001334462372881
O	-2.019901314457627	12.81631813120339	4.177592087627119
O	0.8959495855423734	10.63271313120339	3.117193617627118
O	1.3833967755423733	10.96251043120339	-0.6228963413728816
O	4.969857265542373	4.792489931203389	-6.224501022372881
O	3.496804625542373	1.8923200212033897	-8.129733532372882
O	-0.07515604745762666	2.4122844512033894	-7.001360512372881
O	-2.753243324457627	-0.19055438979661038	-6.3631520623728814
O	-5.115701004457627	-1.9770247487966102	-8.725789562372881
O	-8.720721554457628	-2.7201818087966103	-7.828248422372881
O	-7.653981444457626	-6.358576968796611	-7.293762092372881
O	-5.175046314457626	-5.310237108796611	-4.709048972372881
O	-7.687454914457627	-3.3056287887966103	-2.8311938823728817
O	-10.515665454457627	-5.79236067879661	-2.6422802723728815
O	-8.663341134457626	-9.03052916879661	-2.613694192372882
O	-4.9868932944576265	-9.27406092879661	-2.7425489323728818
O	-4.009929834457626	-7.148020678796611	0.25176046162711846
O	-6.366887664457627	-8.95799110879661	2.453766057627118
O	-5.202913634457627	-12.37536046879661	1.2807843376271184
O	-1.5776737144576267	-11.53739946879661	2.1485927976271184
O	-2.529839784457627	-9.84650586879661	5.392251337627119
O	1.0042542655423734	-11.51431996879661	8.79216264762712
O	5.812421295542373	-3.7304723087966107	10.23844453762712
O	7.965630055542373	-6.855917208796611	10.71603733762712
O	4.702823135542374	-8.73982575879661	9.881463137627119
O	3.9299129555423735	-6.772746528796611	6.674696707627119
O	0.7207465555423733	-5.295869598796611	8.250299947627118
O	2.0386697155423734	-1.8566707187966105	9.221839877627119
O	-0.7112788664576266	-0.1664771647966104	7.213937717627119
O	-3.269359944457627	-0.9581647187966102	9.933552937627118
O	-1.2399834784576267	1.0236489572033896	12.434590837627118
O	-3.0040549544576267	3.9242254012033895	10.713341437627118
O	-5.794481474457626	3.0693407712033896	13.092550837627119
O	-6.685226944457627	5.666281101203389	0.28057986662711837
O	-6.662110024457627	7.262655571203389	-3.192090202372882
O	-4.539110644457626	5.175560771203389	-5.516629632372881
O	-3.7244594044576265	4.851671311203389	-9.201012422372882
O	-1.7610937244576266	2.0403424712033895	-10.916156662372881
O	-8.127161514457626	5.680964801203389	-9.975252282372882
O	-9.854297124457627	4.2431001412033895	-6.855626532372881
O	0.7073974855423732	6.4993822412033895	-6.825802692372881
O	-1.0892334624576265	6.449895621203389	-3.5170683623728816
O	-2.3960145944576268	8.99614996120339	-0.9883672023728816
O	-3.2924231944576268	7.75800830120339	2.4535830576271183
