94

O	0.07272847933888898	-3.4085925494444447	-4.481359134894445
O	2.6794796993388887	-1.856935719444445	-0.9651783838944451
O	3.159823539338889	-1.3705800294444448	-2.3083849948944453
O	3.725255179338889	-0.027609358444444745	-2.316139970894445
O	2.934273659338889	1.0124595695555552	-1.7269805388944452
O	1.804137529338889	0.9130221415555553	-2.5368562378944453
O	1.451793249338889	-0.23011316744444477	-3.241927044894445
O	1.7891670793388887	-1.5056185694444448	-2.787610330894445
O	1.4770088493388889	-2.550156559444445	-4.082860584894445
O	2.654142499338889	-3.2531281294444447	-4.372229214894445
O	0.9882963993388889	-1.845953489444445	-5.258306414894445
O	-1.081804405661111	-3.259653579444445	-5.254311604894445
O	-1.584136210661111	-4.540273489444445	-5.845420204894445
O	-0.7922897266611111	-5.109860749444445	-6.906032814894445
O	0.472078573338889	-4.386313899444445	-6.756290444894445
O	0.6566135293388888	-4.3580370494444445	-5.338923464894445
O	-0.432484843661111	-6.494996879444445	-6.738052164894445
O	0.48530059733888903	-1.370730499444445	-0.7964147648944451
O	-1.190662326661111	-2.048879569444445	-2.187995115894445
O	-0.404456972261111	-3.202548739444445	-2.313795101894445
O	-1.591436070661111	-1.217860819444445	-3.051478904894445
O	-1.006890470661111	-1.3790513294444449	-0.9326745128944451
O	0.6396023193388889	-0.6101729584444447	0.383228955105555
O	1.493174129338889	-2.128392259444445	-0.40306082489444517
O	-1.658202780661111	-1.7481671594444448	0.2720131551055549
O	1.971541869338889	-0.27734771544444475	0.8860903951055548
O	-0.295251205961111	-0.2223818154444448	1.3606681451055547
O	2.963448789338889	-1.0704064794444448	0.19494333510555473
O	-1.5759130206611112	-0.9154398094444448	1.2314101151055548
O	-2.024490440661111	-0.9323099394444446	2.5454544751055552
O	0.22322912033888903	-3.8441534594444446	-1.2067061868944453
O	-1.0867926176611111	-4.553341699444445	-2.523182013894445
O	0.241326252338889	-5.236905039444445	-2.6498595068944453
O	1.181454449338889	-4.639136709444445	-1.888380848594445
O	2.463660509338889	-4.998051879444445	-1.807725310794445
O	2.876190069338889	-5.722200369444445	-2.900519834894445
O	1.993012169338889	-6.340036019444445	-3.7198674848944453
O	0.6865944193388889	-6.291905559444444	-3.3213848148944454
O	3.1445927193388887	2.2030075405555554	-1.180492654894445
O	0.8014761493388889	1.489895630555555	-1.5957275608944452
O	17.25951400933889	2.570284070555555	0.928976465105555
O	4.077493029338889	-2.4854975594444446	7.894977695105554
O	1.268598659338889	-4.3331943894444445	9.584673625105555
O	1.713936159338889	-7.200837189444445	7.053873115105555
O	1.4368813393388888	-4.768344249444445	4.2921237051055545
O	-1.777793340661111	-3.4378778694444447	5.786784685105554
O	-3.149398920661111	-6.926644619444445	6.342911275105555
O	-2.622679150661111	-7.783484989444445	2.7471355451055546
O	-4.361023250661111	-4.578128239444445	1.5965831251055547
O	-7.337333910661111	-5.400468319444445	3.954294465105555
O	-7.434521540661111	-8.954214769444444	2.472578525105555
O	-7.421724490661111	-7.361410339444445	-1.063746199894445
O	-10.377283190661112	-5.089679639444445	-0.6045976048944453
O	-11.472275390661112	-10.335239689444444	-1.873983552594445
O	-12.556973390661112	-7.615955339444445	-4.292859244894445
O	0.04980608733888897	2.888581880555555	10.972806225105554
O	-3.440124300661111	3.239260360555555	9.584131025105554
O	-5.467057430661111	0.7866702885555553	7.6579164251055545
O	-7.565351760661111	-1.5800352494444447	3.121778885105555
O	-7.702229760661111	-1.186116379444445	-0.5988079348944451
O	-5.6441645506611104	1.9517032005555552	-0.8684957348944451
O	-3.379735630661111	2.999786070555555	-3.7018701548944453
O	-3.904684370661111	4.796007140555555	-6.955381654894445
O	-1.692092930661111	7.553455290555555	-8.394913394894445
O	-0.31999408296111104	4.934081650555555	-10.835648514894444
O	0.7058623193388889	2.6599578505555552	-8.111386384894445
O	2.606961289338889	5.633695560555555	-6.419907114894445
O	4.59528275933889	6.781742040555555	-9.333690124894446
O	5.046711989338889	3.6407185905555552	-11.320251644894444
O	3.7911528993388885	0.39180315855555525	-10.406221184894445
O	5.327909349338889	-0.21444193044444476	-7.078916634894445
O	8.677056369338889	0.7732984255555553	-8.117767044894446
O	7.619282509338889	-4.555438049444445	-8.803985684894446
O	10.162384009338888	-3.482409449444445	-6.1773833048944455
O	12.652911609338888	-7.785611019444445	-4.916374984894445
O	11.442435409338888	-10.069719089444444	-0.9542583538944451
O	8.223411749338888	-8.002015649444445	-0.9321231128944452
O	10.09083320933889	-4.727492459444445	-0.06668078489444507
O	9.397611869338888	-4.654494289444445	3.705892115105555
O	8.154618159338888	-1.1340987194444447	3.5506714451055545
O	11.633650909338888	0.31125487055555523	3.2005659551055547
O	10.52606770933889	2.0713450405555554	7.8323888051055555
O	1.970145619338889	8.028297920555556	3.1301817551055544
O	-1.618118410661111	9.228322020555556	2.7797489151055546
O	-3.6765507506611113	6.821892240555555	0.680559915105555
O	-7.03609026066111	6.563267590555555	-1.010539826894445
O	-8.367095170661111	3.975482580555555	-3.4805598648944454
O	-6.51131905066111	10.942070810555554	-2.088760468894445
O	-2.7244518906611113	11.351735110555556	-2.4189727648944452
O	-10.419289190661111	4.4820732605555555	1.790442415105555
O	-7.126980750661111	3.0585455005555553	2.9003776351055546
O	-3.446993990661111	3.872382240555555	3.6575034151055545
O	-1.815733530661111	5.816354760555555	6.622326675105555
O	1.9385453693388888	5.538779960555555	6.985879445105555
