27

O	4.3263464027904375	11.945123736302934	23.936653279280222
O	0.7387840169643276	11.300783099284361	23.76831918706492
O	7.902162637033039	13.450591864847212	25.51609359361731
O	5.597224055068333	11.655934923026953	23.45340850251474
O	2.0061645496330835	10.10621281709107	25.01955819260231
O	7.864757116474911	12.247890194695271	23.154110499512875
O	6.7790877114418615	12.036167642378658	24.02968883930607
O	-1.8701183478798704	10.533016951306664	26.297263811510714
O	5.689904828505601	14.984379702443423	25.355715307167237
O	6.724139009697018	12.92195099112356	25.045817314621395
O	0.2289696318624861	9.704667957424189	26.76865818734496
O	5.56945832079841	13.604693805635932	25.231892747526498
O	-2.2274419619656998	11.802720667169663	24.35166213893739
O	4.415081667993871	13.198770568985594	24.56617965167314
O	8.00827639166928	14.838948525639433	25.56076308677831
O	8.579308623358225	13.492069668507831	23.10618806732765
O	3.192201284045421	11.429140611073375	23.15644204894378
O	2.0110520466806974	10.93460401530784	23.932121398033573
O	-0.019367975040720964	10.897289850422418	24.810958181114604
O	0.7901041109242737	10.108123965885245	25.618957194009123
O	-1.3488717333668667	11.051773441989821	25.158187336068746
O	-1.073422226999444	9.75820331763571	27.034704591762885
O	3.147696381764969	9.489957717301923	25.6466332570314
O	3.179935032778575	8.002594510181108	25.683803950712047
O	2.117609490826572	7.360689933851155	26.524648737492452
O	2.771950721045132	6.512461755180796	27.58883334775521
O	5.721890400475048	15.897883016407889	24.31020550462686
