16

O	-0.6124329636738682	9.084195657031039	28.25364399484274
O	4.523433690904369	12.55480671220134	22.58877047631757
O	3.4625481632466064	12.03298028513976	23.347967602586607
O	3.660742695961261	10.9004814463109	24.07034801606433
O	4.988760938169356	10.543098889092695	24.331585469096016
O	5.269727716996368	9.239111435307564	24.607100006629334
O	4.19605855669774	8.38803560803337	24.688961333203114
O	2.894214432663157	8.87738839443147	24.811305822510967
O	2.6016343466118426	10.258305065299812	24.653804258512217
O	1.3300569708524428	10.793779025266408	25.171590076989737
O	1.0099097218546635	10.158492429345054	26.396428014506277
O	-0.25700206394216085	10.027591311857513	26.857156757125374
O	-1.2370636379243314	10.270339280446539	26.002433367380654
O	-0.945750294728805	10.983285814348665	24.885336600433508
O	-2.1157136751739287	11.546177801725218	24.37416036133043
O	0.27934926604274646	11.24535949793945	24.39975370083936
