30

O	-2.115259920290605	9.85527123595212	25.66584324022296
O	-2.619758638416221	10.657112076051465	24.6935183946636
O	-1.6265242935778255	10.76048495431377	23.89883404462665
O	-0.49596894869804636	10.462539943985716	24.55939637120088
O	0.3215238374915403	9.601638343729338	25.083958742623853
O	-0.7874381731964277	9.450974683513653	26.073776513026584
O	-0.3332114847511363	8.568059542159975	27.2050047363738
O	-0.9058124450953975	8.355270406144957	28.2741682322673
O	-2.6612815616537895	11.740484370725877	23.958128281805312
O	-3.05944052562047	9.721137295590188	26.708725109302936
O	-0.30806598580510963	10.918051913267611	26.002145052137273
O	0.42069331442727803	11.95413263183594	25.483648634237387
O	-0.7383685905452656	12.75396516509852	25.762796062387718
O	-1.4736260874030294	12.24000264089314	26.81222472595737
O	-0.7442386686982297	11.235158978543122	27.230195315440568
O	1.3177544433477568	12.386445366874332	24.588828916166076
O	1.0290167777200814	13.348590910230321	23.6078992292086
O	-0.30409830518176145	13.461579083667068	23.39027924517166
O	-1.1155412094720962	13.381887738672969	24.569666335395826
O	1.126296142694885	8.42441450243195	27.442972234435107
O	1.8226824557325227	9.626730484746181	27.22898722431417
O	2.9581527569055828	9.708071083651909	26.70062036699633
O	3.276913486817234	8.851344737993692	25.51119840131833
O	3.0780730290870695	7.558333367098028	26.340040883264
O	1.7355439259939354	7.499827264555202	26.595506997911222
O	3.605942396365704	11.035428452110986	26.669252098218443
O	4.869851451752983	11.051192775163626	26.22380355248446
O	4.9796482215993505	10.363682145621794	24.92415029839164
O	4.6522848031064745	9.077952156002002	25.15296351849111
O	2.1558845733892373	13.901624306594442	22.21949724595911
