28

O	2.3630961497322596	14.018653232159581	24.064009321402885
O	3.9608533176506304	12.000063330352125	24.082176110898356
O	0.6168643494720953	11.422068949431779	23.89183178150953
O	7.516770981891879	13.919629028600802	25.28847305014608
O	5.202500179012679	11.727706388748958	23.710424843348108
O	2.034033808242603	10.281490350316636	25.160503604729524
O	7.375326118193062	12.691842496227022	23.047745323298937
O	6.436625622603595	12.315009207973612	24.04531740881458
O	-1.8387527888326107	10.26292842595884	26.27665354356235
O	5.171120701427376	15.115818956686603	25.396016467066183
O	6.314490194311954	13.236401583539767	25.041350732911077
O	0.34378739426133387	9.625169667588466	26.798899245965085
O	5.026816963967332	13.838276251938014	25.057091080460975
O	-2.2561589181915025	11.730936711853841	24.425327901222914
O	3.842212235333273	13.261326529986084	24.67367177425142
O	7.699134596618687	15.240108705047618	25.575545827346737
O	8.161563529257965	13.887134241109758	23.085819094935328
O	2.9324254279911806	11.416263427450117	23.146358163711955
O	1.8544299408735876	10.922928194795386	23.996089059561935
O	-0.06519357216429711	10.932523825912376	24.92442522630851
O	0.7939385604180924	10.156940146857528	25.660042986591165
O	-1.3942702324438292	10.968974455697785	25.237918410673263
O	-0.974247638697312	9.493003603420942	26.933533891465355
O	3.130970136966641	9.488822042708794	25.67280400609394
O	2.551106834061995	8.13475341443623	25.984646478830108
O	1.6952554558368889	7.555480495514352	25.16279832129816
O	2.007635067966406	7.695087178543825	23.719098136655184
O	5.415421197218485	16.043150183154772	24.325067595992998
