74

O	-2.6404726549516133	1.1153132413387095	-0.1344363017870967
O	-1.855528000951613	-0.024465528661290592	0.43445953221290323
O	-0.7825464629516132	-0.6799301426612905	-0.2836084705870967
O	-0.6558116549516131	-0.38504747766129055	-1.5378860437870967
O	-1.7255762040316132	0.3106753543387094	-2.131543543787097
O	-2.478121305951613	1.1770449703387094	-1.5855394337870967
O	-1.6569873871516132	-0.35640034466129056	1.6786169962129034
O	-0.7368757859516132	-1.4214304326612905	1.7788952862129035
O	-0.07508106495161315	-1.4262250426612906	0.6829118292129033
O	-4.049696724951613	1.0977057443387093	0.08974234521290328
O	-4.6553080849516135	2.1443499873387095	-0.7348588897870967
O	-4.518745224951614	1.3445307843387093	1.4134064262129034
O	-5.385243634951613	-6.343034432661291	7.588946736212903
O	-2.172839987951613	-4.618926292661291	6.4463129462129025
O	-0.7551622089516132	-7.783996752661291	4.820234026212903
O	-4.025497434951613	-8.15248668266129	2.9078217062129035
O	-3.7866068849516132	-4.4920513326612905	1.7548224662129033
O	-0.2573043349516131	-5.291732462661291	0.5536449142129033
O	-1.4440212169516131	-8.41312920266129	-1.2494147537870965
O	-4.181788274951613	-6.436955852661291	-3.1148194337870967
O	-1.5718946139516132	-3.8223731826612912	-4.128154793787097
O	0.8005642850483867	-6.5624221526612905	-5.328882243787097
O	-2.095636986951613	-8.17439265266129	-7.3144308837870975
O	-2.783128194951613	-4.724802012661291	-8.924247913787097
O	0.741986565048387	-4.080984512661291	-10.200934313787098
O	0.9388143250483867	-7.702923172661291	-11.319775583787097
O	-1.195382318951613	-4.020103792661291	-14.776017183787097
O	2.176285615048387	-5.405681372661291	-15.909362583787097
O	7.915809975048388	-7.520267632661291	8.047312436212904
O	10.565032375048387	-5.526209612661291	9.890398716212903
O	7.144780555048387	-1.8845531026612907	9.385327276212903
O	5.090336105048387	-3.658529672661291	6.727093036212903
O	6.817244185048388	-3.2703705826612905	3.3782858762129035
O	5.413725205048387	-4.16962475266129	0.005415145212903288
O	6.501370435048388	-3.7332972426612905	-3.6352255137870966
O	2.916050895048387	-3.3218026126612905	-4.807501603787097
O	1.4421429350483868	-0.6407167326612906	-6.965186883787097
O	2.0312060050483867	2.2269292373387097	-4.555575943787097
O	-0.11470360495161325	5.2979387273387095	-3.9603147837870964
O	-0.2630978149516132	8.61920848733871	-5.763064153787097
O	-0.6652117649516132	11.94492891733871	-3.987871993787097
O	-4.323293754951614	11.87025001733871	-5.136104243787097
O	-4.9065836349516125	8.54099588733871	-3.3644025037870966
O	-3.435575524951613	9.91097588733871	-0.1309579601870967
O	-5.261623334951613	13.23512111733871	0.09372803321290332
O	-9.273305824951613	9.02847208733871	-3.1175840137870967
O	-8.773393554951614	6.738412307338709	-0.1532503685870967
O	-11.576327844951614	-5.598243002661291	6.521969236212903
O	-14.944551824951613	-6.777136102661291	5.129549886212903
O	-15.693024724951613	-3.006671402661291	4.898789786212903
O	-12.465615024951612	-2.119448602661291	2.956832046212903
O	-11.148806904951613	0.05327761933870945	5.937315806212903
O	-8.774525164951614	-2.4413928426612905	7.555701996212903
O	-5.923581604951613	0.04405216133870943	7.423764186212903
O	-7.2939762549516125	1.9363355173387093	10.425326816212904
O	-3.274007794951613	-0.03544405266129058	12.700353216212903
O	-4.5255745349516125	2.2406083773387095	15.440585816212902
O	3.2012284650483864	5.554511037338709	5.2888993562129025
O	5.918417545048387	5.919565817338709	2.7030947262129033
O	4.704884685048388	5.143519037338709	-0.7815096427870968
O	5.797117785048387	5.410139947338709	-4.403463463787097
O	3.607873655048387	4.861857017338709	-7.517024333787097
O	7.641245025048388	9.412130507338711	-3.278313423787097
O	5.374004065048387	10.65828341733871	-0.4328915817870967
O	1.7654641750483866	10.30601180733871	4.921048296212903
O	14.030880075048387	6.100381837338709	-2.6130676437870966
O	12.058025775048387	2.873245877338709	-2.5750208737870968
O	11.557698875048388	2.063143197338709	-6.251410133787097
O	7.804341945048387	1.3178013483387094	-6.058200173787097
O	5.487056395048386	0.23995406533870944	-3.2965317437870967
O	4.343206295048386	1.0868931423387096	0.2201086952129033
O	5.889627875048387	0.8953098043387094	3.721157546212903
O	3.5532178350483865	1.2454500853387094	6.670908446212903
O	-0.9383533439516132	-15.04600048266129	0.9357634962129032
