81

O	-1.0699108847627121	-3.983516805125592	-3.5244747778898304
O	-0.3213941267627122	-2.734081895125592	-3.46749258788983
O	-1.0204240197627121	-2.072465525125592	-4.59673186788983
O	0.0862123422372878	-2.0725493351255926	-2.2558422578898303
O	-0.5940607517627122	-0.9263841151255923	-1.9003092078898303
O	-0.03711597776271214	-0.12240427312559232	-0.9829683458898303
O	-1.0320909017627122	0.9716106348744076	-0.8258425751898303
O	-1.5930790907627121	0.5509931233744076	0.18523536211016978
O	-1.6673616137627123	1.5014900858744076	-1.96463317788983
O	-1.9166127907627122	0.6353296408744077	-3.0189714578898306
O	-1.3497753187627122	1.2100052118744076	-4.14293464788983
O	-0.4245933027627121	0.9731564188744077	-5.16842037788983
O	-0.9739339997627121	1.5452885648744077	-6.3407043478898295
O	-1.4655968957627121	2.833914534874408	-6.13126937788983
O	-1.1448763301627123	3.362509874874408	-4.85027058788983
O	-1.4250106537627123	2.545062044874408	-3.8181611878898303
O	-2.0368687897627122	2.6030439248744077	-2.5678792478898305
O	0.8856713222372876	-0.5928827051255923	-0.1193107368898303
O	0.986013182237288	0.07570801087440765	1.06515474211017
O	1.799706662237288	-1.5304412351255923	-0.5913295508898302
O	1.2295537922372877	-2.4014670451255924	-1.5147134548898302
O	1.8425165822372878	-3.6240853051255923	-1.6679092738898302
O	8.532445002237287	-4.811261585125592	-6.20867199788983
O	6.5609249022372875	-4.7966288751255926	-2.9320573978898303
O	8.910813742237288	-2.312589525125592	-1.2270852608898304
O	8.496121662237288	-0.007791752125592355	-4.22401763788983
O	4.689981312237288	-0.3041303311255923	-3.94911805788983
O	4.993822752237287	0.6459423978744077	-0.3069039098898303
O	7.290492912237287	3.5814053548744074	-1.0947199258898301
O	4.792803652237287	4.946569274874408	-3.6005530478898304
O	1.9837472622372878	4.5648518948744075	-0.9660994588898303
O	4.088041132237287	6.378579154874408	1.5719398121101698
O	4.812680392237287	9.171385454874407	-0.9937681198898303
O	0.9698729222372877	9.427538064874406	-1.6190553208898302
O	-0.03689372776271216	9.952056024874407	2.0092343721101695
O	2.9010648922372875	12.312702644874406	2.42173602211017
O	1.7683788122372877	14.431121744874407	-0.5747487968898303
O	-1.8604506517627122	14.334742344874407	0.5775162821101697
O	-0.9233350027627122	15.537200644874407	4.0975038621101705
O	8.520113932237287	0.06300488687440764	6.11627362211017
O	10.071929142237288	-6.473079365125592	6.95637607211017
O	5.312084632237288	-9.655326155125593	5.87108800211017
O	5.918126532237288	-6.292412995125592	4.19811371211017
O	4.384727052237287	-3.5763619051255917	6.33468394211017
O	3.9317946322372874	0.028086079874407643	5.36220617211017
O	2.235928002237288	3.0696905348744075	6.95188039211017
O	1.3180977422372877	4.488873844874408	3.5595570821101696
O	-2.0032283187627122	5.607078074874408	2.24784863211017
O	-3.848805117762712	2.3558889648744077	2.58933452211017
O	-6.472440347762713	0.8697299178744077	0.22418062211016976
O	-10.215076727762712	1.3039688618744076	0.21794193211016977
O	-12.669561457762713	-1.5146601651255922	-0.45646217988983023
O	-13.134276457762713	0.005556477874407606	-3.94162896788983
O	-9.425531757762712	-0.32132954712559236	-4.67513867788983
O	-9.430087807762712	-3.988899055125592	-3.6398649578898303
O	-12.480965257762712	-5.2147803151255925	-5.54098944788983
O	-9.895809507762712	-0.20795795012559237	-9.050674987889831
O	-6.639187087762712	-2.1229004851255926	-8.875121287889831
O	7.298167902237287	-3.3373518851255923	-12.24012518788983
O	4.200688772237288	-2.339655595125592	-16.21005828788983
O	2.744947922237288	-1.2434707151255924	-12.83088318788983
O	1.816909912237288	-4.9375238151255925	-11.90936438788983
O	4.7741623922372876	-5.747249825125592	-9.671481307889831
O	2.539362462237288	-6.986211985125592	-6.91536647788983
O	1.8242721222372877	-10.255339355125592	-8.64981699788983
O	4.600231302237288	-12.126479055125593	-4.89098090788983
O	-3.214027167762712	-8.154135305125592	2.3898021821101696
O	-4.430304267762712	-6.199560805125592	5.33400601211017
O	-5.028361707762712	-2.558666315125592	4.59873004211017
O	-6.605369367762712	0.5209412682844077	6.18431160211017
O	-7.3214029877627125	3.867664014874408	4.41061188211017
O	-9.844689707762713	-2.2464257651255926	7.7500392021101705
O	-9.996271907762713	-5.0300001751255925	5.1009170321101704
O	-3.372382317762712	-1.0167528351255923	12.165763312110169
O	-3.9906746077627124	2.734547084874408	12.18121021211017
O	-3.329903727762712	3.3084433448744077	8.457122442110169
O	-1.3775841897627121	1.4451185508744078	5.84448224211017
O	-0.9074879977627122	-1.9705858551255921	4.24870987211017
O	0.6170107222372878	-5.319186685125592	5.3461897521101704
O	1.3106223122372878	-7.838449745125593	2.6019567821101695
O	14.243740342237288	3.9544688148744074	-0.7265114423898302
