31

O	2.8383225721182894	12.827792782430917	22.64661317775502
O	4.95082494131828	11.03744834330458	26.84145355406573
O	0.36054051288140965	10.820987839262088	23.6323108594261
O	-0.750017995878393	10.693563250180759	24.36933273582387
O	-0.014412085201247371	10.977279011054268	25.47831933223198
O	1.6171622168310202	10.142963997117972	23.795168930418136
O	1.7613870594445817	9.473227378676738	25.1089954341372
O	1.2757254154377695	10.260608561202956	25.970490962212573
O	1.4966899239128488	9.409445374046458	27.459951954084822
O	2.0764425192515814	7.896760727332376	26.75949108540651
O	1.8049676509620602	8.189278096641551	25.48668558520244
O	2.9892597313262455	10.447291035479797	23.68656067288394
O	-1.7663268465315107	11.728011207160517	24.300941546731906
O	1.3951754213711172	6.691035718205394	27.40766901284717
O	2.2725589433189732	5.848899133636982	27.040676910494753
O	1.4023801809483736	6.734025152132064	28.889417108583636
O	1.7376493587020012	5.534368091886473	29.662576448286305
O	3.1162142803292427	5.712475357248703	30.261622372204634
O	3.777592987350464	9.323465295037089	23.954339814066316
O	4.942553965978235	9.367085447628817	24.674422047658567
O	5.227882776639787	10.670715078387483	25.113604826139525
O	4.873527718139431	11.784828607265567	24.314602158863643
O	3.6980225948861136	11.645980465957027	23.665015012950747
O	5.2472932412579825	8.13751040746973	25.24056637118029
O	4.540019298447416	6.919032170174178	24.844172848385686
O	5.297559920952238	5.677870880822803	24.83216535354835
O	4.597088791219547	4.6763139678952115	25.548897978323364
O	5.179002962576943	4.554839190407014	26.85288711661221
O	4.525102655448968	3.309807430393521	27.38596447584412
O	4.127519075262232	2.501397714277319	26.181709600165515
O	4.602628290165867	3.3631208453765886	25.04444522962105
