87

O	0.41768724503871	-2.8882613589032258	3.5695238280000003
O	0.7457946250387099	-2.3729206089032258	2.2853136280000004
O	1.1243212650387098	-1.2122109689032259	2.1516755880000002
O	0.8468754350387099	-0.06699558490322599	2.8349359680000004
O	1.8251807850387096	0.742613589096774	2.5134346780000003
O	1.8298871350387098	1.906233231096774	3.194464228
O	1.6442860350387098	0.469362905096774	1.2073783380000003
O	1.4132358650387098	-0.9014451289032259	0.8522247980000005
O	0.92779145503871	-1.760784128903226	-0.15271464899999954
O	-0.13646797096129004	-2.451049148903226	0.15137995800000048
O	-0.48384410996129007	-2.576179868903226	1.7213493180000001
O	-1.10109260896129	-3.878180028903226	1.6404051980000003
O	-0.0737663759612901	-4.889860238903226	2.0911996180000005
O	0.48804986503870984	-4.477717058903226	3.274535558
O	2.09216983503871	-2.210081308903226	-0.9916666669999996
O	1.64604622503871	-1.579954258903226	-2.2266155819999995
O	0.3758833250387098	-1.728529918903226	-2.6689908419999995
O	0.08789469003870987	-1.2116257089032259	-3.9023955219999995
O	-0.5767008649612901	-1.500955728903226	-5.067551012
O	-0.8839372260612901	-0.27127056490322604	-5.653126362
O	0.2899788350387099	0.439366283996774	-5.407088401999999
O	0.6581792150387099	0.038171294096774	-4.127074572
O	2.0121922150387097	0.05884775409677401	-3.7660291719999996
O	2.1690164850387097	-0.30253834290322607	-2.4296948919999997
O	-0.92025897596129	-3.140437048903226	4.020923538
O	7.1895149150387105	-3.811858708903226	-14.598152742
O	11.35765506503871	-1.3489730189032259	-0.38872974399999954
O	8.634893795038709	1.270841845096774	0.1368890270000005
O	9.697575165038709	2.0501380810967738	3.7246195680000005
O	9.57418216503871	-1.643512568903226	4.478057518
O	6.098252825038711	-1.776217168903226	2.9316665280000005
O	5.05815729503871	0.978901502096774	5.210050988000001
O	6.58576409503871	-0.6721816189032259	8.232642748
O	4.54742313503871	-3.8450059589032257	7.542106708
O	1.3950142350387096	-1.6792498689032258	7.1680135080000005
O	2.1773412850387097	0.07407313109677399	10.441292858
O	2.83347732503871	-3.255644378903226	12.262480358
O	-0.62917026496129	-4.421431298903226	10.956614758
O	-2.6584816449612902	-1.5182744389032259	12.350649558
O	-5.11286811496129	-4.836169258903226	15.111666358
O	6.40022390503871	11.054868951096774	-1.2968033559999994
O	6.52977769503871	8.190227271096774	1.2041407880000006
O	3.79038719503871	8.673953721096773	3.7750317780000007
O	2.6770146550387097	6.238301601096774	6.380973668
O	-0.3891483779612901	2.1919054810967737	8.438979168
O	-3.44533666496129	0.202452786096774	7.9485560379999995
O	-4.24105203496129	1.617779091096774	4.516046748
O	-5.68621673496129	-0.17353940690322606	1.5326527280000004
O	-9.277773384961291	-0.9333310389032259	0.6508208080000005
O	-10.65915228496129	-0.711476798903226	-2.8784154519999996
O	-10.49148167496129	-4.554804758903226	-2.9464163619999995
O	-6.73852594496129	-4.506113738903226	-2.1539756519999997
O	-6.24431448496129	-2.055438198903226	-4.943032592
O	-8.05607948496129	-3.6855364289032257	-7.778265021999999
O	-7.78628971496129	-7.298067428903226	-6.825530742
O	-5.93786289496129	-8.487928238903226	-3.7773217619999997
O	-2.48815789496129	-6.952198678903226	-4.2737525419999995
O	-2.42913850496129	-8.280001018903226	-7.840176152
O	-0.8173393273612901	-12.084373748903227	-4.219141272
O	1.7311404450387098	-10.409353848903226	-6.5140925119999995
O	5.92597715503871	-13.380452948903226	-6.091099502
O	11.484802365038709	-7.543230928903226	-1.6735290819999995
O	9.40655856503871	-11.952054948903227	-3.2305830019999995
O	6.82530743503871	-9.517772688903227	-1.6202387509999996
O	6.74224170503871	-7.299719808903226	-4.812095572
O	9.187079535038709	-4.564397658903226	-3.7920707319999996
O	6.62985494503871	-1.9094636689032258	-4.609470701999999
O	7.312992325038711	-2.189872248903226	-8.327021991999999
O	9.33346706503871	2.3767213410967742	-7.612349602
O	-0.9050470229612901	6.026078401096774	-4.318236271999999
O	-3.35406839496129	7.662645011096774	-2.0113297919999997
O	-4.66506853496129	5.354667281096774	0.6493377180000005
O	-7.37354153496129	5.245694861096774	3.3358177180000004
O	-8.41515321496129	2.129273771096774	5.3357837980000005
O	-10.07324139496129	7.357527391096774	0.3889637880000004
O	-8.774097044961291	6.166354901096774	-3.0148295919999994
O	-6.244726844961289	7.306443441096774	-5.578792411999999
O	-4.45568708496129	4.602198571096774	-7.542477691999999
O	-3.61201725496129	1.4530961910967741	-13.834187942
O	-8.43850662496129	3.847784321096774	-9.400034672
O	-8.51156407496129	13.573584251096774	3.7274564580000007
O	-5.69594823496129	6.529554791096774	7.703634418
O	-2.70312389496129	5.228360071096774	5.804830268
O	-0.93898067396129	5.305952111096774	2.4680071180000005
O	1.0649574850387098	7.961324791096774	0.5431232080000005
O	3.1367472850387097	6.833821441096774	-2.4078997319999997
O	3.92138020503871	9.793120121096774	-4.640853751999999
