15

O	7.423190829732285	11.817123988334505	22.649754061328405
O	6.968428477993871	10.525085912733388	22.3087908615995
O	6.015334926869609	10.328148552717568	23.209748538653148
O	5.294166642111231	11.391847113172505	22.895174989233148
O	6.190045758907088	12.441457320439103	22.55391095851363
O	3.9434901091390704	11.548072166895139	23.53011843736874
O	3.612735629842544	11.323348239493207	24.76004775291325
O	2.4716647995154033	12.121870851932181	24.989171102424013
O	2.262181738161198	12.501857616236622	23.72105445224972
O	3.5184123288559888	13.00409386440223	23.381019159501193
O	4.492638288287219	13.549566775182358	24.33848226037054
O	5.042915391032992	13.011221853111778	25.46400742498113
O	6.423007096489913	13.317372385613272	25.673041802756323
O	4.690359778047168	14.71766148024291	23.990901137596335
O	0.8687261828161468	12.749447691528287	23.385369355732962
