16

O	-0.2601639994245222	11.051538504856504	24.657301538117327
O	1.1144332817333917	10.832547930231883	24.84869554189739
O	1.4691547815311834	10.096771534915659	25.982604388482443
O	1.3202373155562066	7.827493102575574	27.69223218727314
O	0.468499316747119	9.816661121369297	26.85017827248611
O	-0.6916298163397747	9.382125739123518	26.207150907467
O	-1.064536727722932	10.050044073196892	25.08631799164356
O	-0.9306895433015013	12.15944407039948	24.24528782363527
O	1.545044657114076	5.632329054782252	26.926021610993736
O	0.5972116626042299	6.835872013889615	26.960893118804663
O	2.6517799627337078	8.061262976686534	27.133481517054683
O	3.053585701282073	7.197404039943002	25.9913913143199
O	0.7654043050080488	9.101412642454404	28.06481488378963
O	3.0654933807838414	11.154014119184962	23.439878915390103
O	-0.23754771764550786	8.90588138862865	28.763616932911432
O	1.9262101850830655	11.667717548242306	24.121886268015515
