31

O	5.322371195727279	7.674593871668337	21.18146335870243
O	4.552422439273467	5.0654253973043994	21.13064482847805
O	3.968987578768651	3.7432060259738877	18.796339124695645
O	6.102245323637923	8.070683458003527	23.474395825653193
O	4.931120262112695	8.198076522319328	22.759399893762538
O	5.55843374900569	8.242390047513295	24.916116288893072
O	4.681645598529297	9.337038827091714	24.99774097356322
O	4.675629961922566	7.009182122701547	25.085898781273855
O	5.361162309300786	5.905424000520336	25.54429117800362
O	3.6064379517733185	7.538782113906696	25.996723597223443
O	4.025142817721868	7.375125669764547	27.329707333866686
O	3.578961094603555	9.021291466560836	25.762734910927694
O	-1.5546133515594298	10.112070224379735	26.618824648539473
O	6.227429021723327	8.759413752512959	20.762329321230283
O	3.4754976312780093	5.802889404523066	20.443575447101196
O	2.5338930393228685	3.7882233762429722	19.168743469024122
O	-0.6428087634610713	9.546529501502452	27.406621837287943
O	3.9363705480512086	7.881297269048332	20.29516457016328
O	4.0099958890752205	4.5895638852735114	22.582180132029553
O	4.29095496749486	5.194893207917016	18.041413535249486
O	0.6529133421240016	9.349969831383026	27.074764020606274
O	4.800298062362781	3.541633839812791	20.337703081062305
O	5.804468132062244	6.11760694405982	21.395515538698255
O	4.2438431717206635	2.4940201581548687	17.854290685676354
O	1.1274501394427123	9.667118604301745	25.86539625304697
O	0.17072749719533786	10.148369597996918	24.968530660793853
O	-1.158181583833147	10.316857947841244	25.356521759599296
O	-2.1072200439503206	10.910799633787724	24.510410849263966
O	0.8424809965980504	10.242181255619379	23.800158842251275
O	2.1586265530015343	9.976402850144115	24.02261323464308
O	2.3343532114984606	9.56220249432954	25.29916782732682
