19

O	6.683095534037353	11.789186843426913	23.452665352320345
O	5.655489468146365	12.686573682144072	23.136739745538936
O	4.325463329456031	12.303104049694841	23.324687270257392
O	3.956557223238005	10.989682671553485	23.126145899717752
O	5.061900291355432	10.108825487468064	23.300348901207723
O	6.36162225169473	10.461853070320636	23.492330734054264
O	3.422342521726281	13.114346785070403	24.048691150795747
O	2.4833026794076662	12.46951534533384	24.794909831584466
O	2.1283441588040866	11.198781782107847	24.445619698312072
O	2.584095607728063	10.731537094998876	23.310664376925608
O	0.7666632403213633	10.82932641076818	24.963978298321038
O	-0.20190235525468148	11.309326389349875	24.044837788242937
O	-1.5627129910439388	10.952738992365383	24.321807213879058
O	-1.5403369011143027	10.956255996643213	25.701978811798853
O	-1.0719782403681113	9.739680681946604	25.879403406701098
O	0.19266450754291597	9.765750303164403	25.487656792691208
O	-2.084870950648772	9.230678930442444	26.32756113145152
O	-2.445991345247202	11.763565937217658	23.797441459718044
O	2.3681923372424	12.608846067895811	26.771937679205724
