93

O	0.8609514166492314	0.11062674409230766	-1.3791863156276924
O	-0.11899912835076853	2.2532821180923075	-0.3415986956276925
O	0.9693829266492315	-0.20606500590769228	1.7367677093723075
O	-1.9019268703507686	3.9496536240923072	-3.7662048906276926
O	-0.22718633635076857	3.5353087440923074	-0.6558716584276925
O	-0.9050092033507686	0.9485994560923077	2.0055076093723074
O	-0.0744535783507686	5.193454034092308	-2.4771629706276923
O	-0.7868885953507685	4.188448754092308	-1.7695523806276925
O	-0.7269478473507686	-2.6780516759076924	3.754880919372308
O	-0.9928363498507686	1.4763486810923077	-3.737425500627692
O	-1.4551072573507686	3.328549664092308	-2.5881003206276927
O	-2.037243713350769	-0.8096788559076924	3.2698384393723074
O	-0.9287279223507685	2.009816382092308	-2.5212381506276924
O	1.4470215366492316	-2.9158208059076918	2.7679635993723077
O	-0.3374078813507686	1.4120260308923076	-1.4367304216276926
O	-1.9202852603507685	3.449976184092308	-5.034794370627693
O	-0.0809024383507686	5.340429004092308	-3.9007844106276925
O	0.9310389166492312	1.9991708210923076	0.7105842893723074
O	0.37166777664923134	0.9831517720923076	1.5950647793723078
O	0.1185312866492314	-0.9658182459076923	2.4222844193723074
O	-1.0062369895507686	-0.21854759590769235	2.6615634493723075
O	0.25357609664923153	-2.2013241959076923	2.9891524293723077
O	-1.7795268923507686	-1.8984949259076924	3.991553279372307
O	-1.9022392463507685	1.9853007980923076	2.1630722793723076
O	-2.3192956133507687	1.9402211090923076	3.6091085293723077
O	-1.4272261093507685	1.7835076280923077	4.569902979372308
O	-0.16223430235076852	2.5378986340923078	4.390930329372307
O	0.13079530664923134	1.7090390380923077	-4.603372680627692
O	5.590283666649231	11.066048494092309	-8.684895950627693
O	8.98140345664923	3.6639662840923073	3.9105214193723077
O	7.494211376649231	0.41443256409230766	2.579265069372308
O	8.41094638664923	-1.5896167159076924	5.6939185793723075
O	6.715934416649231	1.0810533910923077	7.800131229372308
O	3.5448520366492313	0.8258141760923077	5.533242149372308
O	3.630481056649231	-2.885647405907692	6.183465329372307
O	4.075676176649232	-2.4300354159076925	9.942653359372308
O	1.0042041266492316	-0.09286454590769244	10.085943759372308
O	-1.0361193685507686	-2.6883537459076923	8.152353809372308
O	0.12915525664923133	-5.450798755907692	10.503336659372307
O	-0.7804673633507686	-3.268958255907692	13.558850859372308
O	-4.284129093350769	-2.742420315907692	11.981540059372307
O	-5.158508023350768	-6.422161105907692	11.543661259372307
O	12.58396885664923	-6.679036035907693	-4.889076000627693
O	9.33780595664923	-7.683329835907692	-3.235659510627692
O	8.13348991664923	-6.474227795907693	0.1566857333723075
O	5.565533886649231	-8.917437085907693	1.4870521593723076
O	-1.2013229443507685	-7.200158165907693	7.279810569372308
O	-4.763523213350769	-6.115466825907692	6.805655789372308
O	-4.648355333350769	-5.8756916359076925	3.0190098793723075
O	-6.459688473350768	-3.407044745907692	0.7789744693723074
O	-9.91929853335077	-3.4215459559076917	-0.7416772008276925
O	-10.715700503350769	-2.361329525907692	-4.290639140627692
O	-12.038282043350769	0.9158267820923076	-2.7819788206276925
O	-8.683126733350768	1.6441248140923075	-1.1648263736276925
O	-6.910303983350769	1.0676857210923076	-4.479755340627692
O	-9.12725035335077	3.1393108540923076	-6.8159793806276925
O	-10.295160983350769	5.816254504092308	-4.459129680627693
O	-9.27358288335077	5.951643364092308	-0.8628117746276924
O	-5.475554533350769	5.939438564092308	-1.0619892946276925
O	-5.599608343350768	8.726685614092307	-3.6126412506276924
O	-8.121958463350769	10.836725904092308	-1.6740432056276924
O	-5.992013863350769	10.683492464092307	1.5197806593723078
O	-2.8034699833507686	11.223886114092307	-0.4095933356276925
O	-0.14814406135076852	14.735233014092309	2.3246721893723077
O	6.818008566649231	9.445885524092308	5.276051319372308
O	6.036431706649232	12.278051214092308	7.7531848793723075
O	3.3604900166492313	13.234988214092308	5.141167969372308
O	1.7772227366492315	9.706990124092307	4.905942759372308
O	2.8855142466492314	9.328271404092307	1.1718466893723076
O	6.018254146649232	7.226855834092308	1.6114562293723078
O	4.716162316649232	4.615810684092308	-0.8249730246276925
O	5.686491786649231	6.8211841540923075	-3.7937585606276922
O	9.293504656649231	6.739874784092308	-2.7560800306276922
O	9.216526356649231	3.330281754092308	-4.461506960627693
O	9.719519056649231	5.372876144092308	-7.591832390627692
O	5.559052666649231	-1.0543335259076925	-9.198698020627692
O	0.9661561766492315	-4.217383035907692	-5.683273820627693
O	-0.8371775613507686	-7.437022885907693	-5.026132520627693
O	-3.1861200733507684	-7.188692325907692	-2.0857816006276924
O	-5.953742373350769	-9.172692385907693	-0.37685970862769247
O	-8.321775823350768	-7.897566195907693	2.381943619372308
O	-7.325537993350769	-10.306639985907692	-4.533187390627693
O	-6.274861453350768	-7.350524595907693	-6.703398190627692
O	-3.2699384633507687	-6.349534455907692	-8.743593470627692
O	-2.5026373033507685	-2.6678225359076926	-8.936345080627692
O	-2.3162678433507686	3.0910171040923076	-12.985695340627693
O	-6.274280623350769	-2.409426005907692	-11.333609640627692
O	-1.9106125733507686	-9.036157385907693	3.0507397893723076
O	0.057321396649231415	-6.917333165907692	0.5401221993723074
O	3.0722815866492312	-7.556837725907693	-1.7410504106276923
O	4.798292316649231	-4.612129565907692	-3.2733185506276925
O	6.873265596649231	-5.7835898259076925	-6.2513956706276925
O	9.55607925664923	-3.2599000859076925	-7.207793800627693
