85

O	-1.7933830459402982	1.5841438864477606	-0.29403923928358217
O	-1.8689435029402983	2.908373536447761	0.12296699971641778
O	-3.0977689009402987	3.477169466447761	0.30041647571641783
O	-3.206342720940298	4.55057305644776	1.3393284257164177
O	-4.1566948609402985	2.658656276447761	0.07083740171641784
O	-4.102185880940298	1.3281065614477607	-0.20067061028358213
O	-2.8741186209402985	0.8352265634477607	-0.6367751742835822
O	-2.6937934809402986	-0.8902355835522394	-0.2904975682835822
O	-3.8932083509402986	-1.5022987735522393	-0.8701719141835822
O	-2.7525047309402986	-0.9887645535522392	1.169737135716418
O	-1.3047570009402982	-1.6004262335522395	-1.0133696572835822
O	-0.43331943394029826	-2.1869649835522393	-0.14828627128358218
O	-1.4778869369402983	-2.3161860335522393	-2.2081249842835824
O	-0.23405658194029832	-2.728997943552239	-2.713496514283582
O	-0.18641231994029828	-3.326732903552239	-4.054978504283582
O	0.6958786690597016	-3.2166951735522393	-1.8480053142835822
O	0.4428000890597017	-3.0985308635522393	-0.5494473292835822
O	1.2353677990597018	-3.738572783552239	0.4034801057164179
O	-5.716566230940298	-5.896042513552239	7.224463825716418
O	-2.1936152009402985	-4.7749931835522395	6.242878855716418
O	-0.8368872189402983	-8.30470632355224	5.995011265716418
O	-3.7516227409402987	-9.23990283355224	3.7451405757164182
O	-2.964869230940298	-6.16175187355224	1.519823105716418
O	0.6263064490597017	-7.45117630355224	1.344452005716418
O	-0.5407831109402983	-10.94372842355224	0.4597907057164179
O	-2.710469340940298	-9.61555032355224	-2.437690194283582
O	0.2603726290597017	-7.564575663552239	-3.715956974283582
O	2.5258801490597014	-10.642377623552239	-3.480296424283582
O	-0.11522111194029827	-12.75198142355224	-5.356271444283582
O	-0.1883028709402983	-10.008461723552239	-8.092492284283582
O	3.5507052690597023	-9.97613192355224	-8.808529794283583
O	5.832595889059702	-0.8911707135522394	13.462075925716418
O	6.727336069059702	-1.5213507235522394	9.848391525716417
O	4.979974269059702	-4.01183077355224	7.565421485716417
O	7.269745569059703	-4.82684643355224	4.6690652557164185
O	6.432972099059702	-6.79188882355224	1.5747529657164177
O	4.824046449059702	-7.49752368355224	-3.640951334283582
O	4.023261789059702	-5.6654280435522395	-6.805395414283582
O	4.465788669059702	-2.1700687535522394	-5.378754494283582
O	2.5534499590597015	0.9689184294477606	-6.239969144283583
O	3.054201929059702	3.501736576447761	-9.019439724283583
O	2.6914382190597017	7.246175156447761	-8.543521804283582
O	-0.7054093179402983	6.92291117644776	-10.290346214283582
O	-1.9089686279402982	4.41669416644776	-7.701819904283582
O	-0.8852253689402982	6.7321266064477605	-4.848036594283583
O	-2.3833126209402984	10.00460118644776	-6.0720039642835815
O	-5.3345773509402985	8.75288388644776	-8.024282514283582
O	-6.190546250940298	5.122183076447761	-8.462161254283583
O	-6.428024360940298	3.9455473464477606	-4.8827255242835825
O	-8.647271480940299	6.910581936447761	-3.962653064283582
O	-11.493696300940298	2.6448884864477606	-6.026449594283582
O	-11.721966800940297	3.4826095964477606	-2.306077544283582
O	-15.800013900940298	0.7989904554477607	-0.6396666712835821
O	-11.530541000940298	-5.31222215355224	4.786675555716418
O	-14.719009100940298	-6.77233973355224	3.242509445716418
O	-15.045990100940298	-3.2692436535522393	1.662893235716418
O	-11.484747100940298	-3.219925833552239	0.19021596471641777
O	-10.448286550940297	-0.21690345455223936	2.480918305716418
O	-8.676033400940298	-2.098606823552239	5.290918725716418
O	-5.578017950940298	0.08072721244776065	4.823627455716418
O	-7.251165360940298	2.929574336447761	6.761607125716418
O	-3.8856129309402982	1.6945928964477606	10.264634125716418
O	-5.358708780940298	4.80136693644776	11.828903525716417
O	1.4308734990597018	6.46056450644776	8.358371925716417
O	4.317363639059702	6.507183036447761	5.899262205716418
O	4.300737169059702	4.22410280644776	2.8670169257164178
O	7.431639629059703	3.6093527764477606	0.8795587057164178
O	6.774878979059702	1.7432385164477608	-2.330872314283582
O	8.459886219059701	0.7317315904477606	-5.5621470442835825
O	6.778002819059702	-0.7533638135522392	-8.682252104283583
O	10.469747099059703	4.80883950644776	-5.467297994283582
O	7.898114469059703	7.03071663644776	-3.6736299042835823
O	7.0785439790597025	8.085851566447761	-0.13236870428358216
O	3.3976892190597017	8.62689956644776	0.7025734357164177
O	-5.021864330940298	12.28885647644776	8.419926005716418
O	-1.5733301069402983	13.36150677644776	2.326788025716418
O	3.784641279059702	12.19642677644776	-1.9949151442835822
O	16.2957411990597	1.6925664964477605	-2.535312264283582
O	10.291368699059701	-3.7482086735522393	-5.369364784283583
O	7.455770519059701	-3.743494123552239	-2.9044273942835823
O	5.782945709059702	-1.7042762635522393	-0.1526491692835822
O	6.722330439059702	-0.7658081935522393	3.449942595716418
O	3.9987944590597015	0.6299106434477606	5.633540245716418
O	5.546096129059702	2.460022216447761	8.585039535716417
O	3.057415599059702	2.897001446447761	11.434538125716417
