91

O	1.7537686333913047	1.0688715071913044	-1.2783090023333332
O	3.786081593391305	3.8168105121913043	-0.41044049033333324
O	2.8325914233913045	3.5134780121913045	2.261730468666667
O	2.6193536233913046	2.9518620321913045	-0.6168589243333332
O	-2.740613736608695	-2.6847424478086954	-3.8993775613333335
O	-1.7614722266086953	-1.6326002778086957	-5.583263751333333
O	2.2453430033913047	2.2342144141913045	-1.7072603423333332
O	1.4494487533913047	1.2295855280713044	-0.0012003223333332258
O	2.0992434333913046	2.3281693921913043	0.46934788866666666
O	1.9816435533913048	2.7150052921913046	1.8428471786666667
O	0.6051600933913047	2.8421284421913047	2.317764798666667
O	-0.2591335186086952	2.1853898791913045	1.2492630686666668
O	0.20356752439130477	0.8697865601913044	0.7186394286666669
O	-0.05711550960869516	3.1794962921913044	0.0425440106666668
O	-1.674139176608695	2.5300683721913044	1.293283038666667
O	0.9586214233913047	0.25470094919130437	-2.132905971333333
O	0.026433202391304755	0.9247142791913043	-2.919916441333333
O	-0.1760345276086952	0.025771572191304326	-3.9837655313333333
O	-0.5961507381086952	-1.2686131978086954	-3.6429166213333333
O	-0.42431437160869523	-1.5245037178086958	-2.2945972513333333
O	0.6181522933913047	-0.9679063078086956	-1.6222430303333333
O	-1.8349842866086954	-1.6838842678086956	-4.305291701333333
O	1.7438127933913048	11.613719212191304	10.092055588666668
O	12.093345163391303	1.4827756021913043	6.2009943986666665
O	5.666450383391305	-7.930601487808696	-3.5365871713333332
O	2.2359128533913046	-7.528304217808696	-1.8601139213333333
O	0.5091403833913047	-9.997294287808694	-4.222160661333334
O	1.9236662433913048	-8.075428307808695	-7.1736648013333335
O	0.6885431033913049	-4.909011237808695	-5.691366891333333
O	-2.7741327766086954	-6.415887627808695	-5.346068011333333
O	-2.6451729166086952	-7.691409917808695	-8.955667881333333
O	-1.940238636608695	-4.105307167808695	-10.217275191333334
O	-4.904601106608695	-2.8233597678086952	-8.173663751333333
O	-6.003561746608695	-4.763947467808695	-13.162767111333332
O	-6.949699996608695	-1.0584840378086957	-12.485933811333334
O	-10.520840396608696	-1.6435252678086956	-11.344809711333333
O	-0.9437058936086953	-12.873480287808695	7.827020808666667
O	-3.4866493266086955	-10.916769387808696	5.827957518666667
O	-3.3287177466086955	-10.259029187808695	2.0761043386666667
O	-8.858646426608695	-4.219997277808696	-6.358632961333333
O	-9.389456176608697	-0.5340259578086957	-6.819482211333333
O	-8.798537666608695	0.4660686331913044	-3.2141365213333333
O	-7.071456636608695	3.6169478621913043	-1.8939608813333333
O	-8.481559696608695	7.063109262191304	-1.1432014723333332
O	-7.478322496608695	9.116239862191305	1.854319998666667
O	-5.351099216608695	11.206084982191305	-0.5474459693333332
O	-3.3857792866086953	8.112743022191305	-1.631035869333333
O	-2.6778545666086955	7.212111182191304	1.9728613086666669
O	-1.5236774476086952	10.533506562191304	3.3205581486666667
O	-0.01849343660869518	12.065524612191306	0.2464628126666668
O	0.05817778739130475	10.393462312191305	-3.124803141333333
O	1.8004947033913048	7.219618042191305	-2.414404091333333
O	4.533100163391305	9.018738662191305	-0.43525850633333324
O	5.046625393391305	11.552624412191305	-3.2709834713333334
O	5.538476513391305	8.726703942191305	-5.862658491333333
O	7.646124633391305	6.664104842191305	-3.4468661813333332
O	11.633785663391304	4.960264482191304	-6.176364311333333
O	13.195620363391305	4.9303650821913045	-2.707713811333333
O	16.508246963391304	1.7604146991913043	-4.839433771333333
O	9.637763463391304	-4.012471007808696	-6.525158491333333
O	11.494471563391304	-2.831514557808696	-9.658464731333334
O	11.470427163391305	0.5691370061913044	-7.875619501333333
O	7.652146123391305	0.5991763321913044	-7.155276421333333
O	8.401094823391304	0.41296854919130443	-3.339894211333333
O	7.773335903391305	-3.2762420178086953	-2.6969770513333335
O	5.146849593391305	-2.5226217378086955	-0.06560392133333326
O	7.849768783391306	-1.6635203878086955	2.484241228666667
O	9.304972613391305	-5.173589247808696	2.2197319986666666
O	6.396113093391305	-5.994361937808696	4.5656482086666665
O	8.785625433391305	-4.763531547808695	7.213546278666667
O	6.103734863391305	-7.6121126278086955	10.236123488666667
O	1.3977855433913047	-3.2935315778086953	9.311597588666666
O	-2.2767719166086953	-2.3545411078086955	9.167125988666667
O	-3.9087740466086953	-1.5332909678086954	5.816084288666667
O	-7.688206286608695	-1.4322217878086958	5.566552638666667
O	-8.796268556608696	-0.04149296780869549	2.2216694786666666
O	-11.919893436608696	1.1746083619913044	0.4545809086666668
O	-12.092219136608696	3.0457715121913047	-2.9039094013333333
O	-9.802285626608695	3.8621935121913045	6.089657878666666
O	-7.341413236608695	2.1661592001913044	8.423090678666666
O	-3.657332146608695	3.0030528721913043	7.854969878666667
O	7.806657973391306	2.2179474641913046	11.447724688666666
O	5.3210025133913055	7.7965864321913045	11.676146788666667
O	2.0563343033913046	6.264719912191305	10.466459488666667
O	-4.780452036608695	7.062315292191304	9.392688888666667
O	-10.364805616608695	-3.2203965478086958	-2.0797288013333333
O	-7.434693246608695	-3.5112853278086953	0.27768652866666677
O	-6.430435736608695	-5.823983857808695	3.1856329986666667
O	-2.8313476666086954	-5.708200297808695	4.346760888666667
O	-2.5610372766086953	-7.166734577808695	7.842594378666666
O	0.9985327033913048	-8.208256737808695	8.678443008666667
