87

O	-2.6768708894080646	2.361814438341936	-2.324966981253226
O	-1.3404969904080648	2.3100523183419357	-2.063570331253226
O	-0.6383769724080648	1.4448145333419358	-2.678333471253226
O	0.6638745705919352	1.5042546233419358	-2.237866631253226
O	1.7807569305919353	1.1189595503419358	-2.7710472712532264
O	1.6940970505919353	0.6613021643419357	-4.126910131253226
O	3.345940050591935	0.29467872934193573	-4.110342411253226
O	-0.8908723614080647	1.9002609783419357	-0.8296026392532261
O	0.4965586095919352	1.5882891863419357	-0.841773038253226
O	1.6593871905919353	1.2291276953419357	-0.16361915825322604
O	2.2367297905919354	0.13775527434193569	-0.578686503453226
O	1.9731317805919355	-0.08273484165806422	-2.134090521253226
O	3.097658910591935	-0.9267488416580644	-2.282501091253226
O	3.899207530591935	-0.6868040116580642	-3.479554631253226
O	1.8039781805919355	1.8422558083419358	1.1646243687467739
O	2.213019480591935	0.9265878173419357	2.248052498746774
O	1.246274880591935	0.18004782934193575	2.9184456587467738
O	1.5257939005919354	-1.003717331658064	3.5412534887467735
O	0.8866466205919353	-1.7745885416580642	4.469387068746775
O	1.3615395205919354	-2.243395761658064	5.700051038746774
O	2.7925521105919353	-1.4843789616580643	3.2551402687467736
O	3.8322450905919356	-0.6032722216580643	2.956925478746774
O	3.4525613805919355	0.32173764234193575	2.032619288746774
O	4.965790040591935	-0.9625150116580642	3.6278884987467737
O	4.921322810591935	-1.0527654216580644	5.063073198746774
O	8.357738910591936	1.7068529673419357	13.813908228746774
O	2.069407690591935	10.422152818341935	3.389879228746774
O	-0.8270582714080648	7.988982178341936	2.888323568746774
O	-2.5427365294080646	10.155467808341935	0.249613273746774
O	0.7430241005919352	10.332002458341934	-1.6393670412532262
O	1.050423760591935	6.476877718341936	-1.474435574253226
O	-2.4393670994080647	6.357977148341936	-2.9315452212532263
O	-1.6066524694080648	8.818054908341935	-5.667789151253226
O	1.4717127105919352	6.710720818341936	-6.682690151253226
O	-0.5723745504080647	3.463098528341936	-6.681559561253225
O	-3.2557930294080646	5.349769188341936	-8.843551991253227
O	-0.5732715184080648	6.634301148341936	-11.265171771253227
O	0.6508747905919353	2.962816128341936	-11.556890971253226
O	-2.694996729408065	1.4683932673419358	-12.599767871253226
O	-0.5709833624080648	0.1713739543419357	-16.888088071253225
O	-9.872501889408065	5.135400038341936	6.447278888746775
O	-7.909574579408065	6.162706738341936	3.362856068746774
O	-9.343686809408066	4.432243268341936	0.326581585746774
O	-7.884213299408065	4.3211017683419355	-3.1343127412532263
O	-4.997835209408065	2.244280818341936	-7.3028394612532255
O	-3.1222886794080646	-0.7659357516580642	-8.395213001253227
O	-3.501162379408065	-2.697387321658064	-5.168709381253226
O	-1.0131948964080648	-4.9794165716580645	-3.5292281312532263
O	-0.3801265461080648	-8.703038941658065	-4.119712711253226
O	0.3465725655919353	-11.189950251658065	-1.3312322832532262
O	4.025344730591935	-11.024220151658065	-2.397537781253226
O	4.070549900591935	-7.226188951658064	-1.8811075512532258
O	2.6237525705919356	-7.567370141658064	1.5708045987467738
O	4.872107320591935	-10.273786451658065	2.938157578746774
O	8.041612500591935	-9.660950151658065	1.046906278746774
O	8.423167780591935	-6.909839551658064	-1.460511769253226
O	7.406006030591935	-3.8288740616580643	0.5533689287467739
O	9.784548030591935	-4.904162671658064	3.225054738746774
O	12.404207430591935	-2.113765911658064	-0.571967910553226
O	11.823778830591936	-0.48063747165806425	2.751517288746774
O	14.817701730591935	3.699519228341936	2.888644348746774
O	8.344984310591935	10.252153568341935	2.6521435087467737
O	12.855392430591936	7.912682788341936	1.9717338487467737
O	9.868611730591935	5.966872818341936	0.422999368746774
O	8.696912510591934	4.736223718341936	3.889838948746774
O	5.956504890591935	7.249988768341936	4.681781398746774
O	3.4975217705919355	4.448938038341936	5.339229848746775
O	4.921883110591935	3.912088948341936	8.823807458746774
O	0.5509590975919352	5.970689938341936	10.343431528746773
O	1.9649403105919352	4.918004108341936	13.672358928746773
O	-4.824916209408065	-2.6522154516580643	5.227010568746774
O	-7.2666963694080655	-4.221337671658064	2.8447226387467737
O	-5.954432809408065	-4.4920758916580645	-0.6908474762532261
O	-6.881996219408065	-6.137150811658064	-4.003691631253226
O	-4.615166899408065	-6.3800719316580645	-7.092426451253226
O	-8.226811219408065	-9.724107751658066	-1.584991571253226
O	-5.960740159408065	-9.601681151658065	1.523819298746774
O	-6.073721889408065	-8.121379431658065	5.004601558746774
O	-2.750249729408065	-7.004449031658064	6.495044058746775
O	2.215384070591935	-8.216540211658065	11.377459728746773
O	-1.8225219294080648	-11.374416151658066	6.644110928746774
O	-9.285345339408066	-3.1397894316580643	-6.9819803912532254
O	-7.237826789408065	-0.9097864416580642	-4.735551701253225
O	-6.178542789408065	-0.37352257165806424	-1.1182731982532261
O	-7.9677071194080655	0.7952891571419357	2.088991188746774
O	-5.821422079408065	1.7854303583419358	5.041991098746775
O	-7.879710219408065	1.7115931783419356	8.233022008746774
