21

O	1.2158699596357625	9.52345537504154	25.458301055705157
O	0.5642948252087314	9.442742979025233	26.591947863329686
O	-0.7564509775425533	9.818666600010474	26.357241167227812
O	1.1820538245384078	10.830484476458812	24.966234143625318
O	2.413186600402946	11.220968549870012	24.318058742433596
O	1.0499080095865225	7.9696677571261185	27.488029646362627
O	2.7585392194200793	8.15255274806916	27.966711116953967
O	-0.081304290831548	11.225302854488923	24.711614368542595
O	-1.1082737181288733	10.75353150502287	25.4787896815513
O	-2.1973994879425094	11.227583055418602	24.79898935401552
O	-1.8424079108187992	12.006156427399679	23.774302680513863
O	-0.5958900862809514	11.580222234778203	23.451075073689026
O	3.276078206584639	10.211410457909304	24.055765283902122
O	4.5850298234258835	10.394727928317204	24.363359403913
O	5.066093752897695	11.645439451558367	24.512054734998994
O	4.257976938087969	12.661842999403557	24.014516379944542
O	2.883814932133496	12.466596368773953	24.108659795559085
O	6.455129875908847	11.883701590442303	23.910868560884595
O	2.294814493920476	13.698053508451352	24.6077277937691
O	0.33284859570724035	12.149125972713117	22.543700432291295
O	0.6028722568592931	13.04625269718651	21.89551841100399
