84

O	4.85617860482931	-0.017271379934482384	-1.5790763370344834
O	2.9373631548293107	1.7831470900655177	-0.8891336670344834
O	1.7158547048293107	2.224653360065518	-0.4192043560344833
O	0.7923269448293107	1.2454586100655178	-0.2455306590344833
O	1.2641964948293107	-0.011671448934482381	-0.0813590260344833
O	2.4251731348293104	-0.4452219059344824	-0.5882132750344833
O	3.3794017648293107	0.4895988400655176	-0.8245521450344833
O	-0.5617039551706894	1.4196262600655176	-0.0525674818344833
O	3.7624903348293106	2.794548840065518	-1.3296322870344834
O	0.3156533248293106	-1.0976593599344824	0.2715575379655167
O	-1.0727380781706894	-1.0398642499344826	0.4024927689655167
O	-1.0426552981706894	-0.8715275399344823	1.6490548329655166
O	-0.5128635861706894	-2.080176109934482	1.8839807929655168
O	0.6956806438293106	-1.8746983299344824	1.2182579929655166
O	1.9235190448293105	-2.2476013499344822	1.7689127729655167
O	-0.7650231501706894	-3.4258519499344824	2.280570022965517
O	-0.8497718201706894	-3.7010436099344823	3.6239224929655167
O	-1.8300931451706894	-4.786679499934483	3.9848165229655166
O	-0.8715775961706893	-2.7296239999344825	4.401863682965517
O	2.8978003248293103	-2.6026168999344823	0.9558830229655166
O	4.21795076482931	-2.488004759934482	1.3873712429655167
O	4.3712071348293104	-2.5244480299344825	2.743124102965517
O	3.3421625548293106	-2.091415159934482	3.532146922965517
O	2.2455925248293105	-1.5787593399344826	2.9162859229655167
O	5.246352494829311	-3.4251324899344824	3.3846399529655167
O	4.54969454482931	-4.334169069934482	4.238646142965517
O	9.156720874829311	6.311350030065518	2.722156682965517
O	6.29361051482931	5.825261180065517	0.2985319399655167
O	3.950597664829311	8.233403710065517	2.0935634629655167
O	4.658101854829311	6.283091610065518	5.290580192965517
O	3.8454310848293103	2.991802840065518	3.474981702965517
O	0.6520963718293107	4.593889050065518	2.411247052965517
O	-0.1404891582706894	5.815943210065518	5.911953322965517
O	0.3749252528293106	2.2613273400655176	7.3194761729655164
O	-1.9729024151706893	0.9126795360655177	4.684815952965517
O	-4.56181124517069	3.559203810065518	5.439224692965517
O	-4.200213375170689	2.7397348000655177	9.198940682965517
O	-4.850416095170689	-0.9334978499344825	8.379449932965517
O	-8.07387491517069	-0.5151583439344823	6.4275909729655165
O	-9.20454837517069	1.9777658900655175	9.051625342965517
O	-8.58947600517069	-0.5341167419344823	11.876885012965516
O	-10.25890888517069	-3.327025209934482	9.903937612965517
O	-13.367322785170689	-1.2682340999344826	9.195263132965517
O	0.7088135618293105	13.173265040065516	-5.041278877034483
O	1.7411205248293107	8.354695000065517	-5.012976687034483
O	-1.8828578051706892	7.340424720065518	-4.645397867034483
O	-3.5119255051706895	5.994033340065518	-1.5169803970344833
O	-6.921217445170689	4.497729960065517	-0.6354648680344832
O	-5.46291159517069	2.1520986900655177	1.9273097329655167
O	-5.94526364517069	-1.5540442799344825	2.2897003529655167
O	-4.37748863517069	-2.5599140299344825	-1.0154910070344834
O	-2.2576003351706895	-5.618870519934482	-1.8269849670344833
O	-3.3751108251706894	-9.136295539934483	-2.8081531970344833
O	-1.5978620551706892	-11.181014259934484	-5.449109317034483
O	-0.048904851170689406	-13.180575359934483	-2.574670577034483
O	1.4804403748293107	-10.017661659934483	-1.0891688960344832
O	3.0029498048293104	-9.058938169934484	-4.443533747034484
O	4.55389350482931	-12.382989159934484	-5.470637127034483
O	4.660631894829311	-12.179742759934483	1.0864083129655167
O	6.36129624482931	-8.828097449934484	0.7225117509655168
O	12.53213281482931	2.735329680065518	6.6188689129655165
O	14.24704051482931	-1.7436904599344825	8.451075582965517
O	10.71669041482931	-1.9140559899344822	6.958789852965517
O	12.11367001482931	-1.906034819934482	3.293404172965517
O	11.56840861482931	1.7615301900655176	2.4889322429655167
O	9.73473156482931	0.8849962130655176	-0.6740733540344832
O	12.98621941482931	0.13983335826551763	-2.501395557034483
O	11.92766511482931	4.3831639600655175	-4.945568027034483
O	14.95114141482931	3.253683080065518	-6.910165657034483
O	2.4402409548293105	-0.4788159929344824	-8.596238687034484
O	-1.2597011151706894	-0.7144171549344824	-9.251555797034483
O	-3.1240139151706896	-2.112293189934482	-6.294749517034483
O	-6.550473815170689	-3.4343363499344823	-5.325720377034483
O	-7.465619265170689	-5.283811369934482	-2.072402217034483
O	-6.67633642517069	-5.3505886299344825	-9.432673007034483
O	-2.9746740851706894	-6.0651264999344825	-10.189340987034484
O	-9.46276644517069	2.0207238200655175	-8.576011897034483
O	-11.921847485170689	0.8541512880655177	-5.922768587034483
O	-9.31931906517069	-0.0625207919344824	-3.2340542070344833
O	-5.817717215170689	1.0451613070655177	-2.573244737034483
O	-2.4702032451706897	1.4946232700655178	-4.280560827034483
O	-0.7847009981706894	3.7749020200655177	-6.7864365670344835
O	2.9794394648293103	3.7143187000655176	-6.9501097470344835
O	0.7904691948293108	12.261750040065516	8.529692502965517
