84

O	2.8099871895593225	-1.725257285762712	-3.903080420322034
O	2.1576495395593227	-1.436374695762712	1.320253019677966
O	-4.568400790440677	0.8878876922372881	0.4236043696779659
O	-1.9130712604406774	0.3227568212372881	4.021751689677966
O	-1.5369787814406775	0.603110701237288	2.661033729677966
O	-2.7651519304406778	0.6353301572372881	2.118740649677966
O	-2.8656212204406777	0.8073172852372881	0.8088884896779658
O	-1.7323232544406775	0.7246027432372881	0.053287459677966
O	-0.43220136044067753	0.3492357352372881	0.528428469677966
O	-0.45802696844067753	0.3795333332372881	1.900264299677966
O	0.6951437195593224	-0.06855083576271181	-0.3167794783220341
O	0.7821953095593226	0.4488323222372881	-1.611996457322034
O	1.8015934095593225	0.29428435923728813	-2.507660230322034
O	2.3200205695593223	1.396550496237288	-3.195576250322034
O	2.2260524395593224	2.5906297942372882	-2.349728220322034
O	0.7725831795593225	2.729587554237288	-2.035412784322034
O	0.20519695755932243	3.8507335142372883	-2.6625517603220343
O	1.2308049295593224	4.475548054237288	-3.440015240322034
O	1.6620239295593224	3.7264111142372878	-4.661997950322034
O	0.5758377395593224	3.666375764237288	-5.517067880322035
O	-0.5358905014406775	4.257689864237288	-4.954951440322034
O	-0.8822993994406775	3.7080354142372878	-3.572047990322034
O	2.5305798295593225	-0.899261365762712	-2.491562450322034
O	2.5930915795593226	-1.490559885762712	-1.274277526322034
O	1.6294499995593226	-1.0966551957627118	-0.2646051473220341
O	14.473490169559323	-2.1317149157627115	-5.320934640322035
O	6.931347819559322	6.341378424237289	4.507940669677966
O	4.877011099559322	3.353259814237288	5.718013949677966
O	2.9576644095593223	5.389436854237288	8.323819369677967
O	2.0691218795593227	7.905605514237289	5.612791429677966
O	0.8384421195593226	5.007820684237288	3.342065499677966
O	-1.3169373444406776	3.936805674237288	6.312214739677966
O	-2.6642440804406773	7.392674954237289	6.7839021196779665
O	-3.6943074604406774	7.656242124237289	3.0951969896779663
O	-5.490938720440678	4.297451074237288	3.4299574096779657
O	-7.237622800440677	5.3927810842372885	6.609144949677965
O	-8.279801230440677	8.679406714237288	4.873639569677966
O	-9.685958880440676	6.545369424237288	1.971965379677966
O	-11.949670030440677	4.306727304237288	4.049900719677966
O	-15.772477330440678	6.197793654237288	1.503534159677966
O	4.979850319559322	-4.655356085762712	11.904694109677965
O	3.0399626395593224	-1.5866333057627118	10.827139509677966
O	-7.420692190440677	1.4927471152372882	6.448340979677965
O	-9.090642850440677	0.5605180852372881	3.219104489677966
O	-7.006984730440678	-2.5135463257627118	2.490639709677966
O	-5.924493440440678	-3.9138550957627114	-0.8437866173220341
O	-7.678621400440678	-6.183518825762712	-3.347901320322034
O	-5.896362140440678	-8.965771795762711	-5.244142190322034
O	-5.924447160440678	-6.652688085762712	-8.297359670322034
O	-4.039781150440677	-3.9771341757627114	-6.415139190322034
O	-1.3372745364406775	-6.444769205762712	-5.325064450322033
O	-0.6313923824406775	-8.130871965762712	-8.632730860322035
O	-1.3369044164406776	-5.340011075762711	-11.012458430322035
O	-2.5082664704406774	-1.9217001057627117	-10.011233340322034
O	0.23476296955932252	-0.9310556857627119	-7.551836260322034
O	2.9347516295593223	-1.956513435762712	-10.024703620322034
O	1.2716312495593223	-0.08926408576271183	-12.882484890322033
O	1.1220874495593225	3.1833860142372883	-10.892472900322034
O	4.596433489559322	2.6034626642372882	-9.439665430322034
O	6.917551949559323	7.184724344237289	-9.870513390322033
O	9.927699069559322	4.886846434237288	-9.994899820322035
O	7.708666719559323	9.426214774237287	-0.9487488003220341
O	7.342630949559323	12.530811904237288	-3.1651893503220343
O	7.2405266795593235	9.95456838423729	-6.0396746103220345
O	4.473996249559322	7.791618064237288	-4.491350040322034
O	6.877682329559322	4.745087484237288	-4.114131600322034
O	7.827798659559322	5.126036444237289	-0.4415902043220341
O	6.805841189559322	1.5298048792372883	0.23340741967796585
O	10.049093969559323	0.22593560723728812	-1.281745660322034
O	12.065114969559323	2.112662924237288	1.323667269677966
O	11.091167769559323	-0.8752621057627119	3.485710979677966
O	14.026083669559323	-2.522328995762712	1.7739434296779657
O	2.0651341595593227	-7.6580266157627115	3.517467619677966
O	-1.1952174474406776	-9.032622995762711	4.8741185596779655
O	-4.1728202904406775	-7.069269115762712	3.627503239677966
O	-7.965094990440678	-7.237715945762712	3.5550798696779657
O	-10.340828160440678	-4.996412635762711	1.521167089677966
O	-7.496621220440678	-11.707326495762711	2.872459899677966
O	-4.158466160440677	-11.96628829576271	0.986281949677966
O	2.0302463095593226	-10.620551995762712	-0.46538287032203407
O	-6.735642890440678	-3.073148415762712	6.5830727496779655
O	-3.0663353504406774	-3.7837476657627116	5.9611390996779665
O	-0.11968244944067752	-5.169758355762712	8.053363629677966
O	3.3627378195593223	-4.650314615762712	6.662751599677966
