29

O	0.06375781863952007	9.280992869283402	24.119985334407616
O	-1.3977088685843004	9.391834246927782	24.483286292062147
O	-1.2123703193056363	10.794657734451867	24.443022334298096
O	-0.2040632606129718	10.410167412688665	25.26774411224215
O	0.9427451587073135	9.454486048046645	25.048143170637182
O	0.4281726139667314	8.210661617475143	24.977619787968855
O	0.8447658028683647	9.181547620357136	22.972889906950346
O	-2.602388149903018	11.108769839083719	24.679624140530507
O	-0.45744704666877206	9.809584985694048	26.661232349792854
O	-1.1822244791401912	9.327747318589154	27.71945443240081
O	-2.1764854205187185	10.010937726295097	27.10380656593669
O	-1.3142314620918727	11.070106900060773	26.46087623586711
O	0.09605804578300275	10.86051612161696	27.040603453701653
O	1.435930037360875	10.90014794053852	26.40110002066919
O	2.563925690376034	10.162026637658686	26.64355759673704
O	3.7656048443292747	10.070556930508962	26.047192420938895
O	3.9950675677255028	10.541881141615347	24.775118617580112
O	3.000871150844209	11.358208448839095	24.39641119120709
O	1.9748517612283403	11.733659941831757	25.295590936799083
O	-1.6745753933654643	11.925777291928561	27.24641419945174
O	1.8374796704563006	7.200789804915655	25.11191547204438
O	3.09146402258417	7.584787587304842	24.610806799776228
O	1.704482781215339	5.782120945845751	25.10095967663605
O	1.9434813778858586	7.072848908212797	26.800874208682874
O	0.7589341829547755	6.777374794045494	27.369213772683818
O	3.2482291384457187	6.549073721114104	27.025480470518225
O	4.406989617862058	7.379542093532143	27.22494999654956
O	3.8071562408690767	5.826849019400187	25.75538421536997
O	2.1648026669735536	9.549024739826953	27.815691519850905
