93

O	-0.7905133918744931	-2.610020104949275	-0.6931801214057971
O	-1.3266565645144932	-1.459000564949275	-1.268395201405797
O	-1.404576638514493	-1.562562374949275	-2.674801068405797
O	-1.5157880455144932	-2.923109664949275	-2.739927318405797
O	-0.8070240681144931	-3.451821054949275	-1.7570712174057972
O	-1.5994837365144932	-3.5137972449492754	-3.861197748405797
O	-0.7978750881944932	-0.6744786649492752	-3.514673148405797
O	0.03463180748550687	0.31143592305072487	-3.311354948405797
O	1.4977351024855068	0.12840316805072483	-3.6019642784057972
O	1.8166944524855069	-0.4620211549492751	-2.3677884784057968
O	1.996520482485507	-1.8909057449492752	-2.440137348405797
O	1.6456356224855067	-2.659124164949275	-3.550607418405797
O	1.9179717124855067	-2.020558914949275	-4.757429568405797
O	1.6589424024855068	-0.6381221849492752	-4.706438178405797
O	1.4372055324855069	0.3849052250507249	-1.2263570924057972
O	1.5156472224855069	1.1808611430507248	-0.31588908740579713
O	1.794223752485507	2.392226715050725	0.46641974159420285
O	3.0587705424855067	2.985963955050725	0.678332141594203
O	3.4966018824855065	3.209551915050725	1.949425181594203
O	2.620411722485507	3.709309255050725	2.814074351594203
O	1.3095299924855066	3.403524525050725	2.578476181594203
O	0.9470877224855069	2.8603126550507247	1.4162365715942031
O	4.9263610424855075	3.019634075050725	2.131929201594203
O	0.4667484124855069	3.863242545050725	3.6155024715942026
O	0.23308175248550678	-14.800790854949275	-4.929017528405797
O	-7.6978255175144925	-3.896041294949275	-11.343701248405797
O	-5.321868257514493	8.590769785050725	-3.411941288405797
O	-4.964495937514493	6.617564125050725	-0.1607161514057971
O	-4.474884007514493	9.761895705050724	1.979778361594203
O	-1.7277951085144931	10.858031755050725	-0.41380981340579703
O	-0.07438226751449317	7.405473605050725	-0.10655253140579712
O	-0.19883919051449317	7.8140873650507245	3.6412291515942026
O	1.2770956824855069	11.338583045050724	3.4280328715942026
O	4.228344812485507	9.964211495050725	1.323159371594203
O	4.831557002485507	7.250187325050725	3.894231461594203
O	4.678737872485507	9.751195445050724	6.715657781594203
O	7.162134892485507	12.061850445050725	4.858105481594203
O	9.489790522485507	8.987305805050724	4.499179441594203
O	9.671989722485506	8.106222285050725	8.232663001594203
O	-13.708626977514493	2.440514515050725	6.042767541594204
O	-10.183296187514493	2.2795843450507247	7.4007780615942025
O	-7.367205977514493	4.658653105050725	6.488486101594203
O	4.104803002485507	6.227020905050725	8.257724741594203
O	7.065897682485507	4.1252481250507245	7.361187891594202
O	5.121295662485507	0.8929318458507248	6.889187921594203
O	5.896004042485507	-1.9083530549492749	4.5403100415942035
O	8.166360792485506	-4.936578164949275	4.668177751594204
O	7.179772842485507	-8.346314944949276	3.354061141594203
O	9.386810022485506	-7.605052914949275	0.32536961159420286
O	7.354880002485507	-4.510470174949275	-0.5196114634057971
O	4.087842972485507	-6.425731104949275	-0.3866687724057971
O	5.048023012485507	-9.491204054949275	-2.4303824984057973
O	7.5432019124855065	-8.030504044949275	-4.796440818405797
O	8.623737842485506	-4.450161444949275	-4.741961478405797
O	5.633555552485507	-2.572792004949275	-5.125504458405796
O	4.312337502485507	-4.866477424949275	-7.961599768405797
O	7.671236812485508	-4.394061634949275	-9.791125058405797
O	7.327855992485508	-0.549687934949275	-9.620047558405798
O	3.6106610324855066	-0.7183296149492752	-10.476956068405798
O	2.8263684924855066	3.007846575050725	-13.921757348405798
O	-0.0066086975144931115	0.6481685730507248	-14.847488548405797
O	-2.2352890775144933	8.846392465050725	-8.922172698405797
O	-0.07977444451449311	10.675519385050723	-11.503365648405797
O	1.0550772824855068	7.126053555050725	-12.441232248405797
O	1.9533678624855066	6.015546375050725	-8.823025318405797
O	-0.8463934160144931	3.340946705050725	-8.837426508405796
O	-3.547069567514493	5.252023435050725	-6.925059708405797
O	-3.8813887275144934	2.471104395050725	-4.402133568405797
O	-5.872679667514493	0.3009373240507248	-6.809355188405798
O	-8.554582537514493	3.004279705050725	-6.960582118405798
O	-9.654101887514493	1.423636086050725	-3.652922018405797
O	-11.386990577514494	-1.040084154949275	-5.9319649184057965
O	-9.165095477514493	-4.620529314949275	0.6656280015942029
O	-7.118806897514493	-5.6457369649492755	3.704099881594203
O	-3.827052887514493	-3.940640864949275	4.502576201594202
O	-2.186216127514493	-4.300408084949275	7.846902191594202
O	1.3049506824855066	-2.880856504949275	7.921307381594202
O	4.362350862485507	-2.771937704949275	10.131287051594203
O	7.849241862485507	-1.506933254949275	9.197234251594203
O	3.4624959224855067	-7.115391104949276	11.133209551594202
O	1.756766552485507	-8.427433704949276	7.949336171594203
O	-1.7582855315144932	-8.723477784949276	6.598129601594202
O	-2.154351877514493	-8.322472184949277	2.811053471594203
O	-9.067588607514494	-8.854273824949276	-6.939262728405797
O	-4.618969157514493	-12.997508854949276	-6.646218748405797
O	-3.6953760875144934	-11.550540354949275	-3.2577800084057973
O	-0.0362823285144932	-12.275843854949276	2.6352351515942027
O	2.5079737624855065	2.1820495450507247	9.883064351594202
O	-0.20595740451449318	0.9769930677507248	7.431343301594202
O	-3.993201347514493	0.49733788705072485	7.831918851594203
O	-5.974860457514493	0.07019862305072488	4.681224741594203
O	-9.332459127514493	-1.522219494949275	5.5024345015942036
O	-11.867000877514494	-0.9715260449492752	2.7117114415942027
