80

O	0.9591566634866664	-4.617333571111167	-1.0298872167333337
O	0.14702793348666665	-3.331715161111167	-0.18483049073333363
O	-0.33650660651333353	1.283608657888833	-0.49772372923333363
O	0.5329197834866666	-3.077184041111167	1.1013592802666665
O	-1.3013551225133335	2.105675948888833	-0.31961101073333364
O	1.0092870534866665	-4.1265420511111675	1.8569365302666663
O	0.2971273934866665	-1.886734001111167	1.7775315702666665
O	-2.8692040865133333	-0.312765218111167	-2.5707426497333334
O	-0.20975665651333353	-0.8242326711111669	1.0286380202666665
O	-5.6869619665133335	0.5037257748888331	-2.3133335597333335
O	-0.29590839651333356	0.47681351188883303	1.5435034602666664
O	-0.4755416205133335	-2.381166201111167	-0.9050411707333337
O	-0.6668931745133334	-1.143322931111167	-0.2664647207333336
O	-0.9276139575133334	0.06677054088883305	-0.9780888717333336
O	-2.2378237125133333	1.731288568888833	-1.3013751347333335
O	-2.1515992375133335	0.42523847388883307	-1.6033618597333337
O	-3.8628951665133338	-1.121742301111167	-1.8436015897333335
O	-5.173129916513333	-0.811329601111167	-2.4300092597333336
O	-4.509668666513334	1.3713572498888331	-2.3724120697333335
O	-3.643061766513333	0.637943595388833	-3.3978642597333337
O	-3.1077994765133337	-9.053561961111168	5.676096480266667
O	-0.34967040651333336	-6.515460641111167	5.019788960266666
O	-1.2484166755133335	-4.3398128611111675	8.029580790266666
O	-4.850444416513334	-4.296175641111168	6.784855830266666
O	-3.652177746513334	-3.2376396611111673	3.3067047702666663
O	-1.7198177735133335	-0.44260230111116683	5.024600400266666
O	-4.761235476513334	0.581811355988833	7.064525060266666
O	-6.943159366513334	0.8090189488888331	3.8763203902666667
O	-4.2510579965133335	2.9613091588888327	2.2524280702666664
O	-4.041351576513334	5.216199358888833	5.307335990266666
O	-7.894496916513334	5.509732418888833	5.3404287902666665
O	-7.744422626513334	6.526515508888833	1.6178965902666662
O	-5.266788256513333	9.385435668888833	1.9846251702666664
O	-7.102152926513334	10.496376138888833	5.110497820266667
O	-8.859426146513334	12.335424018888833	0.23444935926666638
O	-7.266668646513334	15.027687618888832	2.4108432902666665
O	7.204516693486667	-2.8463301211111673	11.513351820266667
O	9.520464623486665	-4.453313991111167	6.391659830266667
O	5.9681216634866665	-3.1458272111111674	6.734043470266666
O	5.9916899634866665	0.6061513778888331	6.258638120266666
O	3.006401183486666	2.8620249188888334	5.886218400266666
O	2.406016753486666	6.550472958888832	5.065147290266666
O	-0.8027632675133335	5.793087428888833	3.2060699302666666
O	-1.8658023045133334	6.853583788888833	-0.23363103073333363
O	0.8389267734866663	5.005592238888833	-2.1306983497333336
O	0.6804133334866667	3.381536938888833	-5.547061139733334
O	1.0829787134866666	4.821575738888833	-9.019540289733333
O	2.966922503486666	3.070695668888833	-11.826730479733333
O	-0.4619976345133334	2.236562068888833	-13.310186879733333
O	-1.4905530237133335	0.4444476468888331	-10.134249629733334
O	1.6765284034866668	-1.644491041111167	-10.112550789733334
O	1.7019802234866666	-2.7950414711111673	-13.734484079733333
O	-4.648274646513333	-1.9721240811111669	-12.020095779733333
O	-3.8711551865133336	-4.229913811111167	-9.077723619733334
O	-8.199361596513333	-11.212056981111168	2.6113916702666664
O	-11.988426876513333	-11.633073681111167	2.1969816202666665
O	-11.125650406513333	-11.879054881111168	-1.5445259997333336
O	-9.045351576513333	-8.612289201111167	-1.6437770697333336
O	-5.786724996513334	-10.625737481111168	-2.5013583897333334
O	-4.197999516513334	-10.824430281111168	0.9637033802666664
O	-0.9881439555133334	-9.305336831111168	-0.3559654297333336
O	0.05479312348666654	-12.611836581111167	-1.9134225497333335
O	3.4551215134866666	-12.523283081111167	1.7679509002666665
O	4.630208383486666	-15.568762781111168	-0.1361277057333336
O	7.521735043486666	-2.977840661111167	-2.6555884697333334
O	8.698587423486666	0.605415753458833	-2.5976427497333336
O	5.863366363486667	3.044306248888833	-3.0535504197333334
O	5.191901143486667	6.715725878888833	-3.7015082997333337
O	1.8350010334866667	8.338883088888833	-4.635253529733333
O	8.800004223486667	6.602742638888833	-6.466534509733334
O	8.795699523486666	2.9877388188888334	-7.770072549733333
O	8.197585143486666	-3.4391376411111674	-7.5625492097333336
O	9.970900323486667	8.297818898888833	1.1720046402666664
O	7.5847105634866665	11.243710318888834	0.9423525102666663
O	4.388253703486666	9.216475968888833	0.36818054226666636
O	3.345789863486666	5.684907228888833	1.1462126802666663
O	4.447599453486666	2.091195808888833	0.7679324602666664
O	7.119997533486666	-0.2121933231111669	2.2091361202666664
O	6.688152573486667	-3.926865981111167	1.6970108802666664
O	-6.103076346513333	-0.979967441111167	13.745864920266666
