31

O	2.2144222769771424	12.14284472862649	23.051668921179296
O	-0.030305758151573103	9.264676303561375	28.510655617647206
O	0.8113251662749685	8.315561844208172	28.09699462427132
O	0.8683984314467379	8.238730999921916	26.691817242037487
O	-0.008424644981932516	9.275312190988672	26.386437066024325
O	-0.791934849632965	9.530893537356189	27.476653110374283
O	-0.2779149222388537	9.969558187339047	25.154701418610703
O	0.8060578221309456	10.616768017452584	24.546646719700224
O	0.6113552968729405	11.470253408608396	23.447334242728527
O	-0.6068040648076318	11.710373748534355	22.90051883438787
O	-1.6685272946779428	11.341428835791914	23.643817771475632
O	-1.474744055254099	10.606311446124352	24.77692275291063
O	1.1335064446622267	6.972175724342287	26.12813160083247
O	0.7286695629256204	5.685764023141875	26.77294317406454
O	1.0423600498864234	4.345570193666855	26.33544224862262
O	2.2732136278423196	3.8973460696996973	25.905983834002093
O	2.9371541492343063	5.177598656768478	26.277544568241126
O	2.4349095428043572	6.441028140261517	25.684922648139178
O	2.7362398020481242	4.218847765335292	24.623977468859373
O	1.568236246558373	5.123780538841076	24.09841779122173
O	-0.6766230935758744	12.76758487884778	22.02088449848049
O	-2.5883200777081568	10.136400325583036	25.413619067567392
O	0.20686954402771018	4.704363567641453	24.362586070808696
O	-0.4313859490409775	3.456894240749749	24.15101573111244
O	0.2213869073661825	2.6717976969557924	23.19937161636258
O	0.6230391971307645	3.594727391094807	22.27796793020192
O	1.382546730742888	4.640778331377535	22.806929882240517
O	0.3870679772717205	0.9640676435010853	23.137885552128267
O	0.37023284066473616	0.6013774598112338	21.69096408876508
O	-0.7062820908148892	0.2032198596414645	23.780897370696934
O	1.8857739298676486	0.5556614308663885	23.97844823018636
