31

O	1.7080287351465033	8.982867346360088	25.61525113030482
O	1.202616754846287	7.969763321560812	27.38343686640839
O	2.1244100116386173	7.1386737469593715	26.786450289669737
O	0.8831142668114532	7.920404684496667	28.562933855102177
O	0.4944145415659288	8.904765061989078	26.61403187651796
O	1.0738868561420865	9.409417916068726	24.52443085649269
O	2.891803673865247	9.355761443794783	25.890959721417207
O	-0.7263226868559913	9.363885996322118	26.24397782538158
O	2.0264521718587636	9.775863428523493	23.510809645523267
O	-0.13058036868386025	10.191741944567983	24.270263511576427
O	3.5754313819128156	10.289022686127929	25.277128157868407
O	3.3287211557261327	10.289225984980275	23.952787765329937
O	-1.1772062085433703	9.921536864058435	25.212775744284173
O	-2.0823021303939657	11.029898867362668	25.276161003231188
O	2.5587877939038792	5.758241168667501	27.008701237395243
O	1.682359734493278	6.690998322844373	25.387779084116914
O	3.0809872517688435	6.590529140723136	24.97227313097313
O	3.6922882219492683	6.233847398124672	26.12926237358053
O	4.957760183083556	6.617057885649275	26.311626795841278
O	5.591432323566906	7.565716565033876	25.515321310118615
O	5.075513649440172	7.542777923100397	24.257143207629273
O	3.8513657470393845	6.959291351411429	23.916195954809133
O	3.5345309704895604	10.536079249415742	27.5456713942324
O	4.085660145475339	9.239283343089552	27.822669575144964
O	2.451608445158082	10.597494974035556	28.321718858886946
O	3.992786848613307	8.399016980675754	28.897695731736054
O	3.758933109801092	7.102349307797079	29.42939942045274
O	2.632190921187386	10.936774068480467	26.378255171286845
O	3.180722115164104	12.35019703559372	25.757295701125482
O	3.1854855985439876	12.352333318118374	25.76177167683751
O	1.6628342166471972	12.548703316981364	25.638683310401376
