12

O	1.3271490208565213	8.483053917239818	27.88701374044962
O	0.6319958856825889	9.451795507300378	27.00508165936046
O	1.1235090228642974	10.09659364951582	25.875960331407352
O	2.594377032958582	10.435101727797237	26.00667415598996
O	3.217358593505352	9.603884630761431	27.136109908817012
O	2.736772032154598	7.910464457251763	26.85405275136138
O	-0.6783418846261844	9.214507261920403	26.948174051913664
O	-1.4675512025268225	9.941294307643426	26.10384813226282
O	-1.0261056448940493	10.731234153649226	25.08394123126714
O	0.21892761003935468	10.970781015765121	25.43294132544712
O	-1.6757943007986584	11.440547789876549	24.116858915973953
O	-1.2738024858957482	8.621803805490131	28.215799060457112
