12

O	1.0158462403192594	10.578910940695003	25.917746835977212
O	-0.14070279002873165	10.823194158857907	25.000361271422406
O	-1.5209195849182533	10.714226198104376	25.42423917881356
O	-1.7331791241826129	10.185253717066576	26.586720890757785
O	-0.6439585710951735	9.525105965506146	27.185602523121215
O	0.5856927721190157	9.834247134055166	27.099403670876256
O	-0.19727814210766081	11.526734277591988	23.905209490390785
O	-1.5207784333568042	11.609214463713533	23.423032987008234
O	-2.2810896937663356	11.351366260740667	24.420337389166534
O	2.113478598641153	9.840704820876022	25.382271813389565
O	3.017069090351218	9.504685338849747	26.483549080257255
O	2.9335968088566085	10.477482535261833	24.405063565989142
