10

O	-1.745900374149442	10.585628919287062	23.554032336856274
O	1.3689936303770258	9.476825252310533	26.281614676074746
O	-2.082724852284091	10.856985621055044	24.745857972995182
O	-0.5154852728878636	11.074161281297652	23.219425365380342
O	0.46978421043571617	10.912941181614388	24.122493021203297
O	0.1810697507591954	10.444652306355266	25.329467047255903
O	-1.144228946734692	10.36406160979872	25.650964801241628
O	-3.270518291824855	10.77636462343306	25.168740123778385
O	1.7163565842810407	7.916823682091097	25.451060842269264
O	-0.6186773313423946	12.213233642726342	22.246253830251295
