80

O	0.6583638637728823	-1.4562385305932202	3.567343127527119
O	-0.1117890982271178	-0.5066146965932201	2.975752147527119
O	0.08265517377288223	-0.29726397559322004	1.681102027527119
O	0.6690446237728821	-1.24289689059322	0.7501295575271187
O	1.2956147237728821	-2.12208052059322	1.501505607527119
O	1.516444483772882	-2.2238454805932197	2.8202038175271187
O	1.111130403772882	-1.38439898059322	4.892564377527118
O	-0.2739631192271178	1.01626503040678	1.2924091575271188
O	0.6111215037728822	-0.7970130485932201	-0.6064078474728812
O	0.5204565637728823	0.49301010240677995	-1.0973278564728812
O	-0.6794720312271179	0.8917581414067799	-1.3394592674728811
O	-1.1383321882271178	-0.28335802659322	-0.6255724374728813
O	-0.4139297332271178	-1.22528920059322	-1.4345900124728812
O	-0.6272336962271178	-2.49632676059322	-1.992071162472881
O	0.5712955637728822	-3.24816704059322	-2.202255132472881
O	0.3988697837728822	-4.39723612059322	-2.988746912472881
O	-0.4287463472271178	-5.3578484305932195	-2.3449879724728815
O	-1.653958357227118	-4.71699359059322	-2.0666392024728815
O	-1.5687846582271177	-3.4405731505932198	-1.5023896524728813
O	-2.0856224662271177	-0.15826984959322005	-1.5840929624728812
O	1.763532233772882	-2.72687367059322	-1.7567543324728812
O	-2.673267536227118	-6.54539236059322	8.73374734752712
O	-0.9296489728271178	-3.3451706605932197	7.648114257527119
O	-3.986169656227118	-1.12630335059322	8.281651737527119
O	-5.970453356227118	-3.5319261905932198	6.101912497527119
O	-3.318304666227118	-3.31290556059322	3.344876777527119
O	-3.603405356227118	0.44695134440677997	3.5945087475271187
O	-7.377211746227118	0.32200058340677995	3.4791232675271186
O	-7.331213096227118	-1.8129225305932202	0.3209155725271187
O	-4.988678546227118	0.7605875514067799	-1.2283070924728812
O	-7.133597056227118	3.6131399294067803	-0.29503550507288123
O	-10.151213886227117	1.70502513940678	-1.7949950324728812
O	-8.101067226227118	1.1946709394067798	-5.065001202472882
O	-7.278141926227118	4.88890308940678	-5.643642912472882
O	-10.800551906227117	5.8049325494067805	-4.649247622472882
O	-12.301763706227117	3.4134056594067803	-7.239582892472882
O	-9.787604176227116	4.48490570940678	-9.897959332472881
O	-10.619811206227117	8.183043309406779	-9.376687602472881
O	-0.0170351922271178	5.90617229940678	12.820009127527118
O	1.935865543772882	3.34188526940678	9.110005417527118
O	1.195009263772882	5.9782324494067804	6.538736767527118
O	-1.467512756227118	5.87127530940678	3.9142095975271185
O	-2.460185386227118	8.04826237940678	0.9299522975271188
O	-3.613436406227118	5.09147310940678	-1.0886241054728811
O	-2.6890663462271176	4.06648494940678	-4.589889682472881
O	0.9896863037728821	3.4781639994067803	-3.943888342472881
O	3.3233550237728817	0.9169345614067799	-5.437902812472881
O	5.268842223772882	1.02862449940678	-8.697382732472882
O	8.820502203772882	-0.24531866859322005	-9.112918262472881
O	7.279604643772882	-3.29485423059322	-10.846483672472882
O	5.147313823772882	-4.08551572059322	-7.778416232472882
O	8.216381973772883	-3.9045206805932198	-5.5249518324728815
O	10.654940293772883	-6.03868013059322	-7.497515542472882
O	4.555744733772882	-8.30915150059322	-8.892194912472881
O	4.094772333772882	-8.60425666059322	-5.162704502472882
O	-4.119109616227118	-12.08305892059322	6.050757597527118
O	-6.632789436227118	-14.652985820593221	4.7279530575271185
O	-3.717459436227118	-15.68824992059322	2.4331792775271186
O	-3.0195929662271177	-12.115678720593221	1.1257739875271189
O	0.5376382937728822	-12.09535742059322	2.762557687527119
O	-0.23729743622711785	-10.125253420593221	5.918433247527118
O	2.547911303772882	-7.67372603059322	5.175160137527119
O	5.174552153772882	-10.14619292059322	6.417726967527118
O	5.554653483772882	-6.88171576059322	10.203398927527118
O	8.419060083772884	-9.19604108059322	11.055791227527118
O	8.565657673772883	0.97600985540678	2.7014405275271187
O	8.470639353772883	4.38305051940678	1.053261817527119
O	5.919658663772882	4.50909884940678	-1.7260297424728812
O	4.745505043772882	6.64858862940678	-4.607722932472882
O	2.295687213772882	5.66770688940678	-7.389910192472882
O	9.145804403772884	7.5755730294067805	-5.311100902472882
O	10.924726593772883	4.38433823940678	-4.112387982472882
O	5.060509053772882	12.202813079406779	-0.33709246297288126
O	2.566159133772882	13.03672667940678	-3.078680322472881
O	1.0441819837728823	9.52622333940678	-3.397483262472881
O	0.7813289237728821	6.55507881940678	-1.0985593554728812
O	2.821981713772882	4.27994348940678	1.1092639175271188
O	4.609923773772882	4.49479058940678	4.439570607527118
O	5.565598893772882	1.26929386940678	6.070088267527118
O	-11.907607106227116	0.76086775340678	8.760178317527119
