76

O	-1.2729997495172416	0.4209493233275867	-2.990848840275862
O	0.5111898054827586	-4.344351370672413	-4.465378390275863
O	-0.2723658575172415	1.6409009493275866	0.6012047297241376
O	0.6348907254827585	1.3357553393275867	1.560097099724138
O	-1.9529355645172415	-4.689000240672413	-2.7244965602758624
O	-0.48592290251724146	-0.6304340446724133	-0.09283067627586233
O	-0.8298505440172415	0.6907063643275867	-0.1922228042758623
O	0.2835705854827586	-0.8831652306724133	1.0497056197241377
O	-0.37151915251724144	3.0235860593275867	0.3926152317241377
O	0.6205421954827586	0.08900920432758672	2.020849149724138
O	1.6963077454827586	-0.18193259667241327	3.0460939197241377
O	-0.6513337465172415	-1.5483422906724134	-1.2331509522758624
O	-0.5214018145172414	-1.0861997006724133	-2.5539536602758623
O	-0.3588148105172415	-1.9645889106724135	-3.6435208802758625
O	-0.15136310051724144	-3.2885522906724134	-3.256260180275862
O	-1.0980862735172414	-3.716027080672413	-2.319157970275862
O	-1.2561880555172416	-2.8113973806724135	-1.2431132922758623
O	-1.8262466615172415	-5.320140720672413	-4.003675540275863
O	-9.822424104517243	2.3423743893275866	-2.4158975402758625
O	-6.334090404517241	3.8798699993275867	-2.5865411002758627
O	-7.099036254517241	6.537714719327587	0.06246500372413766
O	-8.337033334517242	3.7654490893275865	2.3573822597241376
O	-5.094870574517241	1.7770097993275866	1.735621139724138
O	-3.2297823645172414	5.000607269327587	2.732052649724138
O	-5.291573134517241	5.394619079327587	5.838815619724137
O	-4.554856354517241	1.7675436793275867	6.951752329724138
O	-0.8195454206172414	2.331477939327587	6.334074929724138
O	-0.9534691934172415	5.616565239327587	8.330027069724139
O	-2.8329164845172414	3.8217520793275868	11.171350909724138
O	-0.05171166551724149	1.1370588693275867	11.176326709724139
O	2.8918317354827585	3.5171477593275866	11.592361909724138
O	3.8541800554827588	1.2117769023275866	15.881111809724137
O	-0.5222443285172415	10.504482989327586	-7.615101390275862
O	-1.7594956225172416	9.408998799327586	-4.199089100275862
O	0.9387142954827585	10.122918099327586	-1.6227722502758624
O	0.9961752654827585	8.975556639327586	1.9809681097241378
O	2.2922519954827587	5.6673180093275874	6.173319169724137
O	4.340430525482759	2.684700339327587	7.1195955697241375
O	5.647308035482759	1.9585579693275865	3.6287616297241376
O	6.395695555482758	-1.4038115106724134	2.0629758097241373
O	9.481879125482758	-3.6155884806724132	2.203761449724138
O	9.248400425482759	-8.640428440672414	0.7089620897241378
O	5.802725175482758	-7.038243140672413	0.6754103997241376
O	6.203321945482758	-6.102180920672413	-3.0065552902758625
O	7.440741015482757	-9.377415470672414	-4.433656180275863
O	5.797310935482759	-11.818339310672414	-2.1196378102758624
O	3.6173934354827586	-10.863609710672414	0.7779209397241378
O	0.9880317254827584	-8.759846090672413	-0.9089759032758623
O	0.46633892548275857	-11.407050210672415	-3.589160690275862
O	-2.5225371545172415	-12.378318810672415	0.9654616697241376
O	-4.267279684517241	-11.263971710672413	-2.210296930275862
O	-9.293122804517242	-12.037512910672413	-1.3725741002758625
O	-12.277678974517242	-3.3106662206724136	-0.9806440862758623
O	-14.352860274517242	-5.636274960672413	1.2387310697241376
O	-12.007692174517242	-8.363305880672414	-0.11357223827586233
O	-8.734101404517242	-6.492780480672413	0.7642197797241377
O	-7.778684114517242	-6.165668990672413	-3.0099348102758627
O	-8.922243474517241	-2.5917700606724132	-3.6592580202758622
O	-5.504373724517242	-1.6410937806724133	-4.996522720275863
O	-6.232115794517242	-3.3376094306724133	-8.326804030275863
O	-9.170184854517242	-1.0076538106724133	-8.925954150275862
O	-6.399171024517241	1.3976597193275866	-10.005918300275862
O	-6.666897734517242	-0.4631737606724132	-13.280481890275862
O	4.358570865482758	2.552929249327587	-6.718638520275863
O	7.253067895482758	4.214668369327587	-4.956132370275863
O	7.5518270354827575	3.117081759327587	-1.3596601152758623
O	9.924899825482758	3.3385625493275866	1.5946463397241375
O	9.691505825482759	1.3792139293275867	4.898000099724137
O	11.706731125482758	0.7205081553275867	-4.1905282802758625
O	7.140408695482758	-1.2533739206724133	-8.330511020275862
O	14.177815525482758	10.006203669327586	-1.3914840512758624
O	8.841023145482758	6.985770879327587	4.605385019724137
O	5.5935212454827585	6.081199909327587	2.9367753797241374
O	4.065329075482758	5.220790169327587	-0.41698071527586233
O	3.2186231454827587	7.089122169327587	-3.642601160275862
O	0.9059388554827585	5.442477829327587	-6.112352100275863
