112

O	2.111473506974026	-2.3557768355454543	-1.6700831183168834
O	3.502529246974026	-2.0959349255454542	-2.0151415483168833
O	3.989163216974026	-2.2463279555454543	-0.7288870633168835
O	1.412501536974026	-1.4513192955454546	-0.8787186933168835
O	4.366271276974026	0.12296644445454552	-1.1190242533168835
O	4.451213556974026	0.7198475004545456	-0.002494777316883412
O	3.058238526974026	0.3972113254545456	0.4728111116831165
O	2.434178426974026	-0.5916070655454544	-0.27111558331688346
O	3.6829000469740256	-0.9796909855454543	-0.48507892531688346
O	-0.062108729025974196	-1.1840243855454546	-1.2416821033168834
O	-1.243314643025974	-1.0801252855454546	-1.9939939483168834
O	-0.8506040118259741	-2.1058904755454546	-1.2658971033168833
O	-3.350579593025974	1.2610953112545455	-2.6387268483168835
O	-1.9627620930259742	3.0753373344545456	-2.4566055183168833
O	-2.869274953025974	2.4005807444545457	-3.277198208316883
O	-1.3902564820259742	2.4538795944545457	-1.2891617813168834
O	-1.1534446540259742	1.1311181119545455	-1.3794141613168835
O	-2.374549653025974	0.6868970984545456	-1.9011879183168836
O	-2.239194423025974	-0.5527277455454545	-1.4379381603168835
O	-0.6244022290259741	0.34759219545454556	-0.31855334331688345
O	-1.7466516280259743	-0.34777053554545434	-0.0832964143168834
O	-2.434403613025974	0.4741883474545455	0.7480927516831165
O	-1.4228581460259742	0.7836287154545456	1.7310028216831168
O	-0.13444356802597413	0.8472090954545456	1.4619104216831165
O	0.5721581969740258	0.7689367714545456	0.33391841868311656
O	1.1150800669740257	1.4303037084545456	-0.7386190553168834
O	1.9593183069740259	1.6341563924545457	-1.6912009183168832
O	0.7886283069740258	1.8458650394545457	-1.8969866783168836
O	0.3794442069740259	1.2601984518545455	-3.0810764183168833
O	1.4247143369740258	0.7436063414545455	-2.5995620783168834
O	2.258103956974026	0.15915653445454558	-3.540594678316883
O	1.569931836974026	-1.0097989855454546	-3.6393455683168834
O	0.16017162797402584	-0.9965274955454544	-4.015186138316883
O	-0.36550742102597417	0.21323503645454556	-3.6622460883168833
O	-0.7331184166259741	-1.1689550255454546	-5.036613158316884
O	13.186221046974024	-2.6392279855454546	2.4949004516831166
O	13.787607946974026	1.1583099466545457	2.1666300216831167
O	10.853748846974025	3.2227633044545456	0.8014201316831165
O	7.626291066974026	8.192917014454546	-0.3458165813168834
O	9.552476846974026	8.449735394454546	2.9186103616831165
O	5.593129906974026	12.113033424454546	1.9308326216831166
O	5.070297546974026	9.803429454454545	4.887750891683116
O	-8.951547233025975	6.730991734454546	0.6941095016831166
O	-8.591072713025975	3.0833263444545453	1.7282966016831165
O	-12.219106453025974	2.2590319244545456	0.7801255716831165
O	-11.540812853025974	3.7467095744545458	-2.6470947183168834
O	-8.245460003025974	1.6251182094545455	-2.9642932583168835
O	-10.433425983025975	-1.3437050655454543	-2.1310921683168833
O	-13.203069853025974	-0.3726379355454543	-4.631603608316884
O	-10.531141963025975	-0.0709537655454544	-7.422447738316884
O	-9.204524033025974	-3.5190426255454543	-6.496852288316884
O	-10.262129153025976	-4.992645345545454	-11.194379908316883
O	-9.384745433025975	-0.7017172755454544	12.507210691683117
O	-9.205440833025975	-3.1407006055454545	9.633349291683118
O	-10.331958053025975	-2.4656319455454545	6.0783828316831165
O	-7.786349793025974	-8.546064605545453	-6.763570608316884
O	-5.073825253025974	-8.637330895545453	-4.100904008316884
O	-1.3762881030259742	-7.8386527455454535	-4.427420978316883
O	1.590074686974026	-9.947537475545456	-5.591305928316884
O	5.026614746974026	-9.833172675545455	-3.995083468316883
O	6.140271656974026	-7.686830475545455	-7.010905318316884
O	3.4480583069740263	-5.089050465545454	-6.335056028316884
O	4.581706186974026	-5.009380055545455	-2.7540796783168835
O	8.320689776974024	-4.512815955545454	-3.083939738316883
O	8.504630746974025	-2.7506226555454543	-6.397609068316884
O	5.569573556974026	-1.8080605555454543	-8.507698308316883
O	3.5503057469740256	0.3864649954545456	-6.166868968316884
O	6.602494486974026	2.3802605244545454	-5.145649328316884
O	7.528398716974025	2.9672856644545456	-8.789492878316883
O	3.997079426974026	4.387734934454546	-9.574008858316883
O	3.8222923369740256	6.286788204454545	-6.269759168316884
O	7.038118446974026	8.303429564454547	-7.052757858316884
O	5.263353016974026	10.638551724454544	-9.545695818316883
O	2.036214246974026	10.944172584454545	-7.533523258316884
O	4.043420646974026	11.904769724454546	-4.440220968316884
O	2.8243049869740258	16.101463124454547	-7.839326978316884
O	-6.233894753025974	10.591250274454545	-3.493534648316883
O	-6.296849703025974	12.787623124454544	-6.644877938316884
O	-2.5498475230259743	11.889402124454545	-6.819798448316884
O	-3.063415563025974	8.087387134454545	-6.525560388316884
O	-1.1895624600259742	8.094899254454546	-3.047417558316883
O	-4.185823993025974	7.951387044454545	-0.7002441239168834
O	-2.957097213025974	4.945546254454546	1.1603294316831168
O	-0.36945315702597414	6.932518424454545	3.0019029716831165
O	-3.364702293025974	5.865378454454546	6.898320941683116
O	-0.5070124160259741	7.516126314454546	8.738168951683116
O	-2.110589023025974	4.832634124454545	12.611491591683118
O	0.057596902974025865	-0.3567236555454545	9.390500691683117
O	-0.0625424400259742	-4.090077435545455	8.571512261683116
O	-1.323105764025974	-5.316556835545454	5.205719751683116
O	-2.260242633025974	-8.827880575545453	4.500366741683116
O	-2.942594513025974	-9.649075175545455	0.8893779616831167
O	-3.434989603025974	-12.505638275545454	-1.5005996093168834
O	-3.510868923025974	-12.411343575545455	-5.341491188316883
O	-0.26705566402597414	-14.691615875545455	0.9400843216831166
O	2.001292096974026	-11.880475975545455	2.199375331683117
O	2.218021086974026	-9.589458375545455	5.210520911683116
O	3.543335266974026	-6.119177645545454	4.6594657716831165
O	4.228506766974026	-3.7951816955454545	7.560865201683117
O	5.449632946974026	-0.2980318255454544	8.196761831683117
O	7.192680046974026	4.601310584454545	8.698552421683116
O	11.824628146974025	4.995588544454545	6.156698921683116
O	11.473700846974024	1.2197211662545455	5.952534861683116
O	8.860837836974024	-1.4971214355454543	5.538047471683116
O	8.973171746974025	-5.309933105545454	5.818070751683116
O	7.4641274169740255	-8.136811935545456	3.792240131683117
O	-8.017411513025975	-9.803844575545455	-1.3736318383168835
O	-6.401031843025974	-7.2545912655454545	0.9562646816831165
O	-6.776052113025974	-6.389037295545455	4.676013841683116
O	-5.261948733025974	-3.1225535855454547	5.829249921683116
O	-4.872190953025974	-3.2617659855454546	9.643412691683118
O	-4.545725543025974	0.21561702145454553	11.188143891683117
