84

O	1.4141762456885247	2.6754869605409826	-3.6797808888524592
O	1.7027288956885247	3.2100519405409824	-2.335596868852459
O	1.6245076656885247	4.626679710540983	-2.2716677888524592
O	1.3279076856885248	2.2372507505409827	-1.3554533988524593
O	0.5343095256885246	2.101635640540983	-0.2842830811524591
O	0.4298471276885247	1.0141043937409826	0.5748569841475409
O	0.39288304168852467	1.1662765065409826	2.050020411147541
O	0.7056596056885247	0.17225073754098252	2.779797691147541
O	1.3106440556885248	2.1886327405409824	2.3422400711475406
O	1.830785505688525	2.2867728905409823	3.718175061147541
O	3.1289207356885247	1.8120472295409824	3.057250611147541
O	4.224717195688525	1.3962792235409824	3.689020061147541
O	5.399704905688525	2.1225598905409826	3.4802885811475406
O	5.530540025688524	2.6070998505409824	2.211499541147541
O	4.441814045688525	3.3375483305409825	1.8409080211475408
O	3.269959155688525	2.7777084905409826	2.105381421147541
O	1.951974035688525	3.2312248705409825	1.681436771147541
O	0.8888345856885247	-0.14152594945901753	-0.09763466455245912
O	3.9950818556885244	3.2958339105409826	-1.5015117888524592
O	0.7385350956885248	-1.1021805094590174	0.8729532711475408
O	2.060370545688525	0.05820977354098256	-0.8743963678524591
O	2.365193665688525	1.4135396925409824	-1.0034627618524592
O	3.5905029756885245	2.1402314005409826	-0.8866405218524591
O	8.143452105688525	-1.7621780594590173	-7.337746778852459
O	4.406652785688525	-1.8646879094590174	-6.588294798852459
O	4.432478825688524	-5.590017749459017	-5.674242388852459
O	7.291603805688525	-4.884173749459018	-3.2535830988524594
O	5.313960855688525	-2.0731144894590177	-1.705113968852459
O	2.4077415556885247	-4.488378489459018	-1.3181040088524592
O	4.686426755688525	-7.028765169459017	0.3019593521475409
O	5.952714595688525	-4.4664808694590175	2.8236165811475407
O	2.3886482056885248	-3.458268939459017	3.724683801147541
O	1.4346855456885248	-7.144268439459017	4.11733370114754
O	4.536278105688525	-7.595436169459017	6.370816691147541
O	3.363279325688525	-4.620142799459018	8.494782581147541
O	-0.1492958753114753	-5.836433039459017	9.19323775114754
O	1.2534995456885247	-9.305836259459017	9.807877591147541
O	1.0816007256885247	-5.785348729459017	14.01059267114754
O	-1.3608466123114753	-8.698128249459018	14.35459197114754
O	-1.7564461043114752	-9.813059059459016	-3.8388317788524593
O	-3.0211472643114754	-8.460059809459016	-10.36544942885246
O	-4.735981634311475	-2.8902540494590174	-10.77785602885246
O	-2.3978433943114754	-4.092622449459018	-8.050387278852458
O	-4.444949154311476	-5.152283089459017	-5.058214558852459
O	-3.1591993443114754	-5.996722329459017	-1.6361631788524593
O	-4.713157414311476	-6.810828179459017	1.763508061147541
O	-1.9048194343114753	-5.177545819459018	3.6550898011475406
O	-2.0972147843114755	-2.5839686194590175	6.371288401147541
O	-3.6618161943114753	0.17694554454098255	4.272553351147541
O	-3.0818473243114752	3.9501644705409826	4.423126971147541
O	-4.693491484311475	6.5994589005409825	6.635215921147541
O	-5.712328644311476	10.044924810540984	5.4103955311475405
O	-2.5572780743114754	11.362815240540982	7.161570401147541
O	-0.3314285223114753	9.078320410540982	5.106920061147541
O	-1.9708331143114752	10.276452140540982	1.8845688511475407
O	-1.8491654143114753	14.018701740540983	2.4105460311475406
O	3.3354291656885247	11.424683940540984	5.670074781147541
O	4.242795005688524	9.848448800540982	2.384402281147541
O	13.167234855688523	1.3643264915409825	-5.142540858852459
O	16.553339855688527	1.5252463345409826	-3.353105718852459
O	15.468743755688523	5.141330680540982	-2.5478136588524594
O	12.035721455688524	4.161450960540982	-1.1119436988524591
O	10.147868955688525	6.075791340540983	-3.942037828852459
O	9.353122085688524	3.1340072105409824	-6.234655038852459
O	5.736946035688525	4.083944180540982	-6.306480378852459
O	6.361007155688525	6.918382740540983	-8.787120548852458
O	3.9215576856885246	3.8654845205409827	-11.934979828852459
O	4.240934185688524	6.943564610540983	-14.10475002885246
O	-5.165123444311475	4.543812140540982	-5.144795358852459
O	-7.950609514311475	3.1643126205409824	-3.0589805788524593
O	-6.902759054311475	2.330084550540983	0.45897685114754094
O	-8.404304414311476	1.3762437675409824	3.811258151147541
O	-6.577915324311475	1.2504502875409824	7.196345691147541
O	-11.751837044311475	4.2985832505409824	2.868433501147541
O	-10.027428304311476	6.938921370540983	0.6817702361475408
O	-6.2306897443114755	9.285503830540984	-3.954413558852459
O	-12.525712144311477	-3.2218705094590177	0.5478702771475409
O	-12.112669644311476	-4.437792879459018	4.124387881147541
O	-8.443252444311476	-3.4155531394590173	4.532266871147541
O	-5.6193543743114756	-2.8156868694590176	2.126760761147541
O	-4.645930194311475	-0.8860460894590174	-0.9798760908524591
O	-5.524754434311475	-1.0377364494590173	-4.697896878852459
O	-3.2818309743114753	0.8723027245409826	-7.047894818852459
O	7.5055379056885245	-12.660971159459017	-2.743551188852459
