29

O	7.432440925100568	14.657106285815015	24.20954790182365
O	6.925611381813923	13.819769834981777	23.215596068558607
O	6.980382295759279	14.326295741094652	25.49371675910085
O	5.985699363510976	13.348058764940612	25.656533005853124
O	4.660298715065964	13.349761679517076	25.787626883294518
O	3.9925966382703737	12.211725797537666	25.71661472749807
O	2.5768213944744778	11.865178531297854	25.639806149955355
O	2.6675036268837293	10.437362955094112	26.072687063593033
O	3.631460598081892	10.537187537207299	27.10834190321077
O	4.546035870330575	9.5771772311778	27.531503319271856
O	5.895712198797814	9.599126982826252	27.47759050052993
O	6.414945688726978	8.362494914199534	27.253718024799134
O	5.27341508454107	7.645185639966779	27.10560439812491
O	4.135569102886361	8.349306831492111	27.258344665362916
O	2.852883388799166	8.209260807519778	26.732687797908493
O	2.196809215096169	9.216077473185448	26.003865970094637
O	4.627177775635794	10.945667155988628	25.244362729612032
O	4.199511690055002	9.783465150731885	24.50482375162151
O	5.18575521937766	9.02303066269225	24.283338012764794
O	5.028937594327421	7.621139298827077	24.27447241575582
O	6.2906585862820386	9.895147662858935	24.403598277676764
O	6.01121812245812	11.084242382868629	25.037611320398966
O	6.41668656869082	12.291994318224889	24.834280403512874
O	6.213659419123619	12.694200891393184	23.499498546566983
O	5.024528234901291	12.040746086408504	22.904174910826587
O	3.593463437661828	11.978516080372408	22.652872552756527
O	2.395533525509914	12.080504778818938	23.39913550186994
O	1.556927186041384	10.912527181806455	23.23013154081957
O	8.668787606015453	15.178525180134596	24.194180645600078
