25

O	-2.8867277869426142	11.180007360652652	25.26019901976085
O	-1.670901431556365	10.625290084228615	24.993820078379464
O	-1.0344089001874033	10.078395507184808	25.95054691592626
O	0.188931826508556	9.635598846835208	25.502471222906745
O	1.0088775524313254	8.739761460221056	25.955598663604572
O	0.5225479081802653	7.95286000332385	27.050858398619532
O	2.0092215662109636	7.14918152839582	27.135563017981035
O	-0.6050990921136634	11.4239912512197	24.64898775198338
O	0.633726083649778	10.731159464963	24.736939538506125
O	2.0124762701888903	10.693053432320465	24.540328695057745
O	2.7242266300664113	10.445709312563418	25.60284055465338
O	1.914376275090861	9.528370646886824	26.62265114281115
O	3.0889526170289243	9.075730498938821	27.266416557395353
O	3.117712844094822	7.6477499699767435	27.571433520101483
O	2.4726928892391316	11.37086427148676	23.31974005255112
O	3.6375313941500624	12.262436954474802	23.486559044723283
O	3.4421607479840515	13.577570234938102	23.90321097322176
O	4.404909172426564	14.299392291712362	24.55082877844029
O	4.597173659641166	15.62553195302996	24.81269052803049
O	5.705054979077403	16.428386427845496	24.516277037508228
O	5.491868008463605	13.53392199718832	24.938318722539112
O	5.856993766830385	12.403418647763363	24.206958347330357
O	4.78210983646067	11.609040490684785	23.946703124907486
O	7.208935166682215	12.376823078312459	24.01796618585993
O	7.838448109103107	13.49303305692526	23.364004158573227
