30

O	7.322802664060077	13.374084255465636	24.90171496540675
O	5.940893581407257	13.62791915254305	25.402977830248876
O	4.978224878575663	13.320306179980614	24.262252038425366
O	7.467068291791952	12.090783757892824	24.140095417858195
O	6.26570381010861	11.244488720034228	24.145427133052994
O	4.990179448722893	11.819763958803325	24.2194992470801
O	4.05971431060285	10.894367585231176	24.047615188025866
O	4.739344988221529	10.097604711981372	23.169567417542517
O	5.9674656173099105	9.949717489689666	23.821345629744542
O	8.553454126646884	11.425675329472615	24.16561046966191
O	5.89941067503163	15.053209755675601	25.856366402305305
O	5.415100162531543	12.821662457769934	26.554524321778032
O	6.853677935309179	8.808055624754012	23.695503083382057
O	2.8169060652965507	10.94234079281076	24.746624156240788
O	1.7628398017916482	11.27696963477033	23.98552901564975
O	0.7049018805808391	11.383832206455866	24.802477871308813
O	0.06762122647128699	10.40071242734114	25.56272825827508
O	1.115990972357549	9.654921030658246	26.02392980221584
O	2.4510860899002918	10.166966429884285	25.87391441377134
O	-1.3132251834766424	10.13756542892336	25.328735344477675
O	0.8073471888753211	8.627405293886634	26.924480889134593
O	1.8681663592931637	7.582888027269954	26.8243064132816
O	1.1483809375485308	6.678409703088584	25.782878687515133
O	0.8618498938871133	7.623281852674494	24.655142785961026
O	1.9649934229601764	8.452005199246287	24.018162207645766
O	3.119556282515276	7.6010850983794125	24.88638635371639
O	3.1644583813663743	8.010772041148037	26.28121713043299
O	3.0250631188686707	8.090677042886172	23.498476457104356
O	-1.9478254929597507	11.021693396797021	24.3216464998562
O	-2.0804599192661817	10.471598714093235	26.289351635246348
