35

O	5.910404936372511	15.599690476123858	24.924642578850058
O	4.533231250739758	15.646173962966452	24.842968054492868
O	3.5568271412579975	14.695545694293855	24.11236998417255
O	6.295561746932119	15.38648513586494	23.56030762924907
O	5.484607505804914	14.089197900988161	23.59339539271073
O	4.339032286468824	13.659527054087617	24.03531039247104
O	4.0525697684691	12.425388674256338	23.37227931355575
O	6.1255708436843985	13.023597942005436	23.69620679846781
O	5.285994163181766	12.013251067379153	23.314888302711786
O	5.6220996816237045	10.832293853591262	22.5872981033416
O	6.854006521366901	10.340337954138748	23.01290844504854
O	7.424907831890005	11.421136745724914	23.473955659866707
O	7.417981863608661	12.78821948369504	23.51388347816379
O	7.6006603017882925	13.514709095816412	24.56776420899038
O	8.524109657752692	12.979495149366109	25.302097107617058
O	8.182578879023989	14.713644314453985	24.767632218331496
O	7.840698056900532	14.813391888158217	26.093506560552818
O	7.844323609385149	13.524298307596172	26.44755185823151
O	9.1618192308967	13.604304873922619	27.225139438683435
O	9.536060557020416	14.69138420088484	27.926271304934364
O	8.340741649054216	15.324199318319021	28.23415775193058
O	7.563779540477265	15.536087724530837	27.194524821632164
O	3.145795864819025	11.555570628298293	23.882664078209903
O	3.6007152455571863	10.348662870586304	24.460491177936955
O	4.400563356322218	10.549722332933431	25.695053727128727
O	3.801363600623688	9.488792381961803	23.683610932131042
O	5.788071079543556	10.592797899484495	25.950045276757773
O	5.927609443448839	12.736168522092916	26.860264531922375
O	6.730350979133925	11.68761439763403	26.344200145944697
O	3.8771086044039436	11.743681318503114	26.288333966250402
O	4.754255787590146	12.915516575134616	26.540309587354248
O	3.7436039795981597	13.6710534892291	27.078947666504256
O	2.516975993088133	13.638832784651127	26.469606853837995
O	1.7535300123936866	12.657563373380484	26.027644462004734
O	2.529253438413033	11.59568227433403	26.383534955441917
