34

O	-0.8256731684281171	9.690234239010893	26.90832797399178
O	-0.5507092012492145	8.28982503231657	27.14315504594653
O	-0.2652513116527797	10.399022412213592	27.774204010579982
O	-1.0001514440755244	10.052827568952242	25.51757892443793
O	0.2179218674920721	10.238686630663786	24.93493878919635
O	-1.7348157312302102	11.67667593731385	23.954820664553036
O	-2.024776343380445	10.753789131549977	24.962148010366324
O	-3.204636516415981	10.790391734814259	25.716116763468897
O	-0.3848122163845027	11.976036454707218	23.66847278274158
O	0.6575055690964544	11.083110725493025	23.97320691358004
O	1.7117062781365275	11.645712975963669	24.7174472434685
O	1.4430589124580409	12.921063836490273	24.315756057946633
O	0.3035162280838969	13.098783143347527	23.625713955635458
O	2.1757592154139678	11.21111803277736	26.149180180414973
O	2.23721930004963	12.184000664529274	26.966805486111785
O	0.20250768691164134	7.432573570351902	26.319368234777755
O	1.35805048085549	6.914514353997597	26.785357282638223
O	2.3022686546555367	6.504795864882583	24.583911694099736
O	1.26125974431721	7.2586220187823525	24.13406575180626
O	2.3197102159305736	6.449380639841265	25.977557012871593
O	0.35987607284961776	7.718864513591843	25.010799213178714
O	-0.9081077840932497	7.785655724629249	28.467660328761184
O	3.5022007877188033	6.715546616371794	23.858034014411277
O	2.2269261793694994	9.851383510786508	26.580157083343895
O	4.735312414592425	6.524642718609953	24.557498530063413
O	5.584045138302419	5.640802856508069	23.692589760117297
O	5.890101615153982	6.2273302380773945	22.48432335607076
O	5.189198594277905	7.405498561111508	22.344494384550337
O	3.688837683091756	7.227950903142524	22.54624667296698
O	3.3448460864597855	9.349266579719895	25.72114068947005
O	3.524318801570195	10.025251490254295	24.407133941935534
O	4.772614778993553	10.852592549176942	24.84611899611029
O	2.749340095547037	9.675662164753208	27.95973315487041
O	5.751140412374007	9.684629130765007	24.77115988192569
