92

O	3.520593950884286	-1.7641405590285715	0.9446738509214287
O	5.309650500884286	0.7132543819714288	1.5437674109214288
O	0.990767510884286	-0.2696963290285712	-0.036254459078571305
O	4.348701530884286	2.002497479971429	-0.2561566458785713
O	1.2507192008842858	2.0141389509714287	-1.9960162790785714
O	4.119792570884286	1.3092567439714287	0.9169601709214288
O	1.9142534108842857	0.8531818789714287	0.1504857169214287
O	2.238698470884286	1.5782232669714287	-0.9947315070785713
O	2.8964763808842857	0.6543082699714288	1.0949540109214286
O	3.2279087908842863	2.4254087409714287	-0.8614645830785713
O	3.0305243808842857	-0.6251960790285713	1.5884343609214286
O	-1.792482582115714	-0.6647427590285713	-1.8368524090785714
O	-3.853300139115714	1.0259992099714288	-1.3591394490785713
O	-3.2633113591157143	1.5168387329714288	-2.3388576890785715
O	-3.929391779115714	1.4307892559714288	-3.5681930290785715
O	-1.831762347115714	1.3961100279714287	-2.7022918490785712
O	-1.024592070015714	1.6643415839714288	-1.5762352490785714
O	-1.761869875115714	1.3577527849714288	-0.4186633600785713
O	-2.819451619115714	0.2717964729714287	-0.5493595110785714
O	-1.223447862115714	2.0921882659714286	0.5184273999214287
O	-0.03573846111571399	2.4551062709714286	0.022492897921428667
O	0.09109805088428591	2.383438030971429	-1.2926479490785714
O	11.704930360884285	4.518998950971429	8.316089170921428
O	-2.438429689115714	8.697203270971428	5.340248150921429
O	-3.5572564991157143	5.104283580971429	4.752258800921429
O	-7.179192749115714	6.042089440971428	4.066505070921429
O	-5.922676699115714	8.566898930971428	1.5086496909214286
O	-3.7406644191157143	5.8186186709714285	-0.1634141420785713
O	-6.903094609115714	3.708874460971429	-0.3181502305785713
O	-8.965444959115715	6.564931970971428	-1.7626798790785714
O	-6.350900739115714	7.099586480971428	-4.551656359078572
O	-6.520567759115714	3.4329261209714286	-5.392830219078571
O	-10.302646659115714	3.4022561909714284	-5.426771269078571
O	-10.240021929115715	6.515697840971429	-7.746801959078572
O	-7.800382459115714	4.590109210971429	-10.077037499078571
O	-9.934856789115715	1.4580771059714288	-10.559485169078572
O	-5.798465219115714	-2.6347973290285713	12.924749230921428
O	-6.4956550291157145	-3.4404577090285713	9.29883565092143
O	-7.2776949291157145	-0.9177561390285713	6.576557030921428
O	-9.035595839115715	-2.6764508090285712	3.735804600921429
O	-9.814828249115713	-1.268271789028571	0.3505076919214287
O	-9.135704279115714	-0.3179541190285713	-5.004600649078571
O	-6.8956236591157145	-1.1477025790285713	-7.900855559078571
O	-4.443200479115714	-3.326217079028572	-5.9484521290785715
O	-0.712967314115714	-3.6915440990285715	-6.438122249078571
O	1.262926320884286	-5.951570459028572	-8.78383339907857
O	4.440927310884286	-7.771576719028571	-7.789210129078572
O	6.348507480884286	-5.103598089028572	-9.769444099078571
O	4.837285930884286	-2.3355625290285715	-7.665504489078572
O	5.847506410884286	-4.108079439028572	-4.437746859078572
O	9.460790860884286	-4.954403449028572	-5.242797029078571
O	10.380744260884287	-2.133466609028571	-7.539265869078571
O	8.006060740884285	0.6001017309714287	-8.55375381907857
O	6.917386470884286	1.9641940759714287	-5.2336769190785715
O	10.488668060884287	2.158173972971429	-3.973212709078571
O	8.924523480884286	6.638572620971429	-6.8091695890785715
O	9.447552060884286	6.855169780971429	-3.0316076490785715
O	9.532093860884286	11.91600047097143	-2.0284110390785712
O	1.662500010884286	12.745569770971429	2.711060230921429
O	2.479567190884286	15.915918570971428	0.7333013409214286
O	5.6079968808842855	13.950628370971428	-0.3357797170785713
O	3.6708794808842855	10.817151950971429	-1.5320902190785712
O	5.328376560884286	8.635876060971428	1.2740272109214288
O	2.526324040884286	8.653698950971428	3.8701137009214284
O	2.5238684508842857	4.853112940971429	3.9875142409214286
O	5.636962480884286	4.820530780971429	6.207252940921428
O	3.749699780884286	6.7296760309714285	8.877652240921428
O	2.322165430884286	3.256363230971429	9.645453880921428
O	5.546425820884286	2.838527900971429	11.56700323092143
O	2.9837996008842858	-0.5085440490285713	14.13950373092143
O	3.1393019308842858	-4.083435589028571	8.776310390921429
O	1.6705953908842859	-6.736419679028572	6.483394070921428
O	0.141551010884286	-5.786013869028571	3.1441222909214286
O	-2.054155339115714	-8.248335079028571	1.2859305709214286
O	-2.887463029115714	-7.033030849028572	-2.2121494490785714
O	-4.4326379791157136	-8.237807109028571	-5.455458549078571
O	-4.3760266591157135	-6.436142239028571	-8.850327129078572
O	-2.343446069115714	-12.19711312902857	-4.6403562890785715
O	0.8055927108842861	-11.155431029028572	-2.6974909590785714
O	1.847786160884286	-10.659768429028572	0.9089534609214287
O	4.378862210884286	-7.861466069028571	1.5893268409214287
O	5.784671950884285	-7.6307219590285715	5.118815390921429
O	11.645878860884286	-2.2349711290285716	9.285731300921428
O	10.964908160884287	-6.406285819028572	3.594723590921429
O	7.232616420884286	-10.616606229028571	-0.5269581420785714
O	-9.148162419115714	-7.135708419028571	-5.815673809078572
O	-7.673117229115714	-4.500868549028572	-3.5568779990785715
O	-5.272613209115714	-3.9570177290285713	-0.6384048490785713
O	-5.342358489115714	-4.757927789028572	3.1208210509214287
O	-2.795371079115714	-3.0500968890285716	5.289831880921429
O	-2.516168049115714	-4.9830150290285715	8.588408410921428
O	-0.942843646015714	-2.8736838390285717	11.340600930921429
