87

O	0.16576226967213148	2.7051815126295082	-2.246781630418033
O	0.0038748346721314553	0.9188135916295082	-0.8851640774180326
O	-0.016324213327868597	0.49569047262950816	-2.1535816204180325
O	0.15913998367213145	2.237302626629508	-0.9751680944180325
O	0.4345582426721314	1.5335023856295082	-2.8802263704180326
O	-0.19701863532786856	0.30269355962950817	0.4465499795819674
O	1.0606729426721313	3.798921812629508	-2.6396423104180324
O	0.3538836726721314	2.9870748026295084	0.21323744258196742
O	0.5031409126721315	-0.8155450173704919	0.7766980595819674
O	-0.9334678723278685	0.9462825996295081	1.4146726095819675
O	0.40793193267213146	-1.297280217370492	2.0514501395819673
O	2.3189453926721315	3.554867112629508	1.2214801295819675
O	-0.29126274232786853	-0.5529993573704919	3.0003880995819676
O	-1.0000092113278685	0.5722823426295082	2.7211885295819673
O	1.4436596626721316	2.488402402629508	1.0058500395819672
O	1.6009057926721315	4.4196237726295085	1.9775199795819676
O	4.164072862672132	5.081337862629509	0.4318201165819674
O	3.641125802672131	3.8419671126295083	0.9717661595819674
O	3.1588148326721317	6.103904222629508	0.8429682195819673
O	2.2301657226721314	5.625120442629509	1.7738964495819673
O	-0.39282959132786854	3.447288062629508	1.2101060195819673
O	0.24298351267213147	4.160238412629508	2.2228530095819674
O	1.1449314526721315	-1.6135985373704917	-0.14129203841803262
O	-0.41964363432786855	-1.211940747370492	4.186609969581967
O	-1.6816311623278686	1.514808316629508	3.5923031395819676
O	-2.5967155273278686	2.5395708926295084	3.0384762595819677
O	4.884086122672132	-0.5234039573704918	9.875667069581967
O	2.4284831826721316	-2.287694877370492	7.531841879581968
O	5.087018052672131	-4.617676947370493	6.072871469581967
O	7.282949882672131	-1.618011647370492	5.378071519581967
O	4.304183782672132	0.011130802629508052	3.695489209581967
O	3.7955072926721316	-2.8352434673704923	1.5644368895819674
O	7.553594952672132	-3.013632527370492	0.7248887195819674
O	7.474236112672132	0.5750660856295081	-0.5538076823180326
O	4.453600792672131	-0.31532049737049195	-2.7552619604180326
O	6.292439812672131	-3.387295927370492	-4.106517280418033
O	9.354102572672131	-1.1158831873704917	-4.797082580418032
O	7.065008612672131	1.2779925556295082	-6.738321420418033
O	5.532041202672132	-1.2876681773704917	-9.111022910418033
O	8.957653162672132	-2.834307737370492	-9.562092170418033
O	10.482624272672131	0.5405670536295082	-10.561891030418032
O	7.532896082672131	1.329235496229508	-12.838641530418032
O	7.765675172672131	-2.017420437370492	-14.646143330418033
O	0.5911849426721315	-12.669780167370492	6.422589829581968
O	-1.3184517713278685	-8.220242677370491	5.420415609581967
O	-1.3771731253278685	-8.806836967370492	1.7088033595819674
O	0.9033359126721315	-7.289937487370491	-0.8566675274180326
O	1.1086510726721315	-7.390585287370492	-4.680363120418033
O	2.4892109026721316	-3.8806007673704914	-4.833534900418033
O	1.3097845726721316	-0.9709998773704918	-6.891138610418032
O	-2.1063203673278688	-0.6345342273704919	-5.262612570418033
O	-4.093144667327869	2.501298062629508	-4.521156600418032
O	-6.467490727327869	4.493982312629508	-6.741454470418033
O	-9.710988157327868	5.995488642629509	-5.479968740418032
O	-7.911849437327868	9.374946402629508	-5.447865830418032
O	-5.287478747327868	8.025820822629509	-3.0822920404180323
O	-7.907573357327869	6.695070082629508	-0.6826924054180326
O	-10.159668577327869	9.74291234262951	-0.4563091100180326
O	-4.0078682673278685	11.946716032629508	-1.5617413504180324
O	-3.0773834073278685	9.905984852629508	1.4315365895819672
O	0.2891041856721315	13.861166432629508	2.6194569395819673
O	6.964416702672132	5.393636942629508	10.631942269581968
O	9.720069872672132	8.057782982629508	10.513132769581967
O	6.776539132672132	10.472820982629509	9.923790569581968
O	5.2962304226721315	8.462663772629508	6.998645299581968
O	2.0121516326721314	7.721473932629507	8.985940959581967
O	2.8044115926721314	4.206359202629509	10.206766969581967
O	-0.4342024073278685	2.913239072629508	8.808882389581967
O	-2.4062797973278687	4.339498292629508	11.728804669581967
O	-0.4628677313278685	2.171740251629508	14.164309169581967
O	-2.9096285073278683	-0.5151047173704919	12.969556969581967
O	-5.205837907327869	1.0601334826295081	15.513495269581968
O	-8.27185160732787	-2.1413669873704917	3.0906685995819676
O	-8.905303477327868	-3.7860305673704917	-0.2255099084180326
O	-6.776465147327868	-2.383019627370492	-3.0036757804180323
O	-6.412102987327868	-2.494334757370492	-6.766696490418033
O	-4.222183167327868	-0.23922134737049183	-8.967230290418032
O	-10.952348827327869	-2.493249937370492	-6.918773120418033
O	-11.948036527327869	-0.5255046373704919	-3.7689427704180325
O	-7.155425947327869	-9.450573467370491	-6.497561120418032
O	-5.217306707327868	-8.680953327370492	-9.661813400418033
O	-3.1490842873278684	-5.787330407370492	-8.232833260418033
O	-2.0659652673278686	-4.770605177370491	-4.772268350418033
O	-3.3992686373278684	-4.167902817370491	-1.2801713334180325
O	-4.786050467327868	-6.257650227370492	1.6008776295819676
O	-5.0102059673278685	-4.681459827370492	5.000547169581967
O	12.604613972672132	-6.985342217370491	3.680625209581968
