40

O	1.6158078985129634	6.27467263588826	25.702168766239968
O	1.8137917897672229	6.980081231037727	24.570331539192985
O	1.6821133700429698	5.060870749006862	26.090818135669654
O	1.8114155264835228	7.130633869523283	26.91923974535099
O	-2.723508857361195	11.31395671017414	24.32397680979115
O	0.6180265056925152	9.174476909087872	25.70477066038203
O	2.606687244341502	8.075555727330013	26.496211737698715
O	-1.9298334093720146	9.008743098684045	25.48819964684815
O	-0.32785882579920944	10.996454388764988	24.723236852030634
O	2.781690528959965	9.22377179874315	27.557171160258246
O	-0.8387938251231482	11.11622760129251	22.885070280791464
O	2.560197134771168	10.3551336423918	26.705227685805227
O	4.8109247640303385	11.174424180055082	24.54316658820612
O	1.7912785840908725	9.982773271784739	25.25473268466013
O	5.280211044198956	8.005527865175079	26.170000674875944
O	1.0795808248461343	11.27620057527187	24.45972144474061
O	-0.3846359433580533	8.484586309724854	24.019129277286222
O	1.25662768365511	11.364796235163269	25.710500756367512
O	6.439283007947956	5.7503180816514625	23.80376834077447
O	2.0409571717573316	10.296110066909964	25.165028483608427
O	6.398138765070314	9.991297900629336	23.43115076731118
O	3.1835024753079875	10.23288742037441	24.159294432543597
O	4.541839591366091	10.06496288908749	24.89678830883356
O	5.172711835066054	8.955568440499537	25.306342794854306
O	6.323425160461956	9.217479309607938	24.5283471312719
O	4.252885039590845	12.319872010854397	24.250290578644464
O	5.5723798985458455	9.623726255348823	22.480769669341427
O	4.6163161236258965	8.435709322702357	22.51215091576063
O	5.469332728446137	7.601108126809683	23.152844417203905
O	5.197453868369584	6.282171285936999	23.28422721423256
O	3.893949902699841	6.066647666781408	23.41437448785897
O	2.955973388549904	7.063533215657229	23.700348947864704
O	3.2507233021180393	8.048200309890092	22.793512684166032
O	0.6701423587041418	6.8373706797138905	27.880625105371983
O	-0.6506148977261479	9.235573363796401	25.00749789435688
O	-1.3835469218030274	11.545489098281372	23.971072955649895
O	2.0833840728607	12.585156977098158	26.194060791718712
O	3.05538030033612	11.097214545231317	22.885833076208204
O	4.835327573221463	6.778924980116443	26.36797606882738
O	7.626377151516277	6.355596119861675	23.392418434241286
