77

O	-1.8647603097627115	-0.07722549716949095	-2.2381340878432203
O	-0.9803198747627115	-0.8701359171694909	-1.5924033268432205
O	-0.9082959777627115	-0.7192370771694909	-0.1758214008432205
O	-1.2966340917627117	0.44516839583050904	0.17397275415677949
O	-2.7185718597627115	0.508499483830509	-0.06853995784322053
O	-2.9197604697627115	0.12459448083050903	-1.3913231268432205
O	-3.616870329762712	1.3638796028305091	0.5220532821567796
O	0.10728381523728847	-1.310732677169491	0.4632262721567795
O	0.30764811023728844	-0.9636940671694909	-2.1564459178432207
O	0.4093166302372885	-1.511309407169491	-3.396213567843221
O	1.6202140502372884	-2.127261547169491	-3.2309086478432203
O	1.6457800502372883	-2.025010977169491	-1.7860294178432206
O	1.3451625902372881	-0.7381865671694909	-1.4607211718432205
O	-0.3294313007627116	-2.029848697169491	-4.422612777843221
O	0.004806371237288443	-3.045384227169491	-5.26458916784322
O	1.3687413702372884	-3.309956997169491	-5.31513444784322
O	1.9676975802372882	-3.194138277169491	-4.06068081784322
O	1.4914783602372883	0.049671899830509014	-0.5373018738432205
O	-10.972582599762712	-3.474480037169491	0.9347196421567796
O	-8.190678999762712	-1.144368097169491	2.1670116521567797
O	-7.028893099762711	-3.572402397169491	4.88624242215678
O	-6.781179469762711	-6.262219557169491	2.2080579621567793
O	-4.716896469762712	-3.904040357169491	0.014876746156779475
O	-2.4909651497627117	-3.383426447169491	3.123147712156779
O	-2.1702336097627115	-7.084495037169491	3.6642152421567795
O	-1.1472887737627115	-7.676048017169491	-0.03466452984322044
O	1.4608771402372884	-4.989958527169492	0.38660664215677953
O	2.8013499502372885	-6.309078287169491	3.5402387921567797
O	2.9595499702372883	-9.798018247169491	1.8692152621567797
O	4.905406820237289	-8.18795878716949	-1.0493793548432204
O	7.603269400237289	-6.505703877169491	0.9487011221567796
O	7.834284100237288	-9.66267801716949	3.056400242156779
O	8.360657680237289	-11.86026514716949	-0.03077585984322051
O	10.844372300237287	-9.37611384716949	-1.5053739138432205
O	12.913080800237287	-9.334483207169491	1.6995098621567795
O	-1.5334840417627116	-2.183148147169491	10.18656315215678
O	-6.335178629762711	2.178301232830509	12.149343952156778
O	-6.386332149762711	6.682838822830509	8.442893102156779
O	-5.304910719762711	3.171866682830509	7.37919303215678
O	-1.5788747327627117	2.839813402830509	7.87447731215678
O	0.6098817202372885	0.02598336783050903	6.75244799215678
O	4.336784340237289	-0.696559217169491	6.58103484215678
O	4.044551820237289	-2.609462147169491	3.3523589621567798
O	5.847707960237289	-2.1723931571694908	0.11519949515677952
O	4.826242340237289	1.340153232830509	-0.6637978810932205
O	4.2153298002372885	2.992961802830509	-4.038043677843221
O	6.574092970237289	4.679629952830509	-6.45297936784322
O	5.663019420237289	7.798212272830509	-8.398848317843221
O	5.199929780237289	5.528089552830509	-11.452282347843221
O	2.5836743402372884	3.452976742830509	-9.620068607843221
O	0.6433101802372884	6.570021742830509	-8.639893017843221
O	0.5290034102372884	8.341870232830509	-11.99542584784322
O	0.7592020002372885	1.8149987228305091	-13.269032347843222
O	-2.1744025697627114	1.473601642830509	-10.92565284784322
O	-12.321294299762712	-6.320119197169491	-4.56707109784322
O	-11.899392299762711	-6.994177487169491	-9.629962197843222
O	-8.641325119762712	-5.628302787169491	-7.98563210784322
O	-10.204747219762712	-2.053622287169491	-7.68827606784322
O	-11.303671399762711	-2.135141457169491	-4.0476715978432205
O	-9.432480199762713	1.066617590830509	-3.33153249784322
O	-12.182398899762712	3.166050012830509	-4.93248116784322
O	-13.028306099762712	4.554186832830509	-0.1922168798432205
O	-2.5040510597627117	8.645640382830509	0.13114154415677948
O	0.9390029102372884	9.14543017283051	1.5886824821567795
O	3.3384509402372884	6.483617402830508	0.44832357215677954
O	7.029416680237289	5.6256187428305084	0.44955208215677955
O	8.725685530237287	2.808513672830509	-1.5369094548432205
O	7.772188490237288	10.06089002283051	-0.2577213448432205
O	4.650939820237289	11.16282905283051	-2.2249961878432205
O	7.309844800237289	7.428962872830509	7.19011356215678
O	10.147040600237288	4.976034192830508	6.5772743321567795
O	8.262939310237288	2.706489642830509	4.1097316221567795
O	4.6513183902372885	2.002768022830509	3.50456135215678
O	1.3652774402372883	3.686572742830509	2.85765997215678
O	-1.2126019947627116	5.690256452830509	4.70395247215678
O	-4.626533599762712	6.110252202830509	3.2122367621567793
O	-5.5389799497627115	-10.89338564716949	8.36500362215678
