75

O	-3.9228410630396553	2.282115887241379	0.5508725356603452
O	-4.388388353039655	2.4694035172413793	-0.7835387493396548
O	-3.782553533039655	3.566020417241379	1.1345976176603452
O	-0.2641297630396551	2.0292126672413793	2.4600668576603453
O	-3.6398855430396555	3.5712592472413793	2.5236211276603453
O	-2.917871583039655	1.4307299952413792	-3.289223382339655
O	-2.738823523039655	2.601900597241379	2.9087386476603454
O	-0.0409581930396552	-0.7841040927586208	-0.3276796945396548
O	-2.389832471039655	1.5282361782413791	2.1683228476603453
O	-2.895492813039655	1.4508073892413793	0.8506947376603453
O	-0.9780352440396551	1.2024729542413792	1.8959658376603454
O	-0.7257058180396552	1.2295455102413793	0.36868404166034524
O	-1.1492938010396552	2.424872297241379	-0.2998732916396548
O	-1.5239749447396551	2.428230967241379	-1.6758032023396547
O	-1.8651960800396552	1.3392094902413791	-2.371936732339655
O	-1.4826194210396553	0.16178189224137918	-1.8174213023396548
O	-1.1013014530396552	0.17109322124137916	-0.5166672833396548
O	-10.588817513039656	0.6508401382413792	-4.784591512339655
O	-6.812937783039655	0.3858918982413792	-5.369852322339655
O	-6.857311803039655	-3.4530659027586204	-5.390255802339655
O	-8.719692663039655	-3.4106745427586205	-2.0875851123396547
O	-6.123496883039655	-1.0698793527586208	-0.7675451393396548
O	-3.356114073039655	-3.3305735627586204	-1.8396044723396547
O	-5.1945898430396555	-6.2394725227586205	-0.1764124054396548
O	-5.371347383039655	-4.3564354027586205	3.1925758376603453
O	-1.604094944739655	-3.7041524327586206	2.957980917660345
O	-0.8972000200396552	-7.27363011275862	2.1269093376603454
O	-3.0677361930396554	-8.265995142758621	5.164266867660345
O	-0.9910055950396551	-5.855177212758621	7.365062637660345
O	2.4370509969603447	-7.23293708275862	6.471243827660345
O	1.023155596960345	-10.745538132758622	6.7492381476603445
O	-0.2860748730396552	-10.058000832758621	10.283693407660344
O	2.9900679569603454	-8.383336852758621	11.275727807660346
O	5.096332636960345	-11.325951332758622	10.060393607660345
O	-0.8641110100396552	-8.088272422758621	-6.818850752339655
O	-1.8155006780396552	-5.2535237227586205	-12.917551692339655
O	-1.2039665740396552	-1.5355363727586209	-9.655254062339655
O	1.6391365669603448	-3.287087232758621	-7.882177032339655
O	1.5512044569603447	-4.90598658275862	-4.491369472339655
O	4.057599946960345	-6.466225082758621	-2.109540972339655
O	2.2706094369603447	-5.327130062758621	0.9664698876603453
O	3.5291629069603454	-3.3568162827586203	3.9227859776603453
O	4.711523706960345	-0.30966878275862075	2.0370937376603453
O	4.467154506960345	3.3460721072413793	3.203861587660345
O	6.946004196960344	5.408218667241379	5.216310957660345
O	7.706066536960345	9.044282887241378	4.475196387660345
O	5.519914926960345	9.91636903724138	7.506126127660345
O	2.5375688869603454	8.148176647241378	5.988340877660344
O	2.9464197569603447	10.007395937241379	2.6965924176603453
O	3.3410645669603447	13.548681167241378	4.022203577660345
O	-0.501574533039655	10.263484227241378	8.339419707660344
O	-2.643183503039655	9.408902937241379	5.352365317660345
O	-14.395706663039656	3.170816037241379	-0.3635508877396548
O	-15.305552963039656	6.201771827241379	3.7042524076603454
O	-11.736596463039655	4.880284987241379	3.6334825376603455
O	-10.728131413039655	7.4314000772413795	0.7904750476603453
O	-10.960220223039656	5.13302401724138	-2.239011402339655
O	-7.394263563039655	6.006052747241379	-3.2758984923396546
O	-8.581348653039655	9.347837497241379	-4.699309282339655
O	-7.721021803039655	7.177982867241379	-9.134626282339655
O	3.1420367269603453	6.16451734724138	-6.144028572339655
O	6.387339016960345	4.326597847241379	-5.565063902339655
O	6.5496733069603446	2.694255527241379	-2.160484072339655
O	8.995980636960343	0.9721956112413792	0.17717556466034518
O	8.454764336960345	0.06313521424137924	3.8887639176603455
O	12.018395836960345	4.045647807241379	-1.2205005163396547
O	9.874755636960344	7.136331337241379	-2.025789362339655
O	11.314619336960344	-2.776430072758621	-5.238857122339655
O	12.047240036960345	-4.79733281275862	-2.099502822339655
O	8.840798936960343	-3.872347212758621	-0.2055270651396548
O	5.451383186960345	-2.723472032758621	-1.2638219813396547
O	3.7301043469603448	-0.1463997227586208	-3.3986800923396547
O	3.117801916960345	0.6366006942413792	-7.048135812339655
O	0.4058154069603448	3.0606227572413793	-8.021352112339654
O	-9.379148643039656	-11.026341032758621	-3.1732779023396547
