78

O	3.2989426336949155	2.6177629887881357	3.9048119522372886
O	1.9099403136949156	2.440774138788136	3.925641162237288
O	1.3142319936949156	1.5661527187881354	3.0137685122372884
O	1.9838571736949153	0.4276377157881355	2.6188358422372886
O	3.3929033736949155	0.5806475167881354	2.757458242237288
O	4.045358813694915	1.6268431587881353	3.3323836722372886
O	0.22293492369491563	1.9718261087881355	2.2122553222372883
O	0.16164644369491543	1.4541406187881354	0.9542047722372882
O	0.7879614736949154	0.2678603897881354	0.7027457522372882
O	1.2684730136949156	-0.39353672121186456	1.7253957822372883
O	0.2087910136949156	-0.43502246321186455	-0.49303228176271174
O	-0.9267328343050845	-1.1712273612118647	-0.06650384376271179
O	-1.5497226793050844	-1.9973657912118645	-1.0590012837627119
O	-1.3363232463050845	-1.2290220712118645	-2.1857201077627115
O	-0.11543561630508448	-1.6379118712118645	-2.4561592777627115
O	0.6643774736949155	-1.1355190612118646	-1.5111940277627118
O	-0.3681053003050845	-2.2738389712118643	-3.4649380077627114
O	-2.8089181163050845	-2.2627388012118645	-0.8211264287627118
O	0.27082345369491545	2.5577509587881355	-0.6924363997627118
O	2.9035823236949154	5.573414908788135	14.793886232237288
O	-0.7969028003050844	-6.863013131211865	7.273890612237288
O	-2.9897710363050845	-4.877362571211865	4.824219602237289
O	-4.105157576305084	-8.039297401211863	2.955987632237288
O	-0.4405271973050845	-8.899081971211864	2.503463572237288
O	0.28517982369491546	-5.3326222312118645	1.1885942022372882
O	-2.5530089163050844	-5.886638751211865	-1.2534801967627118
O	-1.2780103283050845	-9.325836521211864	-2.282553597762712
O	2.2032421236949156	-7.808611101211865	-3.0065123577627118
O	0.5297332136949156	-5.128463041211865	-5.109418657762712
O	-1.5567620693050845	-7.682540121211865	-7.012985707762712
O	1.6385210136949153	-9.744108351211864	-7.5776353977627116
O	3.3489991136949158	-6.5711371712118645	-8.967064377762712
O	0.7217869436949156	-5.721509321211864	-11.605726067762712
O	4.303017953694916	-6.278919831211865	-14.988728467762712
O	-12.283588066305084	-0.9399799012118646	3.7625141822372887
O	-9.632820816305085	-3.1630005512118644	2.2295391822372883
O	-9.807630246305084	-2.901431931211864	-1.5366878977627119
O	-7.421712406305084	-4.285420731211865	-4.051384107762712
O	-3.2390937463050844	-4.197748021211865	-7.567946787762712
O	-0.6924876763050845	-1.8941007112118646	-9.110425527762711
O	-1.7234402583050845	1.2345330187881354	-7.180140687762711
O	0.4389851536949154	4.023655658788136	-5.862132907762712
O	1.7218660036949154	7.135077178788135	-7.634439627762712
O	5.614672653694916	9.988892248788137	-5.642467067762712
O	5.012554303694915	6.814331668788135	-3.6228866277627114
O	2.6313596836949156	8.640535048788136	-1.2783018427627117
O	4.659758833694916	11.764917508788136	-0.5370748087627117
O	8.146138263694915	10.421936108788136	-0.8262911447627117
O	8.988493333694915	6.877535398788135	-1.7155834477627119
O	7.072251823694916	4.9469810287881355	0.9220000222372882
O	8.418465303694916	7.179824478788135	3.6731867422372884
O	11.843436233694916	3.026590778788136	2.4171923522372882
O	9.918788833694915	3.0139064187881357	5.727593932237288
O	12.177306033694915	-0.6919996772118646	8.497894952237289
O	5.367326703694916	-6.907307571211865	8.716600372237288
O	8.815317443694916	-8.578487421211864	8.815614022237288
O	10.105742033694915	-4.944693481211865	8.733628382237288
O	8.054201023694915	-3.915030661211864	5.644687252237288
O	5.981725503694916	-1.3273551812118645	7.749620412237288
O	2.8461754836949154	-3.3776665012118645	8.437366532237288
O	0.6760582936949155	-0.5782939432118646	7.003426412237288
O	0.9910400636949155	1.3899236687881353	10.266026532237289
O	-0.6025970943050845	-1.4385092712118646	12.23954953223729
O	-3.8248876363050845	0.07908291128813547	10.863964632237288
O	-3.4421601963050845	2.4489730387881354	13.76928023223729
O	-6.116492986305085	5.646571638788135	1.2506989222372882
O	-7.5314109063050845	6.020891468788135	-2.211286487762712
O	-5.202798326305085	4.802173678788135	-4.900213837762712
O	-4.760484826305085	4.835401538788135	-8.664172267762712
O	-1.6479189643050844	3.7496847187881355	-10.637997967762711
O	-5.196058686305085	10.362851608788135	-5.1214177377627115
O	-4.065478436305085	10.203709508788137	1.2333744722372881
O	-6.543914686305085	0.8599313237881354	-10.796135967762712
O	-5.656417096305084	-0.21016233721186453	-7.318694197762712
O	-5.740238606305084	0.8270167867881354	-3.6437376177627114
O	-8.461152566305085	1.1234591387881354	-1.0086658377627118
O	-7.584787516305084	1.5752814187881354	2.6152247122372883
O	-10.518013846305085	2.9432455087881357	4.563163592237288
