15

O	0.07991461577646941	9.50340598141872	27.19342604813496
O	-1.242100594003498	9.683569298142519	27.529772822912914
O	-1.8733234421072198	10.547188923239403	26.625026982001245
O	-1.6218006886410792	10.836986047107285	25.405752615571824
O	-0.1891671434732296	10.705377168057602	25.065578080144547
O	0.5229169130670366	10.043961465792403	26.11272154734846
O	0.0028535222390666526	11.284384832789312	23.944561264055775
O	-1.227241897080048	11.582581928954172	23.319175133167118
O	-2.1011235245821753	11.58699994291547	24.28235251947054
O	1.7895491844146192	9.497080185533186	25.900541898787356
O	2.3539413199692287	8.39098172802823	26.72015986072744
O	3.585273581938617	7.994443294270504	25.994455996883147
O	1.9888060927455897	7.003680065761542	24.704007959092984
O	3.085566164481785	7.8726611296645075	24.54321898367532
O	2.412870561560993	6.020241390831255	25.619801483332193
