86

O	2.03891743782	-3.0098987505818187	-2.197094285890908
O	4.55970963782	-2.3848784105818184	-1.9109963958909084
O	6.21973425782	-1.2523039705818184	-3.5628158158909082
O	1.2783844018200001	-4.351125520581818	-0.3200252698909083
O	1.1340742818200003	-3.0170055805818183	-0.7564523709909083
O	1.23971443282	-4.142911300581818	1.2113039841090916
O	0.2061054268200001	-3.225667880581818	1.4919142141090918
O	2.53396229782	-3.362649830581818	1.4586199341090915
O	3.6145760678200003	-4.191030680581818	1.6681152641090917
O	2.1260338778200003	-2.4831604905818185	2.6009978941090917
O	2.25775679782	-3.2539804705818187	3.7725546641090917
O	0.6532176998200001	-2.2960692205818183	2.3969862441090917
O	-0.04730860217999988	2.5567062394181814	4.338990254109092
O	1.2307414308200002	-3.8535236405818183	-3.0600021958909083
O	3.9475451778200004	-1.0427794505818184	-2.0240077158909084
O	5.74867565782	-0.11547782858181832	-2.7492236258909086
O	0.4628919678200001	1.4477281744181816	4.895047844109092
O	2.00251571782	-1.4845121305818183	-2.7957271458909085
O	5.749737827820001	-2.3756390105818186	-0.8151713505909083
O	7.76651308782	-1.5793953705818184	-3.1685076158909085
O	0.5259034428200001	0.2536230614181816	4.302914504109092
O	3.51041194782	-3.596097130581818	-1.6870674848909082
O	5.45745762782	-2.6713099305818186	-3.2670670658909082
O	5.86358022782	-0.8200509105818184	-5.094842655890909
O	0.1283331038200001	0.09628112341818162	3.035407024109092
O	-0.29255845617999987	1.2549530904181816	2.3805071041090917
O	-0.32429568617999993	2.4844033294181815	3.0389109841090916
O	-0.86571385218	3.6354156394181816	2.4417675241090917
O	-0.4945314021799999	0.8549178217181816	1.1113802541090916
O	-0.32477417917999984	-0.4939531705818184	1.0413807141090916
O	0.1752497458200001	-0.9577458405818183	2.2127704241090917
O	-8.14400206218	-8.25125747058182	-9.675016835890908
O	-3.07752680218	3.8560336494181815	-10.694016085890908
O	-2.2735272321799997	7.238934159418182	-9.133205465890908
O	1.5225171778200002	6.880632779418182	-8.937298575890907
O	1.0999626688200002	3.3588200594181816	-7.473703705890909
O	-1.0566233721799998	4.692695169418181	-4.573688225890908
O	1.17238056482	7.756878119418182	-4.018517065890908
O	4.19111574782	5.439405119418182	-3.8828454358909084
O	2.37113915782	3.2436282994181815	-1.3086023228909083
O	1.72929359782	6.436820709418182	0.7187063341090917
O	5.37744868782	7.405780579418182	0.4285192241090917
O	6.53421254782	3.9627990694181814	1.7423409741090916
O	4.12381643782	4.262110149418182	4.644607494109092
O	5.4145453878200005	7.800031319418182	5.399265244109092
O	9.06173743782	6.537588629418182	5.2132610741090915
O	8.105046827819999	3.7288223494181816	7.696556144109091
O	6.6417032778200005	5.9844725294181815	10.394976434109093
O	12.10517586782	5.695555269418182	10.428112134109092
O	10.20351321782	4.319768439418182	13.422516234109093
O	-5.53939840218	9.65196897941818	-1.6123933718909083
O	1.9568172978200002	7.393938449418182	7.152320294109091
O	2.22204451782	4.449739129418182	9.457675434109092
O	-1.33039793218	3.2283283094181816	8.927989334109093
O	-2.5101911921799998	-0.3749771305818185	8.877160314109092
O	-2.5467890021799997	-6.115531780581818	7.980533804109091
O	-6.0079896021799994	-5.755289480581818	6.468858224109091
O	-7.3209005421799995	-9.29879859058182	6.969727944109092
O	-4.12707591218	-11.271652690581819	6.753492694109092
O	-0.7188823921799999	-9.771286190581819	6.254029954109091
O	-1.2341826121799997	-7.852063460581818	3.0862115541090915
O	-2.83687161218	-10.831453990581819	1.3814767241090915
O	-0.07649250817999992	-13.208717890581818	2.5262236141090915
O	2.65182137782	-10.97352869058182	1.0427741241090915
O	0.5562392418200002	-10.269043590581818	-2.0750262358909084
O	3.90324356782	-10.70649309058182	-5.984854855890909
O	3.40863081782	-10.302681790581818	-11.888089365890908
O	2.55253695782	-3.852367090581818	-11.360947965890908
O	4.39282494782	-1.8897056805818186	-8.688314285890907
O	7.71991166782	-3.6997922705818183	-9.238074635890907
O	5.83851656782	-6.707754550581818	-7.7965442358909085
O	4.548733807820001	-5.106246610581818	-4.779899225890908
O	0.8693626818200001	-5.248358930581818	-5.787536525890909
O	0.3733330077200001	-1.7314021505818187	-7.082929535890909
O	-2.6264117521799997	-1.1614272205818184	-4.808896575890908
O	-4.903799172179999	-3.306931740581818	-7.089703395890909
O	-4.28542913218	-0.9802613305818183	-10.010871855890908
O	-6.95133593218	1.0939262514181816	-8.214747265890908
O	-9.34307217218	-1.2209235705818187	-10.005089845890907
O	-9.65967214218	2.2645109294181816	2.7078184941090915
O	-6.669663122179999	3.4969676094181814	8.073397834109093
O	-5.37960681218	4.079428339418182	11.598507234109093
O	-2.5075804221799998	7.167234459418182	8.386026054109092
O	-4.49300536218	5.8762405094181815	5.440356164109091
O	-7.13707671218	7.243722129418182	3.0582000241090914
O	-7.890121152179999	5.341165489418182	-0.11082820889090828
