23

O	1.9976712764593911	12.788260999562748	23.20531001688755
O	0.6165523403521453	7.299109490679178	27.490691332536194
O	0.7821809510991387	9.637150336868716	27.50699309920086
O	-2.8106828626335383	10.604132319811175	25.665210679093263
O	1.568870228085838	7.626123504419784	28.6383899715785
O	-0.7049449707569866	12.870141640666587	22.017813255512586
O	1.3341319026510619	9.091947631186585	28.71238771984602
O	-1.278798528537438	9.543625473486069	27.56919768730799
O	0.8623311940796701	8.50888332509351	26.648152719375204
O	2.056017326564702	8.754032701607407	25.899631370928546
O	2.458842198899025	7.46634461555478	25.580379924879995
O	3.797231038125145	7.230636894178	25.365346325482065
O	4.583681647825557	8.324988481173827	25.156516833826537
O	4.172517138463496	9.61925103761684	25.307552408145582
O	3.032472428768421	9.683593536927596	26.103045018212136
O	3.054156189452078	10.695964316320124	27.141393843009176
O	-0.48769333876975185	10.954605129316379	25.77236636870247
O	0.5399230646794699	11.614856019678381	25.147188615024543
O	0.5700281938185883	11.97674789096886	23.82062440093045
O	-0.6679023595287008	12.192650936487391	23.226140264941996
O	-1.789081387521652	11.729247491054155	23.861946109525405
O	-1.6628010793361958	10.975421000586566	25.02509090609344
O	-0.4121666663418544	10.393421792723629	27.140200314644236
