87

O	0.3892320991267606	-1.2442173230985913	-1.5213724345915494
O	-0.9949205227732394	-1.1920278630985917	-1.1314195405915493
O	-2.2612398808732395	-0.7396909730985916	-2.0103444625915494
O	0.09339906912676055	-0.38367904309859135	-2.6667477925915493
O	-0.8996924828732393	0.7404293221014085	-2.4856630725915494
O	-1.9008973098732393	0.6940957095014085	-1.5653628975915492
O	-1.4641840638732395	1.7186211269014087	-0.8509096755915493
O	-1.0799001780732393	2.4735112569014084	-1.7662587925915494
O	0.1453642691267607	1.8308283669014087	-2.134634772591549
O	-1.2343216568732394	-1.0104990230985913	0.10118060940845075
O	-1.1927927918732393	-2.6944213530985914	-1.5988495725915493
O	-0.33916329987323934	-0.8637484330985915	-3.695535402591549
O	0.8379504691267605	1.6030736609014085	-0.9275135785915493
O	2.0161840791267607	0.8679127919014086	-1.2593855595915493
O	1.1065048191267608	1.0027674549014085	0.21645173140845075
O	1.5057433291267608	2.7783699869014082	-0.5077133650915493
O	-2.936426610873239	-9.890366143098593	-8.720120782591549
O	-6.33791885087324	-9.619254743098592	-6.96987434259155
O	-6.891765340873239	-6.6968071230985915	-4.64874620259155
O	-9.41216723087324	-3.356728203098591	-0.2697746845915493
O	-9.57986186087324	-7.0537294030985915	0.37087382040845074
O	-10.668582620873238	-3.6041831830985918	4.49481462740845
O	-7.700564330873239	-5.918352583098591	4.92440792740845
O	-9.97819711087324	-8.639266653098591	6.40812872740845
O	1.0190177791267607	5.348401606901409	9.544631377408452
O	4.0411805891267605	3.9452925869014086	7.675992997408451
O	6.3937605391267605	6.7216694769014085	8.920511127408451
O	3.855687219126761	9.278192876901407	7.69825148740845
O	3.6973976991267605	7.521064106901409	4.2722477974084505
O	7.51786567912676	7.754373396901409	4.19254140740845
O	4.956000089126761	12.196891256901408	2.2585984574084508
O	7.23906944912676	10.327481576901407	-0.1848595265915493
O	7.5201012291267615	14.576558056901408	-2.8889088225915494
O	10.30004004912676	9.217903996901407	-4.30976851259155
O	9.721638849126762	5.479181326901409	-4.70867566259155
O	6.98772051912676	3.7337207969014083	-6.69740776259155
O	6.64562693912676	2.7197478069014083	-10.295645692591549
O	1.5581463391267607	2.6077100869014087	-8.772298642591549
O	1.9119788591267608	-0.8906894530985915	-7.47019321259155
O	-0.4964650838732394	-2.7512517630985918	-9.74735380259155
O	-2.9810278508732395	-0.04623171209859145	-10.488109092591548
O	-2.7835778608732396	3.4614964269014084	-9.245480532591548
O	-2.7406735208732393	2.9981758469014084	-5.65379384259155
O	-5.5345086608732394	0.5269979029014086	-5.56705382259155
O	-7.669979270873239	2.9434641369014085	-7.72175969259155
O	-7.106853610873239	5.788208196901409	-5.14829563259155
O	-7.552607010873239	3.4146078169014085	-2.191024602591549
O	-11.02611779087324	2.3744956169014086	-3.301317332591549
O	-12.678804550873238	5.650019246901409	-2.120692372591549
O	-10.596822170873239	5.958757966901409	1.0532760474084508
O	-11.44868705087324	2.3859238569014085	1.9930640674084508
O	-15.193259650873241	6.237059516901409	3.5207732874084505
O	-13.17502195087324	4.498607696901408	6.2468934874084505
O	-4.7563086608732394	7.522255546901409	8.033782567408451
O	-7.361621350873239	10.304137956901409	7.70533906740845
O	-8.68437671087324	8.152618916901408	4.789263467408451
O	-5.29045561087324	7.820030036901409	2.990496327408451
O	-5.28921500087324	3.9682124169014084	3.6151025574084508
O	-2.947941200873239	3.8161963469014086	6.62600611740845
O	-0.7040450358732394	1.3251530729014087	5.101845017408451
O	-3.1039186708732394	-1.5472622430985914	5.61716271740845
O	-2.6954905608732393	-1.0304560130985916	9.338393247408451
O	0.5599673291267606	-3.0049793030985916	8.747363427408452
O	-1.7539115558732394	-5.993448553098591	8.918411507408452
O	2.3581739391267607	-8.422874123098593	10.237020877408451
O	4.3235794091267605	-7.580263323098591	4.1740652874084505
O	7.001631489126761	-7.075789573098591	1.5157020174084508
O	7.565651069126761	-3.684442733098592	-0.1575895185915493
O	10.81551084912676	-3.1071435530985916	-2.076233622591549
O	10.69999484912676	0.1456133939014086	-4.01568411259155
O	12.64402504912676	2.0408722269014086	-6.6734430625915495
O	11.521419249126762	5.200132586901409	-8.575490672591549
O	10.194821349126762	-3.986089873098592	-7.69000146259155
O	9.119258849126762	-6.295422843098591	-4.90535522259155
O	5.4538896591267605	-6.181167413098591	-3.886763642591549
O	4.226850649126761	-8.820510213098592	-1.4222670135915494
O	1.0377226891267606	-9.850978043098593	0.31417624640845077
O	-3.6367023608732394	-10.804784143098592	2.493508887408451
O	-7.1896558608732395	-11.408129143098591	-1.4046213115915491
O	-4.065445720873239	-11.365820743098592	-3.578019562591549
O	-0.6522037758732394	-9.712358643098591	-3.859065142591549
O	4.801043129126761	-8.090620603098593	-7.91835814259155
O	10.878522049126762	2.3037395669014087	-0.4229764785915493
O	11.400129949126761	-0.39878982309859146	2.2331235874084507
O	8.416951769126761	-1.9058654830985917	3.951483247408451
O	9.34745794912676	-5.220072413098591	5.51455953740845
O	6.88934896912676	-6.310835493098591	8.215211187408451
