87

O	-1.6966991223928565	0.06383227208928521	-2.063638239185714
O	-2.8770782963928565	1.7685037660892853	-1.733332418185714
O	-3.5868055663928566	1.0616028280892853	-2.6785223081857144
O	-3.343315496392856	2.6579058960892854	-1.0352507712857142
O	-1.5012558901928563	1.5464196760892852	-1.573476134185714
O	-0.4624765863928564	-0.19551622591071482	-2.491894318185714
O	-2.4149686473928567	-0.8273612139107148	-1.510238383185714
O	-0.2657000963928564	2.1041743160892854	-1.557885883185714
O	-0.3279951463928563	-1.595710323910715	-2.792663638185714
O	0.8706159036071437	0.2907289370892852	-2.154546908185714
O	-2.024911820392856	-2.0224374039107147	-1.1431400995257142
O	-1.1394204593928565	-2.540812643910715	-2.016029332185714
O	0.8869955036071437	1.6884380240892853	-1.833756073185714
O	2.0256140236071434	1.9946554860892851	-1.020453312185714
O	-4.722191266392857	1.3666575610892853	-3.551170328185714
O	-2.7720783963928564	0.8194452755892853	-3.955112388185714
O	-3.5016141763928563	-0.42603214391071476	-4.190615528185714
O	-4.720253956392856	-0.14022792691071473	-3.668343678185714
O	-5.434683096392856	-1.1470275539107146	-3.160926828185714
O	-4.904143116392857	-2.407160043910715	-2.903653558185714
O	-3.8932090563928563	-2.6772746439107147	-3.772423278185714
O	-3.2248802463928565	-1.711415523910715	-4.531167278185714
O	-3.1108150963928565	-0.8751837839107147	0.5041672218142859
O	-4.307269536392857	-0.6608722639107149	-0.26050154818571414
O	-2.8036859263928564	0.3373402670892852	0.9669845218142861
O	-5.282575916392856	0.29669250708928524	-0.2135822461857141
O	-6.111229086392857	1.2425320280892853	-0.8749935871857141
O	-1.6749912993928564	-0.9620813839107148	-0.01399623818571416
O	-0.9388142903928565	-2.238018333910715	0.7031299218142859
O	-0.9432124353928564	-2.240048693910715	0.708010781814286
O	0.21261955360714357	-1.2232487139107149	0.6595405118142859
O	0.2915866036071435	-16.895301663910715	-1.244810565185714
O	5.522242953607144	-4.869349403910714	-8.552277128185715
O	6.261526153607143	-3.0244041239107147	-5.291637598185714
O	7.6881213236071435	0.07113375308928527	-6.996220678185715
O	4.621242583607144	0.2449970340892852	-9.218211758185715
O	2.5300954836071434	0.05284710008928517	-6.139221328185714
O	4.484402673607143	2.9787785060892853	-4.632895398185714
O	4.043276243607144	4.9507135160892854	-7.863558258185714
O	0.16342145360714366	4.383656706089285	-7.6576399481857145
O	0.1713304536071436	5.529012406089286	-4.017598338185714
O	2.2907837436071437	8.649225566089285	-4.967291578185714
O	-0.08631183639285633	9.412229956089284	-7.913730488185713
O	-3.0738145563928567	9.135615836089285	-5.4403804581857145
O	-1.7820835353928564	11.677545136089284	-2.917236858185714
O	-5.883733306392857	14.307304536089285	-3.930415068185714
O	12.847507913607144	-1.991283603910715	2.303203451814286
O	10.768896413607143	-0.17672045091071475	-0.3032698101857141
O	9.774439113607142	3.207089546089285	1.0312853318142858
O	7.399871413607142	5.689382506089285	-0.42009372718571414
O	2.580390883607144	8.229061496089285	-1.090453351785714
O	-0.9648102563928564	8.208609686089286	0.25610086181428593
O	-0.49225897639285643	5.674928996089285	2.9557443818142857
O	-2.9980223063928566	3.085721936089285	4.143428061814285
O	-5.719398676392856	3.329463606089285	6.829810371814286
O	-6.476660956392857	0.6142501430892853	9.439436501814285
O	-9.566523256392857	-0.27243770391071476	7.3615348718142855
O	-7.449574186392857	-0.8824972039107147	4.310000341814286
O	-5.154458966392856	-3.225025483910715	6.192351861814286
O	-7.715250586392857	-5.4113959739107145	7.761825161814285
O	-10.499155806392857	-5.315888073910714	5.293247991814287
O	-10.433463346392857	-3.4025675539107145	2.167886651814286
O	-7.249668796392857	-4.729360453910714	0.4907904018142859
O	-8.323656476392856	-8.184415153910715	1.0361948518142858
O	-10.563948066392857	-6.252542923910714	-3.5283783181857142
O	-7.775912876392857	-8.838770533910715	-3.756941568185714
O	-7.837204736392856	-10.411528163910715	-8.691772928185713
O	-4.509391176392857	-8.753073993910716	-11.653698198185715
O	-3.8825066363928564	-5.919610973910714	-9.111625568185714
O	-2.2851775573928563	-8.389819153910715	-6.541090148185715
O	1.3913039836071435	-7.728859683910714	-7.271324168185714
O	2.0988138736071438	-7.168716833910715	-3.6116523581857143
O	2.0058148336071437	-10.858122663910715	-2.853884828185714
O	6.924853673607144	-10.161682163910715	-2.200821858185714
O	4.316040033607143	-2.985594413910715	6.064472591814287
O	4.604210783607144	0.25336084308928525	8.051453721814285
O	2.1344183936071435	2.8177858760892853	6.773899131814286
O	0.6350305036071435	6.191309886089286	7.682952961814285
O	-2.4054515383928563	7.876071476089286	6.021095481814285
O	0.7040299536071437	4.781538076089285	11.988063101814285
O	0.2729515336071435	0.9854873280892852	11.707119301814286
O	1.1133472936071436	-4.972348243910714	9.312008101814286
O	2.9198167336071434	9.860053336089285	5.506421921814287
O	3.4800964036071433	6.893582416089285	3.2747933818142863
O	4.261919993607144	3.151863656089285	3.187119421814286
O	7.422193263607143	1.0951094070892853	3.8734150318142855
O	7.404461753607142	-2.516413673910715	2.802477031814286
