26

O	3.325355117293509	8.687703414645998	24.195005443680188
O	3.045031538910532	9.54558091895907	25.34640790667907
O	1.6017179221964502	9.84860410615599	25.55192275220666
O	1.1932579043412432	11.04626294919725	25.68852367424043
O	1.8452063060609531	10.609827097640169	26.868388404383666
O	1.0128167036383835	10.847530332783004	27.769680816031844
O	-0.3256583782528695	10.374454077881602	27.353385456382853
O	-0.688301658616985	9.129995632983096	27.389299615817965
O	0.7502445827332362	8.691989272609804	27.13897581653731
O	1.403585711901695	8.737866185458259	28.318435952508253
O	0.44092638815819196	9.364517720666349	29.231328537247986
O	0.718033795394458	7.77180648551815	28.091054524883294
O	0.5985938183605066	8.091172076079655	26.48857533525698
O	1.7937624358254034	6.909293450639567	26.378869699609893
O	2.9370275160124004	6.895480591372144	27.14054488703598
O	3.815352978954123	5.916377742351016	26.30484579261607
O	3.903279774844588	7.844472628358075	27.565269595112202
O	0.8605666609835776	5.997672126299858	27.369932794947026
O	1.520659542014287	5.829559750781062	28.561707753293838
O	-0.49045740911701285	6.330954184807561	27.71480032438151
O	-0.4594866936490949	7.285520237730391	28.78430442814048
O	-1.316570501636749	8.174951995635162	29.189787673591436
O	0.08686967055339156	8.47774905122727	25.95777504237094
O	-0.60522887741456	9.522697696524723	25.08095230022583
O	-0.8830820538082682	10.720824563041656	25.855597886528813
O	0.11065748718891744	11.604491601346446	25.91841792362725
