78

O	1.9338288981470582	0.6551270848529419	-1.0949438366617643
O	4.646138838147058	-1.616202077147058	1.3250053933382357
O	1.9833057981470583	-0.5474219681470581	-1.4936434066617643
O	1.7070527981470582	0.7669199198529418	0.24692872733823573
O	2.4058048181470584	-0.05424240814705808	1.0529790433382358
O	3.145001728147059	-1.019228657147058	0.5221059163382358
O	2.9717674481470584	-1.255623397147058	-0.8122027866617643
O	1.8792077481470582	-0.8829609171470582	-2.7072164466617643
O	5.8871565481470585	-0.31216688814705806	1.3837664433382357
O	0.33026605814705856	1.293955622852942	0.5330911333382358
O	-4.646412811852941	9.787746602852941	0.13377129333823579
O	-1.2263010018529417	11.057730612852941	-1.0158429676617642
O	0.4521674581470584	8.940762502852941	1.693665913338236
O	-1.1086392828529414	5.795356562852942	0.3467213183382358
O	-0.4985335028529415	6.681176942852942	-3.296771946661764
O	3.1298511381470586	7.408226782852942	-2.4588911066617642
O	3.4527610581470585	4.049229242852942	-0.7758406466617642
O	1.9838842481470582	2.640305382852942	-4.116279826661764
O	4.481524628147058	4.481686512852942	-6.136923246661764
O	7.430279808147058	3.168953022852942	-4.007139556661764
O	6.125272308147058	-0.3843455961470581	-4.399823696661763
O	5.735656288147059	0.08470640785294191	-8.191283116661765
O	9.30223824814706	1.538666662852942	-8.384044656661764
O	10.572798548147059	-1.583128187147058	-6.485410356661764
O	9.06534978814706	-4.1977664671470585	-8.795168456661765
O	10.138227848147059	-2.1092216571470583	-11.779133906661764
O	-2.7565833018529413	2.657605092852942	-9.463571186661765
O	-8.763818391852942	4.480284842852941	-6.898641056661764
O	-12.10707905185294	2.7682268228529416	-6.353013326661764
O	-12.34220205185294	3.6603674828529416	-0.7704851206617642
O	-9.781363921852941	1.2341246228529419	-2.154529876661764
O	-6.2741948718529414	2.108100782852942	-3.296567066661764
O	-5.033623301852941	-0.5927916471470581	-5.6343347466617635
O	-1.5377470148529415	-1.010621837147058	-6.950702376661764
O	0.3347096981470584	-3.6312289371470583	-9.021677946661764
O	3.576796018147058	-3.0061691571470583	-7.150268706661763
O	5.865227248147058	-5.4951310371470585	-5.520182246661764
O	3.4007068581470588	-6.662531037147058	-2.8693409266617644
O	4.096311898147058	-7.747642637147059	0.6952237233382357
O	6.537618208147058	-7.901574127147057	5.979768243338236
O	3.0350861481470583	-7.922889287147058	7.468868043338237
O	3.746847588147058	-9.549437737147057	10.833971393338235
O	9.24031924814706	-6.277740287147058	9.046348373338235
O	6.969233478147058	-3.2784576971470583	8.628876593338235
O	3.8955406181470584	11.839866012852942	8.731405093338235
O	5.308712148147058	10.514493712852941	5.409762573338236
O	8.729667388147059	12.130774112852942	6.015388833338236
O	8.99949109814706	9.505607492852942	8.816015003338235
O	8.12213001814706	6.485712232852942	6.560230473338236
O	4.833054028147059	5.8295515628529415	8.600246163338236
O	2.3041518781470582	7.525863162852942	6.3018375533382365
O	0.21808967814705837	4.371790532852942	6.168911863338236
O	-1.2756176038529414	5.055397122852942	9.592941553338235
O	-2.7620931718529413	8.309490872852942	8.308449363338235
O	-5.434396061852942	5.957309542852942	6.892927413338236
O	-6.841868931852941	6.136242712852942	10.383830093338235
O	-8.392813881852941	-0.8533321571470581	7.195041953338237
O	-8.046575881852942	-4.076842207147058	5.214631443338236
O	-4.898060991852942	-4.733847567147058	3.158181573338236
O	-4.910088971852941	-7.469998907147058	0.5508708713382358
O	-1.4630346368529414	-8.118065917147058	-0.8379650816617642
O	0.4178490081470584	-10.602985887147058	-3.0001713866617643
O	-2.7568193918529413	-12.387554287147058	2.494778403338236
O	-5.396211321852942	-10.262822587147058	4.1742679233382365
O	-4.207638501852942	-7.910921457147058	6.926268273338236
O	-4.289780781852941	-6.532145827147058	13.845305993338235
O	-3.487632081852942	-11.704063587147058	9.226233503338236
O	-4.879253301852941	-10.435320887147059	-7.576959326661764
O	-1.7722070248529416	-11.466548287147058	-9.501757996661764
O	0.6983420281470584	-9.205943567147058	-7.635049406661764
O	0.36144910814705844	-6.016488237147058	-5.661427466661764
O	-1.5171281708529416	-4.407305127147058	-2.7896653066617643
O	-5.089244751852942	-3.1584533471470584	-2.211592006661764
O	-5.697905961852942	-0.950747437147058	0.7901554133382358
O	-9.439025641852941	-0.9571760971470581	1.5668254433382358
O	-10.503107051852941	2.010658822852942	3.705621683338236
O	3.3585270281470585	14.026152612852941	-10.608502606661764
O	3.2171308381470585	10.359073312852942	-9.708384696661765
