40

O	3.488973748075806	6.367461726667045	28.18744873477924
O	3.2888835862185855	9.420318479612925	24.693690373375183
O	4.548780203528248	9.548354070818016	25.51084608848208
O	5.058165016201626	10.905720262303198	25.657227225117772
O	4.132447822313095	11.89999796163012	26.114352492246432
O	3.789272945232382	11.33205510283951	27.340185284734364
O	3.913448189360812	9.980225440502146	27.63201869951988
O	3.8069601062090546	9.002950296431678	26.64169936251362
O	4.348259619676567	7.566682431327287	27.35605575114982
O	5.392987184875292	7.055386328082002	26.574603595519807
O	4.773779453766942	7.75826848213414	28.733968077017746
O	3.117017051135504	6.037066311746793	29.493232639417037
O	3.0458241316916195	4.563387237869807	29.748057144979306
O	4.3024771803925805	3.8595711327592266	29.79066717720216
O	5.208433638826165	4.828253409649146	29.169806837492118
O	4.4352689344283425	5.332861793693002	28.078308507281648
O	4.391950621977537	2.695552954822398	28.946075361044784
O	1.535572610499126	9.491842120779918	26.107933491754284
O	1.1205570940936027	8.096947260065264	27.864994733074088
O	1.7371865554885266	7.140610787528116	27.04640710294013
O	1.4185664668462763	8.521018311005168	29.017457386743793
O	0.4866863185188458	9.14716208061144	27.120999804964438
O	0.9331088603097448	10.596973628629145	25.467982024230217
O	2.0075284149115604	9.10917551431913	24.935154011985315
O	-0.8075292961277942	9.0511672105366	26.548708335283525
O	1.6410428688146304	11.32593642176503	24.416721865707682
O	-0.38873080342911703	11.077669523539118	25.505289054216192
O	2.7992040938446676	10.569090384904067	23.996778473126593
O	-1.318649168155515	10.140496042758103	26.13305446172354
O	-2.5097372127232265	10.445993170001037	25.487919081820944
O	1.4650848180945837	7.013317775721481	25.6531915966605
O	1.278558675119233	5.685203691470576	27.12068418405687
O	2.334282292034548	5.272465478690661	26.13971498358558
O	2.5913724915042184	6.250989804241847	25.24673540720487
O	3.4960761019569495	6.195573759692633	24.268053520903212
O	4.476142754259465	5.263216392006626	24.51085105242317
O	4.298690975135876	4.259236539509539	25.401687730431913
O	3.049079364654564	4.170407870082697	25.94795928142406
O	4.005117281615911	13.2184244201049	26.038022991987958
O	2.4496242774271106	11.9637888331555	27.513649957664946
