84

O	1.1654810705081973	2.973353197081967	0.821695412186885
O	1.4651117205081972	-0.010946541918033126	-0.19822206781311497
O	-0.0019986284918027675	6.760271067081967	0.07024883518688503
O	0.8285136005081972	3.309353737081967	-0.4582967278131149
O	0.22671932050819732	0.27429874008196686	1.578565685186885
O	0.2054820905081972	4.5438462770819665	-0.649397939813115
O	0.10730917350819724	-3.3461776329180335	-0.013814677313114969
O	0.49955573050819724	5.508882447081967	0.31489520218688505
O	-0.8179208374918028	-2.0086939429180335	1.597496685186885
O	0.32971136550819724	5.055082357081966	1.6216719651868852
O	1.699663570508197	-2.520280512918033	-1.6528800948131148
O	0.6511293705081973	3.7237427870819673	1.842474485186885
O	-1.3483634794918027	6.824945557081967	-0.3223032558131149
O	2.0848309605081976	1.9154435770819669	1.269302855186885
O	1.2613393605081973	0.7764816330819668	0.838511427186885
O	0.8284012605081972	-1.169216552918033	0.10879731918688504
O	0.04629298550819727	-1.0328879929180332	1.2510892051868852
O	0.8779415305081972	-2.380528442918033	-0.5167404228131149
O	-0.5833502327918028	-3.215277362918034	1.1137821551868852
O	-0.46818408949180274	0.8263391938819669	2.7194531751868847
O	0.31962617650819725	0.7791485680819669	3.9903531951868847
O	0.11975101050819725	-0.45396307291803306	4.8187657451868855
O	0.009675410508197313	-0.027286450918033167	6.274364335186886
O	3.5207846305081976	15.616264717081966	-2.505088204813115
O	10.145367900508196	2.1817743370819667	-1.402259264813115
O	7.242753600508197	0.4668912670819669	-3.215769304813115
O	8.872662610508197	-2.993699372918033	-3.087852374813115
O	9.372212280508197	-2.548926972918033	0.653602121186885
O	5.688055280508197	-1.593965302918033	1.0229940651868852
O	4.773127760508197	-4.7167936329180336	-0.842953985813115
O	7.086998080508198	-6.8282720829180334	1.3669738851868851
O	5.367001140508197	-5.436492972918034	4.544652595186886
O	1.9391747605081975	-6.267409372918033	3.0608987151868847
O	3.1551604405081974	-9.798052482918033	2.178191095186885
O	4.553242500508198	-10.223752082918033	5.752111445186886
O	1.0972382805081973	-9.157868682918034	7.113168365186885
O	-0.9781452034918028	-11.708817682918033	5.201736645186886
O	-2.3745785694918027	-13.525433882918033	9.611629865186885
O	3.4171924005081973	-1.6602870329180333	-12.388766854813115
O	4.443020240508197	-3.0800969329180328	-9.017252154813116
O	2.218749880508197	-6.025814362918033	-8.188040494813116
O	1.9981008205081972	-7.892630592918033	-4.933539634813115
O	-0.02732928049180272	-9.097808382918034	0.03965662678688503
O	-2.8294513494918023	-8.315496972918034	2.401655335186885
O	-4.459987669491802	-5.645637422918034	0.245477327186885
O	-6.219728159491803	-2.4807901629180336	1.347719155186885
O	-9.831655649491804	-1.9056465629180332	2.423770935186885
O	-11.849624699491804	1.1369945140819668	1.4176044551868852
O	-11.217125199491804	2.4747923570819665	4.953277875186886
O	-7.439697729491803	2.285674637081967	4.4552395651868855
O	-7.684381459491803	4.207952427081967	1.181698225186885
O	-9.944901919491803	7.072772637081966	2.245269685186885
O	-9.030717919491803	7.4032075470819665	5.870278905186885
O	-6.526140829491802	5.213459997081967	7.622418885186885
O	-3.455079829491803	5.676946267081966	5.493228465186886
O	-3.8759302994918023	9.451568477081967	5.516507855186886
O	-1.0888592294918027	7.573036557081966	9.904018275186884
O	0.7303252605081973	9.526726057081966	7.170576855186885
O	5.306820190508198	10.698445557081966	9.219727945186884
O	10.793611400508196	5.4316985170819665	4.002665855186885
O	12.195399900508196	5.8799398670819665	7.538477545186885
O	9.061352500508196	8.061421217081968	8.049971785186884
O	6.575500830508197	5.401659377081967	6.779222775186885
O	5.546966370508198	7.641432667081967	3.7396278751868848
O	7.725815240508198	6.085666307081967	1.015709895186885
O	4.696575360508198	5.581906427081966	-1.205129994813115
O	4.684417890508198	9.264581957081967	-2.188237344813115
O	8.153964490508196	8.897358587081968	-3.690753974813115
O	6.178797990508198	7.4282726370819665	-6.619626064813115
O	5.693077370508197	11.054402717081967	-7.538128004813115
O	-3.558322789491803	1.715227993081967	-7.091207254813114
O	-5.736574609491803	-1.336820142918033	-7.573180564813114
O	-6.1743514594918025	-3.287269742918033	-4.377961614813115
O	-8.218254679491803	-6.119436822918034	-2.905030484813115
O	-8.424510749491803	-7.149546852918034	0.793222330186885
O	-11.732471999491803	-4.462094662918033	-5.260725594813115
O	-11.000302999491803	-0.7078020529180331	-5.426916694813115
O	-7.434458509491803	4.677844997081967	-6.069999864813115
O	-5.948720259491803	-10.398662682918033	-3.156055594813115
O	-3.2170825694918026	-7.836498102918034	-3.106199994813115
O	-2.1525728594918028	-4.471428662918034	-4.516880314813115
O	-0.9647170554918028	-3.1775012829180334	-7.917573014813114
O	0.6238285905081973	0.23517408808196683	-8.060712424813115
O	0.5383795405081973	1.5076592510819669	-11.647142154813116
