29

O	-1.5854099370150425	10.196549374621807	26.702358751982025
O	-0.6798907723839791	9.531626201248903	27.56329818028588
O	0.316074374266754	8.92072489324171	26.79189466700486
O	0.7463630611532059	9.569838522289809	25.59089734771388
O	-0.018194048436519283	10.590323532297566	25.25656998517066
O	-1.3466668961239872	10.75036680070501	25.499116577900878
O	1.9741046839215475	9.415914757066828	25.180822506168003
O	1.8967052876989006	10.653817079547236	24.72004722215733
O	0.7044694467626813	11.101442960191353	24.236581653303354
O	-1.969699915979631	11.64026607532715	24.589045843200953
O	2.152591482822837	8.075470334383503	24.671400855099197
O	2.960083474882447	7.211566731818166	25.486750702829838
O	4.250686792391375	7.970790634497191	25.372106936035244
O	4.741187240608371	8.45082600741436	24.193629873673647
O	6.059622226643591	8.883674210516975	24.04652013359822
O	6.971645098878771	8.243865084967977	24.839508234772858
O	6.4889078313659665	7.792697777890743	26.064009519468925
O	5.146841512882714	7.698194556422678	26.363655183435235
O	2.7435033081683073	11.050071458277408	23.495622874529605
O	4.0583336863482025	11.66398940103532	24.090311857126032
O	5.137834266547808	12.022161046282346	23.285424923709137
O	6.2752927441041875	12.562603389555273	23.950604357986077
O	6.077321069357063	13.573580454669157	24.850465613824237
O	4.794972477399431	13.625017587302846	25.34160465145062
O	3.9817224330969427	12.461871851147885	25.247441659617234
O	6.56860253814948	14.81013765179331	25.303168048319847
O	5.606575886742037	15.823451451307093	25.238245052277705
O	4.51946773672388	15.004543821397483	25.53294407469927
O	4.129822181918641	12.798923958353448	21.71392398589669
