84

O	3.186681601824561	-2.38045239477193	3.150508513842105
O	0.5546854238245613	0.87339937222807	-2.265679046157895
O	1.8505615318245614	0.8485953402280699	-2.1046716861578947
O	2.183578231824561	0.14155258122807002	-1.0444647191578948
O	0.9972785548245613	-0.08964845277193001	-0.5037047481578948
O	0.04180180082456128	0.19316771822807	-1.3224946111578948
O	0.8238654968245613	-0.32775546477193007	0.9113278038421053
O	3.3409429118245613	0.28822221622807	-0.24660719015789478
O	2.801148921824561	1.26597358722807	-3.099566026157895
O	2.811639041824561	0.29095344622806996	-3.854789866157895
O	4.060739551824561	1.67358450222807	-2.7151193861578946
O	1.7572757318245613	-1.13882099477193	1.4631111838421051
O	1.9002064818245614	-1.16589256477193	2.805929073842105
O	0.8161827628245613	-0.8251712247719301	3.536251883842105
O	-0.2309992721754387	-0.15393992077193008	3.0004264338421054
O	-0.03578279917543872	0.35909225322807	1.7247134238421054
O	3.618535961824561	1.4831779112280699	0.3474212238421053
O	4.999052101824561	1.79481424522807	0.38434180384210515
O	5.896989041824561	0.76287791752807	0.09144401784210521
O	5.406222701824561	-0.44116822477192996	0.5985325638421053
O	4.093573161824561	-0.70847133477193	0.2616552538421052
O	7.240263181824561	1.11204885422807	0.2571367428421052
O	7.5934243018245615	2.3560487752280697	-0.2879422021578948
O	-1.1940339981754386	0.84512014422807	1.1788997338421052
O	0.7918369998245613	-1.1161610047719301	4.867181213842105
O	5.062957841824561	1.6999779582280699	-3.725903126157895
O	4.367957501824561	1.95087831522807	-5.068472466157894
O	3.657775191824561	3.28495299522807	10.603482713842105
O	0.9871798558245612	1.37334879622807	8.704958563842105
O	-1.3537444481754386	4.3419389852280705	8.376012073842105
O	1.5662159918245613	6.36530656522807	6.998990113842105
O	2.336220071824561	3.61342353522807	4.441951133842105
O	-1.2589743081754388	3.6622988152280698	3.457895983842105
O	-1.2341256881754386	7.49471060522807	3.182773833842105
O	1.7932097518245613	7.44696112522807	0.8586720838421051
O	-0.012095058175438711	4.84705133522807	-1.3048116561578946
O	-3.102554448175439	6.97493474522807	-1.4253006571578948
O	-0.9816874781754386	10.05415892522807	-2.364086616157895
O	0.5912857338245613	7.95188576522807	-5.214717206157895
O	-2.6514669481754387	6.86483148522807	-6.887196116157895
O	-3.942787568175439	10.393289795228071	-6.421239386157895
O	-0.8883821781754386	11.87384388522807	-8.208282086157896
O	-1.0907566881754387	9.24763419522807	-10.963852986157896
O	-4.780729338175439	9.94494258522807	-11.618015786157896
O	-9.392211128175438	0.34026235022806994	10.658696913842105
O	-5.692467828175439	-1.6750605947719301	8.059799003842105
O	-7.440590018175439	-1.13324298477193	4.752378653842106
O	-6.516955448175439	1.4291974782280699	2.1624982738421052
O	-7.6387263981754385	2.2158192852280703	-1.4034192871578948
O	-4.212335088175439	3.38930835522807	-2.457495066157895
O	-2.139122178175439	2.3492335952280703	-5.3994770161578955
O	-1.7120682681754387	-1.28994482477193	-4.459594536157894
O	1.2192551718245614	-3.62954143477193	-4.961721686157894
O	2.1885819918245613	-5.74768194477193	-7.988094596157895
O	3.6230147518245612	-9.244317154771931	-7.697289766157894
O	7.046128581824561	-7.702547394771931	-8.479041776157894
O	6.783711341824561	-5.41920661477193	-5.473072986157895
O	5.9248359018245615	-8.286621664771928	-3.162979846157895
O	8.616620881824563	-10.759399514771928	-4.190536156157895
O	11.126866661824563	-4.74307954477193	-5.0689041461578945
O	10.178712561824563	-4.00497284477193	-1.5424129081578948
O	9.691977071824562	4.82653139522807	9.860437913842105
O	14.335721361824563	4.39760016522807	7.742345043842105
O	11.437153661824562	3.59181817522807	5.349806963842106
O	10.920146061824562	0.053989729228069994	6.913385413842105
O	8.004447741824562	0.87222184422807	9.216740323842105
O	6.029050881824561	-2.00652904477193	7.864582013842105
O	7.984952431824561	-4.52805923477193	9.916099213842104
O	3.7267793918245613	-4.88690167477193	12.540710213842106
O	-1.2467271481754387	-8.48086051477193	3.042204023842105
O	-3.9740683581754386	-8.57721238477193	0.4249918438421052
O	-3.254128468175439	-6.13567214477193	-2.358064786157895
O	-4.430946208175439	-5.18994435477193	-5.844657026157895
O	-2.6843281681754387	-2.83675201477193	-8.333602046157894
O	-4.985619098175439	-9.637625014771931	-6.553180826157895
O	-2.295329458175439	-11.233472514771929	-4.315962906157894
O	-11.025924938175438	-5.48804526477193	-3.5593486361578948
O	-10.971465038175438	-3.13839771477193	-6.547757196157894
O	-7.569357788175439	-1.5148795647719302	-5.806253836157895
O	-5.530407498175439	-1.06713221477193	-2.6965036361578947
O	-4.095976348175439	-2.97029234477193	0.25891625884210523
O	-5.374846008175439	-4.65152524477193	3.430141253842105
O	-2.8190417781754387	-5.47402753477193	6.064443833842105
O	-3.469896238175439	12.251448785228071	7.823959503842104
