85

O	-1.7898703945120689	1.2604666880241382	-0.1687277404289652
O	-0.3670420353120689	0.4283340372241382	-1.0683265974289653
O	-1.443942774512069	0.09446036422413817	-1.8287619454289654
O	-0.652364051512069	1.8167571922241383	-0.9389424924289652
O	-2.5085894345120687	0.6006967152241383	-1.1876105014289653
O	0.49689718348793105	-0.0419510157758618	0.09510799957103477
O	-2.602597974512069	2.202862654224138	0.5199984845710347
O	0.07949188848793104	3.0028665942241384	-0.9512786924289652
O	-0.00657734051206893	-0.5849596457758617	1.3117990445710346
O	1.7871652554879311	0.5467556702241382	0.11396453457103484
O	0.707750635487931	-0.5182007557758617	2.4586056845710345
O	2.467633815487931	3.4678832342241384	-0.7746865994289652
O	2.015644885487931	-0.12062950577586173	2.313118744571035
O	2.625048315487931	0.3455689722241382	1.1849466445710348
O	1.4256777554879312	2.9059619442241384	-1.4167348914289652
O	2.267734805487931	4.157277914224139	0.3822081485710348
O	3.8024426754879315	3.5248049542241384	-1.0398904344289652
O	3.475163025487931	4.052784554224138	0.9919429445710347
O	4.505407025487931	4.072730354224138	0.02707207157103475
O	0.09595028748793105	4.0681615542241385	-0.09552971342896521
O	-3.199352914512069	3.1576108842241384	-0.2365045144289652
O	1.162056945487931	4.988964494224138	0.12577805857103475
O	-1.9761005745120688	3.154755654224138	1.3150611945710349
O	-1.334230678512069	-0.9550265557758619	1.3678140745710348
O	2.748973035487931	-0.37995613577586185	3.436678924571035
O	3.974632575487931	0.9396759182241382	0.9187916445710348
O	4.361572405487931	0.7761600382241383	-0.5602286323289652
O	4.050751895487931	4.810582894224138	9.168399504571035
O	3.373762595487931	1.4190308472241382	7.526869364571035
O	0.14284521248793108	0.8590434702241383	9.467366394571034
O	-1.044700209512069	4.237706554224138	8.256409844571035
O	-0.10808737551206893	3.234525954224138	4.615115184571035
O	-2.032810424512069	0.1597530942241383	5.045057554571035
O	-5.063461864512069	1.9536687602241383	6.714196464571035
O	-5.239846194512069	4.304361434224138	3.7424593445710346
O	-5.326899574512069	1.0808805082241382	1.4704392145710345
O	-8.023250074512069	-0.31538470577586186	3.3273922345710347
O	-9.95438513451207	3.0348110442241385	3.1086745545710346
O	-9.445523514512068	3.0203113542241384	-0.7219020704289651
O	-10.86621910451207	-0.44417115577586186	-1.4049708964289653
O	-13.65846540451207	0.3004655752241382	1.0342147345710346
O	-14.604228004512068	3.516488254224138	-0.8338506954289652
O	-14.30023440451207	1.7821009632241382	-4.214079335428965
O	2.722059935487931	-5.896567675775861	8.055543404571035
O	-0.14851752151206893	-7.336437155775862	6.126416044571035
O	-3.118577044512069	-5.547584795775862	4.833701764571035
O	-6.120283874512069	-6.5557362457758614	2.7074726645710347
O	-6.380976844512069	-3.1495707657758616	1.1826281945710346
O	-6.553599154512069	-2.1519243157758616	-2.4516339154289652
O	-3.129403264512069	-3.453100155775862	-3.4597128654289655
O	-0.615300939512069	-2.029355865775862	-5.931030695428965
O	-0.3918401468120689	-2.580015105775862	-9.730228805428967
O	2.897799875487931	-3.058668895775862	-11.560641305428966
O	2.581095475487931	0.5934924322241383	-12.688409005428966
O	2.460699795487931	1.7685093842241382	-9.105733625428966
O	5.609665625487931	-0.20623090577586178	-8.220339835428966
O	7.836754585487931	0.8194931632241382	-11.104028305428965
O	6.548304575487931	4.273542084224138	-11.810064005428966
O	3.7336749154879314	5.894810994224137	-9.919464555428966
O	4.929636205487931	5.701234954224137	-6.387194785428965
O	4.593430685487931	11.028736844224138	-6.353339175428965
O	4.734555305487931	10.744783414224138	7.070919944571035
O	3.519589925487931	14.367710034224137	6.750594094571035
O	5.452148235487931	14.272837334224137	3.4116027945710345
O	3.693833365487931	11.111417274224138	2.1095661545710347
O	7.0484102954879315	9.081859284224139	2.1013909445710346
O	6.699131845487931	7.222229534224137	5.408473904571035
O	7.359823385487931	3.886870854224138	3.721640814571035
O	11.08008899548793	4.573926944224138	3.5321825645710345
O	11.188980995487931	0.9347789122241382	7.008086644571035
O	14.88294619548793	1.4197461652241383	6.398776574571035
O	6.661208445487931	-6.100991585775862	-0.6315158325289653
O	4.1617991154879315	-8.617359195775862	-1.9338304454289652
O	1.1147146754879311	-6.930572875775862	-3.382587395428965
O	-1.984591084512069	-7.829505075775863	-5.407960255428965
O	-4.504140134512069	-5.401916075775862	-7.002056495428965
O	0.711972225487931	-10.574493765775863	-7.807030695428965
O	4.148879475487931	-8.888264565775863	-7.641215805428965
O	-2.8698193545120687	-13.470921165775863	-1.349055235428965
O	-5.828963334512069	-8.763310205775863	-2.6135961554289655
O	-3.670385794512069	-6.4729640357758615	-0.5910037274489652
O	-0.11835258951206892	-5.583554595775862	0.4413714345710348
O	2.405881035487931	-7.377057005775862	2.7441747145710345
O	5.517653545487931	-5.575377295775862	3.7547268745710345
O	-6.759236074512069	2.901324874224138	13.420611994571034
