25

O	1.6735281613857103	10.445021512306784	25.499413504509416
O	1.811885639585648	11.011017396023144	24.230746995561528
O	0.5641834718547208	11.028970447130929	26.137756887788544
O	2.1031297758266834	9.225155590496538	26.02632487367775
O	3.2511118857860932	11.299968341649997	23.94786499628156
O	0.7598278661325865	11.778457695320586	23.7714965365666
O	0.47145214540121294	10.056760067999129	27.58454640873168
O	-0.6810344495772191	11.200442532837018	25.507035257709052
O	1.2434653479621434	8.602850240544484	26.97428623906432
O	2.8382833637476517	8.317029655168179	25.30627758840914
O	3.520296756401121	12.657150391255314	24.12721287051796
O	4.216072336904596	10.339785809632472	23.99206376167962
O	-0.5669729964479533	11.49601084583421	24.2178728932587
O	0.8811179063932947	12.325975555146071	22.463686068580923
O	0.293529321480247	7.4328364945467005	26.953444408663135
O	4.641803265462314	13.049376843695782	23.417733288197034
O	5.4871177352336815	10.847109757520188	24.03491007926712
O	-1.7421417406881456	11.973008076635407	23.653473966791243
O	1.0882618428646542	13.247672771597273	21.762077565712264
O	-1.190035584249749	7.832148754764766	26.919673690634273
O	0.39535515662399423	6.64564330110023	25.960382520856353
O	5.645270414509449	12.068778665865647	23.429033219471545
O	6.904006991108503	12.611514080585446	23.471115274150094
O	7.1816942628493035	13.962458023816012	23.07034770031446
O	6.1223031539919734	14.27816809788309	22.016996896098515
