79

O	-2.684004482116667	0.5917825098016666	-1.1457615638633336
O	-2.636129872116667	-0.7414346611983333	-1.3246161598633335
O	-1.6906035711166667	3.5858649788016663	-1.6354718928633336
O	-1.400932689116667	1.2192728928016665	-1.0048929408633336
O	-0.9095605901166668	-0.9356097711983333	-0.19802554286333363
O	-0.4335479861166668	0.2959753778016666	-0.5899433466633336
O	-1.8102752241166669	-2.943808091198333	-0.8938553998633336
O	-1.4968468731166669	-1.5897128811983336	-1.1236137168633336
O	-1.0351506361166667	2.6516447288016662	-1.1498872188633336
O	0.3896579078833331	3.008238248801667	-1.6224018888633336
O	1.2432666978833333	1.9070035958016667	-1.1471639058633336
O	2.3320433278833335	2.7918638288016666	-0.5063979408633337
O	0.984263777883333	0.6951432288016666	-0.3941241708633336
O	1.8537333078833333	3.1518004988016664	0.7583080121366663
O	2.391981497883333	4.3114512088016665	1.3251205121366665
O	2.2319421378833333	5.425318218801666	0.5016429721366664
O	2.690950137883333	5.200860228801667	-0.7585288338633336
O	2.695729467883333	3.9023681288016663	-1.2720520238633335
O	-3.6205653221166667	1.6552195998016666	-1.5372112818633337
O	14.288087227883334	7.820986658801667	1.8390263121366663
O	7.757408777883334	-2.908263821198333	-6.384327537863333
O	5.826020707883333	-4.255302731198333	-3.369702437863334
O	4.291383867883333	-7.152125461198334	-5.354260297863334
O	3.105731507883333	-4.623399551198333	-7.946774697863333
O	1.5910828278833333	-2.5096799611983336	-5.164985237863334
O	-0.19965898011666683	-5.6814558911983335	-3.9623546678633335
O	-1.4357942651166669	-6.442580751198333	-7.442151437863334
O	-2.915623002116667	-2.9012908711983334	-7.839242067863333
O	-4.699370982116667	-3.284208491198333	-4.480616817863334
O	-6.035853102116667	-6.677204211198333	-5.441143247863334
O	-7.264699812116667	-5.2212741011983335	-8.801627217863334
O	-9.038684742116667	-2.4111499211983336	-6.794874767863334
O	-11.054985282116666	-4.686342411198333	-4.4881223378633335
O	-15.148252672116666	-2.688111431198333	-6.453977427863334
O	6.583311677883333	-10.232923871198334	4.782524262136667
O	4.581040657883333	-9.413257571198335	1.6671719921366663
O	0.9447937778833333	-10.177462671198334	2.3291918421366664
O	-1.9877239591166669	-9.353529371198334	0.16670878813666634
O	-6.283631112116667	-6.390104491198334	-1.5622687328633336
O	-8.382997342116667	-3.4021953511983334	-0.7350194600633336
O	-6.426353622116667	-2.3353488711983337	2.335846712136666
O	-5.680336102116667	1.1628929907016665	3.6016447621366665
O	-7.719618602116667	3.4872881388016665	5.820499772136666
O	-6.222690332116667	5.645897708801667	8.546507222136666
O	-6.590651842116667	8.606025808801666	6.1304941521366665
O	-4.432541112116667	6.883560348801667	3.5546939021366666
O	-1.7109232681166668	6.221674738801667	6.131215802136666
O	-1.4336787861166669	9.652288588801666	7.696280742136667
O	-2.385994592116667	11.849035728801667	4.802359012136666
O	-3.3382921721166667	10.565214168801665	1.3985988521366663
O	-0.35228691211666685	8.501519348801667	0.46155918213666647
O	2.0324414278833336	11.320772728801666	1.4804073121366663
O	0.20263831788333309	11.792492728801665	-3.7089938578633337
O	3.8449907178833334	10.824543178801665	-3.0484016078633336
O	6.171191657883333	11.357881528801666	-7.609637027863334
O	7.8865968078833335	2.5275686688016665	-9.612946137863334
O	7.280187807883332	4.604404288801667	-12.771989077863335
O	6.8923682978833325	7.511353058801666	-10.276727547863334
O	4.285964357883333	5.712801588801667	-8.067724257863334
O	6.761394327883333	5.696309288801666	-5.019654877863333
O	8.087264507883335	2.1330400088016663	-5.293000447863333
O	7.143119997883333	1.4241870198016666	-1.6868540078633336
O	10.198717627883333	3.3033474788016663	-0.39447661486333363
O	12.483233127883334	0.9110869748016666	-2.2351168078633337
O	11.799862827883334	-1.3277004411983333	0.7932804121366663
O	14.625855527883333	0.6366582248016666	2.3436835221366663
O	2.6950437178833333	-2.2112518711983338	7.570051642136667
O	-0.4113319691166668	-3.8574736411983332	8.897898892136666
O	-3.476353222116667	-2.9819929311983335	6.874815882136666
O	-7.247704882116667	-3.3539918711983336	7.061525362136667
O	-9.845893802116667	-1.6827773811983333	4.778157562136666
O	-6.902155262116667	-2.515010751198333	11.509309022136666
O	-3.8147776721166666	-0.2638772311983335	11.743633422136666
O	2.1581756678833335	1.7866074158016665	10.540937622136665
O	-8.857354982116666	-7.2873975611983335	4.715727182136666
O	-5.620548952116667	-6.343769631198334	3.0208326321366665
O	-2.0396773901166667	-5.202921321198334	3.6342201221366666
O	1.0623282978833333	-6.941249541198332	5.0983363121366665
O	4.376204677883333	-5.222812431198333	4.619830452136666
