31

O	2.692235948493521	10.477776993535114	27.249137161422187
O	-1.3412691762312747	9.830546213824883	24.441099086070487
O	-1.9280472844967655	10.764209857477335	23.630477921197436
O	-1.5634445731319764	11.961904284476189	24.122428938075803
O	-0.28643160423636416	11.975439447076296	24.704574612144498
O	0.5520132627405039	11.02369383867151	24.04575788748427
O	0.0975452428194317	9.791577121541712	24.64131342924562
O	-0.4150944973533237	11.804012170138005	26.217479737829596
O	-1.5277705430869126	11.548910336532272	26.972782897037757
O	0.2428538642964608	10.748212006646348	26.865290813080474
O	-2.8311469606741246	11.892253456035768	24.894734759502935
O	-2.3696746709156233	9.144231247667703	25.04278191323491
O	-2.116450373581404	10.417167163759842	27.0339478359408
O	-0.9221471674415392	10.013605550440364	26.850372199190215
O	-0.9119970280387258	9.059743405351883	27.714123410993977
O	1.6513538707423745	10.799667962513924	26.31829735110137
O	2.3697622642397813	11.692220335893047	25.511300759198985
O	3.7088805343291127	11.67591992929532	25.105889324456992
O	4.506109055795626	11.13878588031184	26.055055215116774
O	2.038736979048551	13.113337373434257	25.486848734685843
O	0.4893482106082815	8.710677427862775	25.45450194059534
O	1.5677785527701098	8.074939358737495	26.24479341569145
O	0.06138434241074245	7.608676504036961	25.18089008951775
O	2.2103358338448054	6.872570805546579	25.64376399694162
O	2.8377420355332963	7.867207944422894	24.79354681610228
O	4.011453735794896	10.145407735643863	26.82797164686803
O	1.7036416210796907	7.721225190517339	27.601738864195156
O	4.45463849210184	7.832221962450917	25.038722697305616
O	4.98945423938557	8.953648147127799	23.80260459458039
O	3.7753968715159107	9.376597928234794	23.35983691116636
O	2.674649549323965	8.744150449856706	23.82546113232826
