92

O	-2.64330621057971	0.7911319707420288	4.868035365275363
O	-2.37611914057971	1.0755352965420288	3.5509440052753627
O	-1.3114149675797102	0.9919210895420287	2.6409399852753626
O	-3.4435297305797103	0.9142921565420288	2.775541795275363
O	-3.53507961057971	-0.1084036424579713	1.9315558752753625
O	-4.6523808705797105	-0.07770465445797126	1.1352975552753626
O	-2.3551001805797105	-0.7338967004579712	1.7302527252753626
O	-1.1742490265797103	0.004204901542028794	1.7297894452753626
O	-0.3114235665797103	-0.7867413804579712	0.7566783972753626
O	-0.20427237057971032	-2.0231563404579713	1.5387301052753626
O	0.8961725194202897	-2.755487270457971	1.1263814452753624
O	1.97762720942029	-2.073200850457971	1.3636752152753626
O	2.96665263942029	-2.464358840457971	0.35532789727536257
O	3.5170167394202902	-1.504670130457971	-0.5233090177246374
O	0.18388639142028973	-1.5688261704579713	2.8389355852753626
O	-0.6117194680797103	-1.225959940457971	3.8910960952753624
O	0.1601582444202897	-0.8122318704579713	4.804702185275362
O	-0.08663829657971034	-0.4711525204579713	6.108925795275362
O	1.1892571894202897	-0.09915659345797123	4.066936235275362
O	1.0660493794202899	-0.44683388045797134	2.6739900052753627
O	1.96813576942029	-0.8042461604579713	1.6550657252753624
O	2.93715910942029	-0.037750544457971213	1.3250267452753626
O	3.3827418894202896	-0.21112668045797134	-0.01843654872463743
O	4.48593849942029	-8.726829840457972	-10.338772164724638
O	-6.85671495057971	-7.177769210457972	-0.6639562247246374
O	-6.74788002057971	-3.437764450457971	-0.8206928587246374
O	-9.72928981057971	-2.947915930457971	1.6123198652753625
O	-8.012784720579711	-5.344142910457971	4.061359415275362
O	-4.592735750579711	-3.3874456704579714	3.8205570152753627
O	-6.66950156057971	-0.24924857045797133	4.604816435275362
O	-8.33921426057971	-1.9242446104579711	7.573235115275362
O	-4.87578163057971	-2.959450100457971	8.996737735275362
O	-3.5643675205797103	0.5794554225420288	8.534932305275362
O	-6.715707590579711	1.968935399542029	10.269214935275363
O	-6.37085740057971	-0.5396529104579711	13.182888835275362
O	-2.7562204405797104	0.7126869461420288	13.620873235275361
O	-3.5130273505797103	4.436365239542028	13.964429935275362
O	-10.64122054057971	3.479290829542029	-9.185213394724638
O	-9.28984508057971	5.056703769542029	-6.024562594724638
O	-9.25731239057971	3.354924749542029	-2.611009464724637
O	-8.80000617057971	5.885487579542029	0.15880143827536258
O	-5.043512090579711	4.870229219542029	8.292083955275363
O	-1.5503576745797103	5.214190749542029	9.573993495275362
O	0.039121819420289694	6.233394569542029	6.309511985275362
O	3.5270653594202894	5.420919189542029	5.085079615275363
O	6.88534933942029	7.138099979542029	5.5952621152753625
O	8.39252528942029	2.3020866695420286	4.159128715275362
O	8.099543459420289	3.142980169542029	0.43145089527536257
O	11.69302615942029	2.6950973695420286	-0.6494290477246374
O	12.81164195942029	0.06298136154202871	1.7890673452753625
O	10.66664545942029	-1.4579718504579713	4.4764427952753625
O	7.841280579420291	-2.806626300457971	2.512028135275363
O	10.15947445942029	-4.436682830457971	-0.04626991172463743
O	12.23076195942029	-6.0212086604579715	2.742736055275363
O	9.13148756942029	-7.62633694045797	4.360975655275363
O	7.636492269420289	-8.528516040457973	0.9630207852753625
O	5.97132273942029	-13.386216170457972	1.5288239652753626
O	3.51406908942029	-17.32098677045797	-2.245499174724637
O	-3.13465595057971	-11.984283670457971	1.0702193152753625
O	-2.27222530057971	-14.979865070457972	3.301190725275363
O	1.3552763394202896	-14.138259770457973	2.3143983452753627
O	1.1119158494202899	-10.401741570457972	3.271623425275363
O	1.63256309942029	-9.312600270457972	-0.4637373187246374
O	-2.0124485205797105	-8.707863650457972	-1.5007803847246375
O	-1.1669761425797103	-5.193070280457971	-2.691136994724637
O	0.4052776994202897	-6.514142830457971	-5.863145274724638
O	-2.96507788057971	-7.99304304045797	-6.810021944724638
O	-3.6826047605797103	-4.393484090457971	-7.868188934724638
O	-1.8137328705797104	-5.442989420457971	-10.976029664724638
O	-4.40738540057971	-1.847478530457971	-13.114286964724638
O	-0.7558532835797103	2.154081919542029	-9.656847234724637
O	-0.2079016615797103	5.459097379542029	-7.877201414724638
O	-0.09727350057971029	5.598239309542029	-4.074768484724637
O	-0.4007461945797103	8.964933869542028	-2.323049614724637
O	0.33610985342028965	8.647967719542029	1.3868973652753624
O	0.9711822094202897	10.718538629542028	4.479245405275362
O	2.2663337494202898	9.525026839542027	7.8975828552753615
O	4.67620846942029	11.168000829542027	-0.9623004337246375
O	3.6308068394202895	9.813260139542027	-4.334670634724637
O	4.71377869942029	6.241244609542029	-5.151527864724637
O	4.10361169942029	4.953745489542029	-8.654534624724638
O	4.67050953942029	1.894972029542029	-10.760852764724637
O	5.62458615942029	-2.649025420457971	-13.128930964724638
O	8.89388261942029	2.279751249542029	-9.255754584724638
O	8.82048688942029	8.047125999542029	-5.359437044724638
O	-3.06204848057971	11.354181529542029	7.122034245275362
O	-3.5755161005797103	8.087742909542028	5.299742185275362
O	-3.19026778057971	6.399387929542029	1.9280023052753623
O	-4.9656285305797105	6.741773229542029	-1.5187111547246375
O	-4.33826311057971	3.976696069542029	-4.041110144724637
O	-5.18680426057971	5.109755959542029	-7.500347864724637
O	-5.73652904057971	2.147504529542029	-9.817930804724638
