22

O	4.7899549906159695	15.832454781289385	25.239002079007946
O	6.908123942221149	14.632987782743813	23.296899780394487
O	2.597761144483565	13.66855641614658	24.91122818014724
O	6.281304663530179	12.360073830376708	23.812900803579854
O	3.3421113638841824	10.74194870374681	24.982326049571743
O	5.870642222561287	13.590969351733898	23.338098032992587
O	3.6741689200132437	13.08943548145239	24.102204809279137
O	4.182228197293252	11.867801306973158	24.540334716877094
O	4.549926294129833	13.999232224135019	23.55297631201404
O	5.282977451036481	11.473710277126912	23.951213593370237
O	4.447068401797891	15.30080224577424	23.993383889157244
O	-0.09212467826056359	12.370398160787401	26.402534702706376
O	-1.8842101013766603	11.060456009612343	24.85131954098345
O	-1.1623355666168345	10.164065093157962	25.324857827309717
O	-1.7537227119467995	9.34023615241753	26.291242914792566
O	0.2520702593175361	10.257987596261925	25.7568614217365
O	1.01801969188079	10.901653069726866	24.761626919070608
O	0.1689636158661616	11.74773167614736	24.026234028631382
O	-1.0372677652874862	12.312670409466861	24.761565126448183
O	0.7563209225682996	11.875487546156988	22.86600876418756
O	2.0158411105060337	11.48022301392816	23.079758560889616
O	2.2134146380050934	10.720343982730466	24.144825621701532
