30

O	7.232224034888594	11.801441759231484	24.055071435560944
O	4.7531739472839085	12.877389188687165	24.416775013666857
O	5.7699212313575075	13.211481121504315	25.503689778609356
O	7.118917801870291	13.019271927212715	24.904650695648968
O	4.825240003714832	11.424822605867073	24.20597027538543
O	6.109133557765038	10.885193266240972	24.116244076308075
O	5.872822030184928	9.544450937222688	24.02075608068857
O	4.6102366223257985	9.456459663168497	23.417069222856767
O	3.9027629427188923	10.524415061463818	23.812083393792328
O	5.722563955368063	14.617097860153375	26.013150277247966
O	5.333238052309195	12.357770007537773	26.66040065819748
O	8.358505174545272	11.263253433436093	23.81470296446456
O	2.5557095349171113	10.342774013575651	24.276218613312544
O	2.1431012377087346	11.20874081168316	25.23409030454136
O	0.9382001065950216	11.10236779871264	25.81746582939358
O	0.08601091443358833	10.028315498428109	25.535354800483276
O	0.8329536592332736	8.89819547184253	25.195293601593324
O	2.1587628215497547	9.073239330544983	24.784803615980454
O	-1.2925259417891883	10.136520390251388	25.10577830157009
O	-1.5035638510320584	11.1713917966372	24.076406838564022
O	0.3872521987854123	7.7355135691246435	25.922837274578242
O	1.5962622546270189	7.12340394623955	26.503609094614156
O	2.0213541864189857	7.740965076086333	27.766265442312914
O	1.1619589884941246	7.046360265143347	28.84067214971521
O	1.6496163088666957	5.608058809381971	28.693053401151126
O	0.9574568523021982	5.0620000104680685	27.4866181268222
O	1.5332656880916282	5.695352123622786	26.25701330680159
O	3.013772981439641	5.5759088264726735	28.4638792510783
O	6.8211356406035435	8.511475007089201	23.618614157647123
O	-2.092330643520897	10.494748393872719	26.031526781766445
