87

O	3.8118882754385965	-0.22255607951052636	8.09003084352807
O	0.9288011814385964	2.706168770489474	0.7967330375280699
O	3.7327763954385964	3.3907610704894737	-1.9842188864719301
O	5.618399735438596	2.1496875824894737	-1.3813832264719301
O	3.0062589754385964	2.2715947604894735	-1.64143460647193
O	4.722322395438597	1.4238408714894737	-0.6542353564719301
O	3.9980689454385963	-1.0644777095105264	2.16638433352807
O	3.7206014854385963	-1.1182371595105263	3.68364657352807
O	1.3930763354385964	0.12351003048947362	7.992147783528069
O	2.7462696854385964	4.148489110489473	0.9990830615280699
O	2.6158091154385965	0.1608572404894737	7.2120421835280695
O	5.0861382654385965	3.232563340489474	-2.02740768647193
O	3.4226857654385965	1.2156349431894737	-0.8078751664719301
O	2.9421817954385965	-0.3163655195105264	1.74973090352807
O	3.9471665854385964	0.20813111048947364	4.14290269352807
O	2.2757499454385965	0.36571261148947365	2.7000054435280703
O	1.1819775054385964	-0.6189134795105264	5.546637393528069
O	2.6799481854385965	2.4850206204894736	2.44748082352807
O	0.9239551784385964	0.0988451904894736	3.02458292352807
O	4.028839235438596	3.783273710489474	1.26119792852807
O	2.129017405438596	-0.9580670895105263	6.47982123352807
O	3.2315448554385964	0.9764489514894736	3.45018252352807
O	3.952174575438596	2.738964960489474	2.03834880352807
O	0.7079505294385964	-0.03015441951052633	4.38954859352807
O	2.1808105254385963	2.9541778904894738	1.3331695345280699
O	0.7397622304385965	-1.1564696995105264	3.05365349352807
O	0.40693563243859643	0.4498096314894736	6.53642862352807
O	2.502819035438596	-0.007771189510526355	0.04974925552806986
O	2.6411403554385964	1.4420015194894735	4.23978984352807
O	5.819378585438597	4.284179380489474	-2.41725800647193
O	-7.901551294561403	7.496213600489473	7.8739747935280695
O	-6.980499144561403	3.9593092104894736	6.803245943528069
O	-3.9313828745614035	3.5108184904894735	8.96738056352807
O	-2.1846921045614036	2.4307467004894736	5.73904652352807
O	0.9896781794385965	4.396945720489473	6.132111173528069
O	3.7826420054385963	5.417340620489473	3.96735898352807
O	6.151657625438597	4.209904700489474	2.92635196352807
O	6.892394795438597	1.9021199774894737	4.33137042352807
O	9.922597665438596	-0.2601262695105264	5.16289240352807
O	10.164283385438598	-3.976465289510527	5.37551319352807
O	7.653685255438597	-6.405192569510526	4.27233987352807
O	7.278082415438597	-9.958642419510527	5.38698098352807
O	4.330490335438597	-12.031127419510526	-1.4688840264719303
O	7.965697575438597	-11.812860219510526	-2.24196519647193
O	7.557852115438597	-6.250662149510527	-2.9142125764719298
O	5.781406175438597	-8.310345589510526	-5.615662196471931
O	-10.612149914561403	-6.118545669510526	1.9055427235280697
O	-8.460229784561403	-2.2719733395105264	4.02034778352807
O	-11.032540814561402	-0.7018267395105264	1.7469657935280698
O	-11.124783314561403	-1.8138186395105262	-1.8646906164719301
O	-6.8195204445614035	1.1625076325894736	-0.8198562964719303
O	-6.202802514561403	-2.4156546395105263	-1.9525521464719302
O	-6.4096509245614035	-1.2321149095105262	-5.54465864647193
O	-4.052376814561403	1.6553620564894738	-5.02245195647193
O	-1.5997540445614036	-0.6016023795105263	-3.13126065647193
O	-1.6068745045614037	-3.2883679295105264	-5.755564656471931
O	-0.6344603595614036	-0.7077742395105264	-8.435553686471929
O	2.2376504654385965	0.7565317224894736	-6.5126426864719305
O	4.970319885438597	-1.7762233295105263	-7.2765239064719305
O	4.426296645438597	-1.4353494895105263	-11.07909631647193
O	4.086603425438597	2.3357514704894737	-10.62125031647193
O	5.474739995438597	4.002112130489474	-7.44484444647193
O	3.6880157754385965	7.181890470489473	-8.48674477647193
O	0.32971090343859644	5.527415180489474	-7.79926679647193
O	-0.9979046045614035	7.307296990489474	-4.72204151647193
O	-4.706951654561403	7.338351220489473	-5.65079104647193
O	-1.9871022845614035	9.348909210489474	0.1001775515280699
O	-2.5886359345614034	12.335157680489473	2.30589555352807
O	-0.019448457561403565	14.235092080489474	4.29157704352807
O	4.773320185438597	11.119011040489474	6.258634713528069
O	1.5866200354385964	10.123583640489473	4.56367158352807
O	-1.3746116245614035	7.9206315904894735	5.26581889352807
O	-3.8414918245614036	6.670863570489473	2.83439043352807
O	-0.9528532445614035	7.681581850489474	-11.17479401647193
O	-5.134990194561404	2.8678051804894737	-9.86707821647193
O	-3.7397278045614035	2.1281668154894735	-14.524353916471929
O	-3.3448307945614038	-5.241932729510526	-2.37204511647193
O	-4.679954434561403	-6.760524009510526	0.8546645095280698
O	-1.7528604945614037	-9.237350919510526	0.9658238885280699
O	0.7985928944385965	-6.4449893995105265	0.4164952234280699
O	-0.6549074925614036	-4.497552879510526	3.21893600352807
O	-0.6949982795614036	-7.332438109510527	5.39891301352807
O	2.849307455438596	-8.192194429510526	4.606221563528069
O	3.8132614654385963	-4.904783859510526	6.156163363528069
O	1.2239815354385963	-5.052562559510527	8.89773649352807
O	1.9774275554385963	-8.567027249510526	10.16219669352807
O	5.318222225438597	-7.421391179510527	11.39004608352807
