79

O	2.04059997815	0.9207367829500002	0.6983549596666667
O	2.01871922815	-0.4085192540499999	0.45650294736666674
O	3.18018535815	-1.19566677705	0.5684624469666667
O	3.92639394815	-0.7504648170499998	1.6568657536666667
O	3.41384264815	0.2815039789500001	2.4191708636666664
O	2.50287595815	1.1951289469500002	1.9870712736666667
O	4.95382844815	-1.39960797705	2.1402838336666665
O	5.67008088815	-0.8082669270499999	3.0800787436666663
O	5.0724203581500005	0.11311761295000011	3.839787063666667
O	3.73747046815	0.3949992789500001	3.7236835236666668
O	2.02608708815	1.91538563295	-0.32383317533333333
O	2.67336436815	-0.034787515049999884	4.617435303666666
O	3.09566254815	2.41688306295	-1.0678277963333334
O	3.43765794815	-0.7575007170499998	5.640392903666666
O	3.3263720981500002	-1.0680290070499998	6.920538973666667
O	4.23804574815	-1.85716762705	7.424047023666667
O	4.90739469815	-2.2138418870499996	6.299682473666667
O	4.033305068150001	-1.96994220705	5.1809547936666664
O	5.022999808150001	-1.7594494270499998	8.706388713666668
O	-3.13522185185	9.23886831295	8.175737583666667
O	-3.65835700185	5.861989492949999	6.524724833666666
O	-0.9629618748499998	3.9501949629500004	8.308709983666667
O	0.17651463915000007	2.9912398829500004	4.888382453666667
O	3.96676832815	3.5996138929500003	5.332696073666667
O	6.877806538150001	3.48288648295	3.1757540336666663
O	8.35935630815	1.6947522729500002	1.7550596036666668
O	8.77469278815	-0.8840463570499998	2.4472963536666668
O	10.36781238815	-4.35779947705	2.8896045236666668
O	9.093621098149999	-7.91923525705	2.7724519836666666
O	5.80918674815	-9.032732437049999	1.4726062796666666
O	4.034155608150001	-12.27995896705	2.0447964636666667
O	0.5012649201500001	-11.755245567049998	-4.805385046333334
O	3.90507117815	-12.88885046705	-5.791871116333334
O	5.78809894815	-7.65449885705	-5.634742876333333
O	3.27955786815	-8.27878641705	-8.410366196333333
O	-7.86096351185	-6.41291217705	2.6468432936666666
O	-10.77997591185	-4.0643792670500005	2.7606370836666665
O	-10.871075011850001	-1.15537216705	0.3783578956666667
O	-13.40469931185	1.0257267149500002	2.101641373666667
O	-3.75438280185	-0.24068106504999986	9.149966583666668
O	-5.759285771849999	-4.04864265705	6.292225603666666
O	-8.300519091850001	-1.4252796170499997	5.515491543666666
O	-7.43004050185	1.18621761995	2.9269909536666665
O	-9.13468274185	3.9497590229500004	1.0502310886666666
O	-9.623311311850001	3.50792037295	-2.676029806333333
O	-7.16614556185	6.3040093829499995	-3.3918352463333337
O	-4.58905218185	4.47221143295	-1.4452312363333333
O	-5.235411601849999	1.10521459795	-3.008039146333333
O	-5.00391930185	2.7980502729500003	-6.4237233263333335
O	-1.70203708185	4.42425762295	-5.6103488163333335
O	-0.24919484484999993	1.0994171819500003	-4.236880116333333
O	-1.45452047185	-0.8669454470499999	-7.328019006333333
O	0.5161756391500001	1.53761380995	-9.570012846333332
O	3.75195566815	1.4543003839500002	-7.554946336333333
O	5.219112128150001	-1.7903834670499998	-8.936432896333333
O	4.87510354815	-0.6389961370499998	-12.540860146333333
O	7.949149308150001	3.3432016029500002	-8.325474096333332
O	3.77242810815	6.75990941295	-8.113398576333333
O	3.18319386815	8.58626856295	-4.837065566333333
O	-0.24919830584999994	10.009172652950001	-5.455200276333334
O	2.89307731815	10.25919701295	0.37365256866666674
O	3.60631196815	12.65145383295	3.0933439236666667
O	6.78459104815	13.01606113295	5.113975963666666
O	10.03175108815	7.99959799295	6.192498043666666
O	6.690183168150001	8.61636376295	4.575914793666667
O	3.05593540815	7.78568003295	5.187799403666666
O	0.22290390315000008	7.92885356295	2.815701673666667
O	-2.27437271185	6.68828709295	-10.185672346333332
O	-3.71431336185	-2.48701570705	-4.0057445063333335
O	-5.60521655185	-3.83970917705	-1.0122605163333334
O	-3.93234006185	-7.242669337050001	-1.5350412663333335
O	-0.48000760084999994	-5.70630121705	-1.7496943363333333
O	-0.9869565558499999	-3.74217950705	1.4554779156666666
O	-2.40637247185	-6.83697464705	3.029010953666667
O	0.5694763031500001	-8.89682927705	1.8353248436666667
O	2.75705359815	-6.60975428705	3.7600654036666663
O	0.23223231215000006	-6.10102257705	6.703207013666667
O	-0.38983545584999996	-9.71891346705	7.401626493666667
O	3.06982907815	-10.45217536705	8.436471063666668
