25

O	-6.96366422793669	4.66283493969166	19.352138988437314
O	-6.1931748507725235	3.762882486611007	18.5514869989011
O	-5.33720259705381	4.440086045960125	17.68483924248069
O	-5.171288430903449	5.792791906509921	17.672073998419435
O	-5.225899485378897	6.199735109004202	18.993444615249516
O	-6.130922694485194	5.589715121670756	19.891649622808643
O	-7.979580952837134	1.1661826348719497	20.407679928487504
O	-7.691655758415125	2.5850454747386724	20.617703011238568
O	-6.655405404115257	2.6226797966769704	21.384715058741723
O	-7.990505040924215	3.8091816049771365	19.964149939509685
O	-9.170637999942203	4.629541226210032	19.90753909579955
O	-9.093084636518128	6.120562401474125	19.872300405007344
O	-8.422803110930433	6.926858908696137	18.753036593015086
O	-8.983716077687307	8.301754182785425	18.905728185768247
O	-10.400367304286167	8.074160696753758	19.264970249933643
O	-10.40232999017977	6.596015023053011	19.195069180160484
O	-8.402123187822667	0.3776452353467077	21.4898735916836
O	-8.997897874088801	-1.2168470685595096	21.727146217030025
O	-7.993770971844306	-1.6821789644619431	23.076243564062555
O	-7.378271036685451	-0.4550353420855471	23.314893463582067
O	-8.117196228551093	0.5684445452231566	22.7758242392197
O	-3.632757568070323	6.119291282054151	16.844798736845533
O	-2.4104699379033088	5.856394390729003	18.01807594362168
O	-3.360463149772732	5.006627131267663	15.856142954854267
O	-3.80037696628807	7.433857552520257	16.255272359346478
