19

O	-10.387813475088533	1.9778559645286307	19.612470923687138
O	-9.28306147460351	1.765652487999585	18.863881933019766
O	-8.014503919824856	2.208884297757334	19.282745892660326
O	-7.904220144960371	2.031649844713935	20.659727824520424
O	-8.96254032449882	1.4462354187205926	21.327579499072556
O	-10.250239615536051	1.4278117772982741	20.888521355520158
O	-6.780028309040178	2.1617532367942527	21.31544678677141
O	-6.826752168319532	2.1125539484935416	22.63503482062429
O	-7.832790180601391	1.4436416526568836	23.20402354588219
O	-8.75412415892128	0.7512100113354911	22.46462471106522
O	-11.363116633737523	2.97815736676476	19.325092435398624
O	-8.816810862267031	-0.6896069468425396	22.27502620142596
O	-11.342750129840212	4.335303507668717	19.651832225990844
O	-7.700963147232189	-1.1346784169793738	23.117461103061586
O	-7.347854913688611	-2.2090317481067054	23.802052817250658
O	-6.158887455439197	-2.2064977940869257	24.344048134938536
O	-5.642803698476177	-1.0729176755551277	23.807304381758566
O	-6.4125254872967385	-0.7633098447667894	22.629703975803626
O	-5.709140822411358	-2.594838213129962	25.728613632793866
