33

O	-9.76334648675876	-2.3258111167970297	21.459931059431394
O	-11.00191634020868	3.685125026755099	20.297776125659432
O	-8.202913370631387	3.488374859008388	16.991292173648056
O	-10.05510683901054	1.1463372320337681	19.319881054060932
O	-7.519819773459597	3.956424836780391	19.820488298712235
O	-8.76186371621301	4.790361241429197	17.25986503897711
O	-9.722404558402195	-0.09607796484305942	19.06099440836968
O	-5.055339592046972	5.791280985601286	18.143639224974685
O	-9.729235490730241	4.686771698341788	18.215205346894102
O	-7.950084316516695	2.7536411582030547	21.35005952022937
O	-2.9082615426540404	5.92929887028373	17.024947909577612
O	-10.216544300668453	3.573186017073636	18.753496132960016
O	-9.36046084731729	1.6755657917866251	21.53257093754361
O	-5.902629136561689	3.2742737658203245	18.46705470022146
O	-9.720813480721036	2.256858378543788	18.52907273394499
O	-6.059076841109748	2.0928515827343603	20.00353733271749
O	-8.745661916792818	2.370758969982872	17.50245871752473
O	-6.88809591184517	-0.394274432867586	20.192324320679802
O	-9.517689843679864	1.252771504840281	20.417758280871492
O	-8.480193881012179	1.5593757156251122	19.63147429943121
O	-8.530752985394862	0.5192288863929821	18.756586176052014
O	-7.719878184786188	2.4957521884406444	20.10229144750574
O	-8.326395399693926	1.8874081713389117	22.220361979145068
O	-6.358936280882633	4.669623667197623	19.65482893375918
O	-6.184211726198241	5.7927152084357045	18.914020475373796
O	-4.106058883227199	6.484468417235931	18.93690067263524
O	-2.741823923022247	6.368340239159155	18.324878079814823
O	-5.650228329913094	3.3439573446185897	19.628231240044443
O	-6.284188748397912	0.7194653852780015	20.366695062389052
O	-6.6274539242809585	0.2584768751243134	21.678847921308897
O	-7.837742487472439	-0.3750204111510471	22.239276591097276
O	-8.593025114338916	-1.1613623103594417	21.47248998988332
O	-7.711464520185274	-1.3486764665900721	20.565005496618486
