83

O	1.1904503916666669	3.1238324161063487	0.6530660933333332
O	2.382651941666667	3.4135270561063487	0.7687469933333331
O	2.641560121666667	4.755718666106349	0.8804395033333332
O	1.859640311666667	5.412018126106348	1.899445533333333
O	0.4235344146666669	5.103567736106348	1.474431613333333
O	0.142199427666667	3.9823633661063487	0.7177826933333331
O	0.7174452216666669	0.5823884821063484	-2.351661756666667
O	0.9202179416666669	1.9555250191063485	-2.5478244566666666
O	0.8332803216666669	2.783994156106348	-1.606236598666667
O	0.897870841666667	2.2419554231063485	-0.3984320696666669
O	0.3284264786666669	1.1911643633063485	-0.06556521466666687
O	0.29746353366666695	0.2178543761063485	-1.074411182666667
O	3.905057571666667	4.896001626106349	1.0018204633333332
O	2.530143711666667	2.497211086106349	-3.397849166666667
O	3.411532881666667	1.4985593801063484	-2.2486615866666666
O	3.3431349616666672	1.4251540281063484	-0.9394856400666668
O	3.599780251666667	0.2581383561063484	-0.41613296066666683
O	3.379735911666667	-0.6076593838936515	-1.416906904666667
O	3.2504943216666673	0.11595380610634853	-2.514839996666667
O	3.8013718516666675	-0.3831117638936514	-3.7035731766666666
O	3.320534361666667	-2.9518021638936514	10.520962313333332
O	0.6382190516666668	-0.9327230938936517	8.755465693333335
O	2.575136111666667	2.2639611071063483	8.228814943333333
O	1.5768590116666668	1.9460321461063486	4.504083223333333
O	4.925000561666667	2.6866067061063488	2.947029173333333
O	6.092432681666667	2.581976766106348	-0.38858539066666686
O	5.797491721666667	3.8761266961063483	-2.825984176666667
O	5.156667061666667	6.534524546106349	-2.6860762866666668
O	5.152035601666667	10.073063986106348	-3.9137304166666667
O	2.4414608316666673	12.610118486106348	-4.3099429266666665
O	-1.209213188333333	12.164189186106348	-3.824402526666667
O	-3.518707498333333	7.913171456106348	-9.099101956666665
O	-6.946947568333333	6.565357956106348	-10.099970826666667
O	-10.901957758333333	0.22647510610634858	6.481889783333333
O	-6.051001658333333	0.3471228131063485	7.066917413333333
O	-6.819222898333333	-3.3220859238936518	7.148609883333333
O	-8.964848468333333	-4.737781643893651	4.380023883333333
O	-6.007031398333333	-6.683025403893652	3.0311874233333334
O	-4.072246098333333	-3.4659221838936514	2.659547383333333
O	-6.974023338333333	-1.6136618538936514	1.0639621833333333
O	-7.354612838333333	-4.466902403893651	-1.393485678666667
O	-3.6598220983333327	-4.4998031738936515	-2.243567376666667
O	-3.6305230383333327	-0.7806030638936514	-2.7939863166666665
O	-6.661358138333333	-0.6847791338936515	-4.922487796666667
O	-5.017165418333333	-3.170769253893652	-7.318779836666667
O	-1.676760028333333	-1.2418398638936514	-7.507931676666667
O	-2.711343278333333	1.3042343044063485	-10.196418646666668
O	-3.970387348333333	-1.3529837838936514	-12.621040386666667
O	-1.025648233333333	-3.552897503893652	-11.693657186666666
O	2.0750975016666673	-2.0493071838936516	-10.196624756666665
O	3.3784168216666672	-5.537319733893652	-9.416643776666668
O	0.607836131666667	-6.028198103893652	-6.8456609366666665
O	2.418798851666667	-6.146733323893652	-3.4950147166666667
O	0.23940082566666693	-8.644574233893652	-1.7254776466666668
O	-3.3640830583333328	-8.305098853893652	-0.5626783886666669
O	2.393703241666667	-7.836040433893652	1.787890383333333
O	5.160164131666667	-5.402199613893652	1.1196119933333333
O	8.001166061666666	-6.191158463893651	3.4590332633333327
O	11.497448741666666	-4.729670663893652	3.3585047233333327
O	11.763471141666667	-2.0429150038936514	6.016638753333333
O	10.265330641666667	-4.750857893893651	9.998319613333333
O	9.015089661666666	-2.955220063893652	14.948620813333335
O	9.449693391666667	0.28949456010634844	12.970787813333335
O	12.145474041666667	1.0051194471063485	1.3156616533333332
O	9.166677101666666	-1.1923476438936516	2.038213653333333
O	6.139701311666667	-1.1678643938936517	4.294636473333333
O	3.033975281666667	-3.151749763893651	4.033278363333333
O	2.7752762616666673	-5.741153243893652	6.821346083333333
O	14.327259841666667	-10.086019013893651	-2.612165906666667
O	0.5495957016666668	-9.897207713893652	-8.285227266666666
O	-1.7871509583333332	-10.700022513893652	-5.447513186666667
O	-4.922298598333333	-8.60614948389365	-5.051809736666667
O	-7.868519168333333	1.4529448901063484	-1.3850113316666668
O	-8.708364958333334	3.4044980961063485	1.769730093333333
O	-9.240725898333334	6.554752646106349	-0.36500601366666685
O	-5.885763008333333	6.057563076106349	-2.163894566666667
O	-4.082511268333333	5.685346166106348	1.0861139633333332
O	-5.9819244383333325	8.67599545610635	2.498634303333333
O	-5.096804158333333	10.743172716106349	-0.5628105666666668
O	-1.451693634333333	10.257042256106349	0.28620068333333326
O	-1.897336698333333	10.347981746106349	4.111021783333333
O	-3.854901378333333	13.61588478610635	4.209430853333333
O	-0.7645161663333331	15.436630686106348	3.0425196433333332
