88

O	1.0804912184333328	-2.4174878476166666	-0.7911392741299996
O	2.2040313784333327	-2.4145328176166663	-0.002337981129999611
O	2.945789858433333	-3.4039364076166665	-2.1378348631299997
O	1.947757568433333	-2.5977231976166664	-1.8855477731299994
O	2.251269868433333	-1.4854534176166667	-2.6238154531299998
O	3.517745778433333	-0.8019206416166667	-0.5827904695299996
O	3.151450638433333	-1.1759421276166666	-3.6232333731299997
O	2.752534788433333	-1.1783618776166667	-4.857768663129999
O	2.487588938433333	-3.7528349176166667	-0.11835325312999956
O	2.942269638433333	-4.382764737616667	1.0418133368700002
O	3.357873408433333	-3.4361054276166665	1.8813719868700005
O	3.867553128433333	-2.3855264976166666	1.2203175568700004
O	3.192159798433333	-3.9392091776166667	3.25003631687
O	3.178507298433333	-1.6402549576166667	0.24767802587000043
O	0.18578633843333306	-2.9404183676166666	0.23939987887000047
O	0.26537742643333306	-3.5676578876166665	1.5086535568700001
O	-0.25676546956666696	-4.898028037616667	1.8758696468700005
O	-1.120712091566667	-4.9204123876166665	3.0662089168700004
O	-0.48090605656666696	-3.8655877676166663	3.8848088868700006
O	0.06929424343333304	-2.9736929676166666	2.8370543768700003
O	4.490710928433333	-1.1576911876166667	-3.4202168131299997
O	5.193777838433333	-0.20297214531666663	-4.14905579313
O	4.730296438433333	0.05101395838333339	-5.40596366313
O	3.4504596484333327	-0.3124034916166666	-5.685597983129999
O	5.645442768433333	0.1549829003833334	-6.605940503129999
O	2.3372949484333327	-4.958356447616667	3.49210565687
O	3.014650438433333	-2.7924825376166664	3.85730726687
O	4.248001448433333	-4.436217977616667	3.8783472168700004
O	-6.434495461566667	-5.583062777616667	-10.05788864313
O	-4.713784871566667	-2.4768159576166666	-8.658752793129999
O	-1.159850401566667	-3.3572335276166663	-9.50056677313
O	-0.375014272566667	-2.6044504676166667	-5.855659033129999
O	1.588523648433333	-5.739980367616667	-5.143666273129999
O	2.773550798433333	-7.090252017616667	-1.9527202331299995
O	4.948286078433333	-6.710310497616667	-0.4104737111299996
O	7.026428608433333	-4.978584427616667	-1.2559283461299997
O	10.688954258433334	-3.8775976076166665	-0.8351323591299996
O	12.310064958433333	-0.4862351526166666	-0.7239809055299996
O	10.676094158433333	2.8460615123833337	-0.6138336618299995
O	11.961823658433334	6.168580242383333	-1.7139414931299997
O	7.626902798433333	9.802971902383334	3.5447773568700005
O	10.415457558433333	8.486185702383333	5.645276796870001
O	7.839990768433333	3.4831070523833336	5.988322676870001
O	6.073705028433333	6.330597352383333	7.846902796870001
O	0.15325361743333302	9.914557162383334	-6.363079943129999
O	-6.120254101566667	8.739500782383333	-5.350916023129999
O	0.21043893343333306	1.2357764623833334	-11.115897013129999
O	-4.879109031566667	4.196090262383333	-6.578094353129999
O	-8.464350781566667	3.8516373823833336	-5.498843713129999
O	-9.429852861566665	5.346727422383333	-2.1726613831299995
O	-9.946876511566666	1.8949180323833332	-0.6837432266299995
O	-6.379893971566667	1.0115770823833334	-1.5397982121299996
O	-4.977174271566667	4.270245812383333	-0.22425640512999956
O	-6.913619331566667	3.7259257523833336	3.0200007668700004
O	-5.678222541566667	0.16210671138333338	3.4017494968700004
O	-2.172937331566667	1.3772706023833334	2.6457415768700003
O	-2.144259921566667	4.1056776023833335	5.1316698268700005
O	-3.147499291566667	1.6365408623833333	7.9040068668700005
O	-0.48835333056666697	-0.9326572396166666	7.147817996870001
O	2.449910278433333	0.7047281413833333	8.973544296870001
O	0.5254949334333331	0.9895628423833334	12.248597386870001
O	-0.965365043566667	-2.4508923176166664	11.66935488687
O	0.7492667554333331	-4.902459767616667	9.33926023687
O	-2.291787341566667	-7.1526081176166665	9.49932298687
O	-4.306193231566667	-4.562616437616667	7.5813747868700005
O	-5.041810011566667	-6.1828915276166665	4.2399151468700005
O	-8.517196691566665	-4.826786437616667	3.6356418068700003
O	-4.976799621566667	-8.342585137616666	-0.6711755357299996
O	-5.655496221566667	-11.203028037616667	-2.9047674031299997
O	-3.476770301566667	-14.133392637616668	-3.8000281631299995
O	2.498471228433333	-13.130491637616666	-3.7759861431299995
O	-0.489832341566667	-10.878217237616667	-3.3650569431299995
O	-2.070602191566667	-7.958420657616667	-5.184685503129999
O	-4.449200471566667	-5.541765957616667	-3.8022934031299997
O	-7.400809831566667	-5.720101977616667	10.171847586870001
O	-8.807358221566666	0.0038116773833333784	7.42923382687
O	-9.017220471566667	0.8195704033833333	12.27049878687
O	-1.656078431566667	5.988274462383333	1.2925338768700003
O	-1.147416921566667	7.485092652383333	-2.1611504331299995
O	2.249805748433333	8.901802182383333	-1.0801601561299996
O	3.307500198433333	5.5795862923833335	0.3369251828700004
O	2.421582438433333	3.7488520323833336	-2.85613405313
O	4.115554978433333	6.451089472383333	-4.8235334631299995
O	7.215587558433333	6.116859392383333	-2.69770455313
O	7.523159908433333	2.5565997523833337	-3.85483989313
O	6.239004368433333	3.1887916223833335	-7.4106678831299995
O	8.596191308433333	6.029711522383333	-8.21510877313
O	11.510481058433333	3.6730497823833335	-8.11119015313
