94

O	-0.17468959274193607	-3.9866907841451615	1.5940084451774195
O	-0.44629216274193606	-3.5418553241451614	2.80083589517742
O	-0.139007422741936	-2.213289804145161	3.1736024951774198
O	-0.720286759741936	-1.6300957441451613	2.0830685451774196
O	-1.170226570741936	-2.1337749241451616	0.9541976791774196
O	-0.07537826274193593	-2.8910292041451613	0.7452472761774196
O	0.565538677258064	-5.076557274145162	1.7432744251774195
O	1.300304077258064	-4.547831194145162	2.7407500151774196
O	0.34348239725806406	-4.331744734145162	3.68520906517742
O	2.4923348872580644	-5.218429014145162	3.3762706651774197
O	-2.0315181487419363	-3.1839149941451614	0.5645203741774196
O	-0.7784589777419361	-2.1503353441451614	4.335745265177419
O	-3.193274832741936	-3.1860498741451613	0.2526797017774196
O	-1.551433164791936	-3.8650971541451615	-0.6179645668225804
O	-0.644991155741936	-0.6712981331451614	4.439971465177419
O	-0.951389972741936	0.18519650585483857	3.2984039851774196
O	-2.100239525741936	-0.02417461614516142	2.46659745517742
O	-2.6972290527419363	-1.1162660661451613	2.90759085517742
O	-2.6709129227419357	-0.7610887911451615	4.08222308517742
O	-1.797877644741936	-0.27443903654516144	5.040932275177419
O	-3.759584602741936	-2.0606406841451617	2.90393094517742
O	-4.5001935127419355	-2.0700614941451616	4.20215587517742
O	-3.152030382741936	-3.1857907341451615	3.20325607517742
O	-4.880399602741936	-0.6021298621451614	4.50818483517742
O	-3.750249982741936	-2.1568631441451616	5.5316512951774195
O	-1.7628530307419361	-5.178643604145162	-0.8200595648225806
O	-1.333303215741936	-6.008106654145162	0.046274554177419575
O	-2.147588719741936	-6.661370894145162	0.9516097641774195
O	-3.467721942741936	-6.237714044145162	1.0977851431774195
O	-3.852945282741936	-6.199582004145162	-0.2102941058225804
O	-2.923949112741936	-5.750121504145162	-1.0290492648225804
O	-4.036255922741936	-5.306030844145162	2.2579086751774198
O	6.149488507258065	-8.586727904145162	-4.93530818482258
O	2.8407865872580635	-10.203544714145162	-4.13357043482258
O	2.225288557258064	-7.293447484145162	-1.7327028048225805
O	1.212715907258064	-9.205004284145161	1.3029419951774195
O	0.5340464072580642	-8.405207164145162	4.789155505177419
O	-1.4335292287419361	-6.951705174145162	6.1699777551774195
O	-4.034005752741936	-7.175835794145161	4.955046065177419
O	-8.080830422741936	-6.784800664145162	4.901232195177419
O	-10.583531522741936	-4.440766114145162	2.9925369551774197
O	-9.779970902741935	-1.5324779741451613	0.6877014931774196
O	-11.689632582741936	0.0876742008548386	-1.9144972148225803
O	-12.084796382741935	3.8521914358548384	-1.6441606848225805
O	-12.169581582741936	6.5230556258548384	-4.29856957482258
O	-6.867543622741936	5.953418415854838	-8.256170954822581
O	-7.930591222741937	6.755138245854838	-1.0593015548225804
O	-10.236902152741935	6.881528945854838	1.8493555951774194
O	-11.689605182741936	5.522004575854838	5.024200305177419
O	-6.675692532741936	3.897717135854839	4.8698484451774195
O	-5.388622302741936	7.342877525854838	4.02335484517742
O	-4.146542652741936	8.371044655854838	0.6724991141774196
O	-1.390637327741936	1.4108118558548386	-10.05367366482258
O	5.038640717258064	2.0502178158548388	-9.90352966482258
O	0.3966111672580639	-8.159918534145161	-8.08270440482258
O	-1.203482145741936	-3.3708848641451614	-9.48843989482258
O	4.774041517258064	-2.3177520441451613	-7.590194774822581
O	8.407183257258064	-1.3402355841451614	-7.344673584822581
O	9.216719817258065	2.1121910858548385	-6.024747874822581
O	7.338112117258065	-1.0922567901451614	-2.1814433048225803
O	5.315033637258065	1.9868609558548385	-2.9691188448225803
O	7.519716647258065	3.9976176758548383	-0.6062920098225804
O	7.275138537258064	1.4593457258548386	2.16192750517742
O	3.539229557258064	1.2411747158548387	1.7486565651774195
O	2.9513066172580635	4.968771965854838	1.7152518651774196
O	4.665100367258065	5.132369895854838	5.115479275177419
O	2.686852467258064	2.445151015854839	6.76341834517742
O	-0.4022745427419361	4.6084925758548385	7.72771025517742
O	1.6130654472580641	7.131648535854838	9.543426685177419
O	3.764062167258064	4.309387235854838	10.958720135177419
O	2.626069437258064	0.7656898498548386	11.142448535177419
O	7.343151897258064	0.5772362208548385	8.569232025177419
O	8.380217967258064	-2.6875424841451614	6.952507175177419
O	8.701212517258064	-7.638979794145162	4.570073345177419
O	4.612799757258063	-11.897553314145162	5.181708225177419
O	5.162374997258064	-10.621186914145161	1.6750344351774196
O	7.318462537258064	-7.814733474145162	0.4849932921774196
O	10.769496517258064	1.9026254058548386	10.591651635177419
O	10.508336617258065	4.469097425854838	4.634558545177419
O	10.791626217258065	8.296266075854838	7.688677195177419
O	5.388541607258064	7.694574715854838	-1.7629411648225806
O	5.276962617258064	6.312352045854838	-5.27126177482258
O	0.24883318725806403	7.196385925854838	-2.7525245148225803
O	1.800028447258064	3.739655075854839	-2.2505620348225803
O	0.7137703872580641	2.5427946158548385	-5.647867024822581
O	-2.836201372741936	3.7659207758548385	-4.96686244482258
O	-2.980088352741936	2.0912178858548387	-1.6684771648225805
O	-1.866663788741936	-1.0432480821451613	-3.2676951648225803
O	-4.301533112741936	-0.7041951561451615	-5.8570381948225805
O	-7.179911302741935	0.09468315485483855	-3.6091970348225804
O	-6.602265852741937	-3.4153208641451616	-2.1487488848225804
O	-5.766410702741936	-5.063554304145161	-5.461228734822581
O	-8.758010442741936	-3.8177446441451615	-7.350777794822581
O	-11.026167722741935	-5.924566874145162	-5.229043944822581
