27

O	-9.592763224638503	0.7145714817344775	20.38565568726187
O	-8.980212735037497	1.4380387117021072	19.5101133281216
O	-9.196236471680567	2.867898169612757	19.781233252740705
O	-9.521246200134737	3.166145903927372	21.130739083257573
O	-10.652281811382595	2.5999251002054895	21.39875476017204
O	-10.76427174009302	1.4039567300690186	20.721145933081978
O	-8.618368567230094	2.6964309512176117	22.19459059422638
O	-8.017872029587068	3.038362768404213	19.200894825411602
O	-6.926619613635012	2.153942228467906	19.027765960245954
O	-9.463552973523443	-0.8401819858614563	20.019729267668623
O	-8.283563389342996	-1.941665106538498	20.46642189775617
O	-7.593749580716004	-2.8287808050930168	19.6437940208134
O	-6.434001114072659	-3.2277656120519453	20.329445530672164
O	-6.424888944526694	-3.256264834781953	21.741725641542747
O	-7.750854102585986	-3.628442540139243	22.06854889483533
O	-8.510685855951756	-2.674299925215299	21.54931783379487
O	-6.943210027776409	0.7749306931031099	18.629264055849898
O	-6.191478657630278	-0.13772793429049113	19.4257982642714
O	-6.268599756397452	-0.0797437374708796	20.820040873405745
O	-6.128111386355666	1.150678859222176	21.09017193486742
O	-7.017330252889376	1.8777791684258343	20.432546813824594
O	-7.347414637109567	3.3508462942151276	21.006844664339322
O	-6.905056403125507	4.509579997684849	20.07722537547435
O	-8.605164258100942	1.405220993851231	22.956909642950833
O	-9.797642282609814	1.3385183380615977	23.29924347382102
O	-7.910389245068357	0.3352296618096289	23.453978423808984
O	-7.983440198512816	-1.017984630188335	23.39729653262964
