21

O	-8.504348782179953	0.03520930182661708	22.34462607282989
O	-8.46342150741891	-1.239547963027058	22.75087782804897
O	-7.521371504470656	-2.1132667501540374	22.55160680283532
O	-6.373363964079184	-1.5858704709602942	22.1146524993904
O	-6.833568000253252	0.12318906271234864	22.34804110999036
O	-7.555895177322949	-3.549538999969488	22.991973728509766
O	-9.2834612658252	1.0993604641758536	21.843356270999138
O	-9.656891707533587	1.0534486366073563	20.445997222766785
O	-10.024449562092016	-0.22642479906003832	20.518209654399648
O	-9.332679390621859	-1.466556853367058	20.233661462665985
O	-8.198867651962866	-1.1658118291901785	19.470654286200144
O	-7.648247896318207	0.11121160079937376	19.633443179048687
O	-8.40515108184392	1.2770638645065184	19.95909200590682
O	-8.385149064536815	2.6254095822226664	20.103128038977555
O	-9.415368434051326	3.458777350260387	19.60779086382376
O	-9.838675116892267	4.723042272881095	19.98165552853146
O	-9.029636401261621	5.8095405960430995	20.024668026614943
O	-9.35057370632886	7.084536852587567	19.581489326839048
O	-10.657143440924314	7.3950278493420125	19.79230475933248
O	-11.53664609907496	6.368074308798385	19.983011854469968
O	-11.13518925157783	5.05685775028605	20.256362056101334
