85

O	0.08085193077777708	-2.2167465095185186	-0.6147444576296297
O	-0.3938375412222228	-2.8623475995185186	-1.5696336756296296
O	-0.6969018582222228	-4.207387619518518	-1.1480893446296299
O	-1.067163281122223	-4.511192879518519	0.2387942023703702
O	-2.159974979222223	-5.109262599518519	0.6313173023703702
O	-2.307128419222223	-5.447813519518519	1.8930244823703704
O	-1.2348558362222228	-5.224483519518518	2.7119948223703703
O	-0.41050421722222286	-4.057929469518519	1.7018138623703702
O	-0.6803383212222228	-2.1514736295185184	-2.8006855176296295
O	0.2956532807777772	-1.3159089395185184	-3.4405063976296297
O	0.30634029077777725	-0.5878271315185185	-4.66391641762963
O	0.2518071007777771	0.8983912094814815	-4.74111637762963
O	0.4019853307777772	1.6195957304814816	-5.989827527629629
O	1.0295284807777774	0.9657006944814815	-7.1722851976296305
O	1.9965680507777772	0.03370330348148154	-6.51870179762963
O	1.065011330777777	-0.9346142295185185	-5.87890685762963
O	-1.4561002552222229	-1.0236824995185185	-2.29949066162963
O	-1.283819032222223	0.25437183448148154	-2.0465720516296297
O	-2.365784279222223	1.1061842854814814	-2.3648698966296298
O	-3.6307414092222228	0.5821294784814816	-2.75932147762963
O	-3.7108912792222233	-0.6473580095185185	-1.9616856096296298
O	-2.552578209222223	-1.4183642295185184	-1.8423139766296297
O	-2.4384131792222226	-2.2975970095185185	-0.8446186886296297
O	-4.210150589222223	1.3226393684814814	-4.19376860762963
O	-5.420758009222222	1.0741364304814816	-4.89564092762963
O	-4.234487449222223	2.7633596604814814	-3.8465104376296297
O	-2.8617139292222227	1.4015551304814815	-5.28884470762963
O	-2.872704919222223	-0.06461326651851845	-5.43983600762963
O	-2.123315689222223	-0.4926415745185184	-6.634555267629629
O	-2.182887879222223	0.7066723114814815	-7.353267717629629
O	-2.881431489222223	1.8822766604814816	-6.64353785762963
O	5.906738410777777	-8.800051549518518	4.78715821237037
O	2.594370830777777	-10.251728529518518	3.7119759023703707
O	2.0334992107777774	-6.934917109518518	1.9459064223703701
O	0.8120818307777771	-8.175683279518518	-1.3984733816296298
O	0.28864366077777714	-6.434864089518518	-4.63616127762963
O	-1.7087883542222229	-4.824530629518518	-5.78063654762963
O	-4.197135879222222	-5.166117389518519	-4.30624782762963
O	-7.999828859222222	-4.733100299518519	-4.45817418762963
O	-10.399503789222223	-2.7017219495185185	-2.39319602262963
O	-9.615974429222224	-0.47271690051851845	0.46059041237037013
O	-11.765782559222224	0.48305827048148153	3.3632908723703703
O	-12.163806059222223	4.212002260481482	3.94689218237037
O	-12.319101159222223	6.2726476004814815	7.11579568237037
O	-8.038521499222224	7.211706000481482	4.0629735223703705
O	-10.282869719222223	7.878892500481482	1.1782159623703703
O	-11.629808359222224	7.122838220481482	-2.2411367476296298
O	-6.617364679222223	5.535945580481481	-2.2490377956296297
O	-5.3912250092222225	8.811953120481482	-0.7351903126296297
O	4.8299524307777775	0.5989084444814815	11.705983312370371
O	4.5650528707777775	-3.1596276995185186	8.593665012370371
O	8.198948970777776	-2.2049488195185183	8.52863941237037
O	7.195676510777777	-0.8529237895185184	3.5946833623703704
O	5.214954990777778	2.0574898204814813	5.025781582370371
O	7.408364940777777	4.447125870481481	3.04135460237037
O	7.055458520777777	2.4989938704814816	-0.18102824762962966
O	3.3408620207777773	2.2999279104814816	0.21239639237037022
O	2.855184810777777	5.989653770481482	1.0055694023703703
O	4.612906140777778	6.850068890481482	-2.2735179086296298
O	2.5766564707777775	4.546515160481482	-4.41451443762963
O	-0.4921529982222228	6.729497440481482	-4.93633211762963
O	1.6087546907777772	9.757503640481481	-6.14387163762963
O	3.8276482207777773	7.381372820481482	-8.112161157629629
O	2.5658351707777776	3.9791746304814817	-9.091368367629629
O	5.994079360777778	2.8798323604814815	-10.20564651762963
O	7.168028510777778	2.9922441104814816	-6.59802401762963
O	7.981409770777778	-0.6027325985185185	-5.73073022762963
O	8.215651570777776	-5.848734059518518	-4.45076222762963
O	7.833605740777778	-11.909088829518518	-7.37750082762963
O	1.7470120907777773	-11.717117829518518	-7.975928277629629
O	4.208422520777777	-9.873712029518519	-5.81794244762963
O	4.834019700777778	-9.365803259518518	-2.15160537262963
O	6.924328070777777	-6.811820909518518	-0.4939378076296297
O	10.642357640777776	4.597651640481481	-8.27983617762963
O	10.837621740777777	10.298388920481482	-4.120401647629629
O	1.712586150777777	4.003397280481481	4.64541804237037
O	0.5738843307777772	2.071143860481482	7.687120352370371
O	-2.962060929222223	3.4670572804814817	7.2685165723703715
O	-3.074445889222223	2.4884185004814814	3.5428225423703705
O	-1.9967244272222229	-1.0501678895185185	4.48202218237037
O	-4.447122319222223	-1.1642604495185185	7.250034742370371
O	-7.255771729222222	0.10621497048148154	5.098495502370371
O	-6.741264079222223	-3.0497404295185184	3.02138306237037
O	-5.880116219222223	-5.391727589518519	5.82120999237037
O	-11.185228959222224	-6.071786839518518	5.45546828237037
