94

O	-1.1518165644354845	-4.442853841562903	1.817658209080645
O	-0.6333340614354845	-3.512336221562903	2.5523610990806453
O	-0.4500080314354846	-2.1799902915629032	2.422613189080645
O	-1.0782719814354844	-1.8555885815629032	1.323076699080645
O	-1.6295652361354847	-2.6238633615629032	0.47023411908064516
O	-1.9493137434354846	-3.8305941315629033	1.005935919080645
O	-0.18440969143548447	-5.378935971562903	1.771298749080645
O	0.8603467585645155	-4.709992141562903	2.2440436490806452
O	0.35806249856451555	-4.142543531562903	3.383891409080645
O	2.0972185385645155	-5.505878991562903	2.4051453490806454
O	-1.5597018979354846	-3.319269031562903	-0.6890905879193548
O	-0.7045970854354846	-1.9515365715629032	3.639261629080645
O	-2.6075887364354844	-3.4885210415629033	-1.437078360919355
O	-0.5930082714354845	-4.140166171562903	-1.230844930919355
O	-1.2315595684354845	-0.6615205265629032	3.8655035390806454
O	-1.7943812814354845	0.10005621843709683	2.8243194790806454
O	-2.8194246914354846	-0.39899362656290316	2.0288590190806453
O	-3.2042367314354845	-1.5062713515629031	2.554292549080645
O	-2.6772522714354845	-2.025753641562903	3.587860159080645
O	-2.3398556484354844	-1.0486703645629032	4.566559359080645
O	-4.317482921435484	-2.268463841562903	2.0810429490806452
O	-5.159131241435484	-2.3428482815629033	3.3186917590806453
O	-3.9045999514354843	-3.483101671562903	2.2811189390806454
O	-4.597611901435485	-2.6306588215629034	4.698963259080645
O	-5.567711381435485	-0.9251052825629031	3.703292489080645
O	-1.0519859254354844	-5.3856343915629035	-1.5631804309193549
O	-1.0669429814354845	-6.212615711562903	-0.6044233419193549
O	-2.1790631554354847	-6.924655321562903	-0.1603248889193549
O	-3.4289618414354845	-6.366282901562903	-0.3395547099193549
O	-3.3653703814354845	-6.177115001562903	-1.661054710919355
O	-2.2236451574354845	-5.697255541562903	-2.143495600919355
O	-4.268755501435485	-5.514549181562903	0.7181270840806452
O	7.305258028564516	-7.984933371562903	-4.384236780919355
O	3.9817149385645156	-9.755955911562904	-4.331689280919355
O	2.8352308485645152	-7.057164011562903	-1.881149090919355
O	1.3252426385645153	-9.160655781562903	0.7805173200806451
O	0.024912808564515387	-8.659510961562903	4.1188271190806445
O	-2.2654212224354846	-7.496550871562904	5.2159942190806445
O	-4.502233391435484	-7.665853261562903	3.432866639080645
O	-8.543644081435485	-7.377926541562903	2.8266171490806453
O	-10.788409291435483	-4.931724951562903	0.6949773300806451
O	-9.671930001435484	-1.8294984515629031	-1.202364020919355
O	-11.165088541435484	-0.042719105562903176	-3.966196220919355
O	-11.762753621435484	3.6783203584370967	-3.506468840919355
O	-11.474294351435484	6.547698298437097	-5.9232259109193555
O	-5.531327821435484	6.412970288437097	-8.882067420919356
O	-7.888989541435485	6.626547108437097	-1.967169550919355
O	-10.673418421435484	6.460561038437096	0.4879695900806451
O	-12.589064321435485	4.794204868437097	3.247920039080645
O	-7.552247931435485	3.3216589984370968	3.867189839080645
O	-6.298220161435484	6.861909508437097	3.529778559080645
O	-4.537966661435485	8.199083218437098	0.5275957050806451
O	0.35033545856451553	2.1698597984370966	-9.984799710919356
O	6.623229328564516	2.9917410484370968	-8.649412610919356
O	2.1706136185645155	-7.453352871562903	-8.484044100919355
O	0.6339179085645155	-2.6211317315629032	-9.761265150919355
O	6.1392016885645155	-1.5556264115629033	-6.7649553409193555
O	9.620793178564515	-0.5053383485629032	-5.782282570919355
O	10.040289978564516	2.840149338437097	-4.081319620919356
O	7.625569868564515	-0.7251486695629032	-0.9002799809193549
O	5.660162988564515	2.3433843184370966	-1.804240980919355
O	7.347194478564516	4.2326637984370965	1.054293989080645
O	6.722517798564516	1.4759998884370968	3.5413973890806454
O	3.1405654585645153	1.2069895084370967	2.428743419080645
O	2.406752558564515	4.9010687884370965	2.5833622990806453
O	3.475043898564515	4.815784668437097	6.247825509080645
O	1.3540665285645153	1.9388696984370966	7.308728689080644
O	-1.9708018344354845	3.9028712984370966	7.853876909080645
O	-0.40882139143548457	6.339199428437097	10.194373719080644
O	1.5780964885645155	3.474318978437097	11.751431719080644
O	0.5798907485645155	-0.10003735856290319	11.463917619080645
O	5.695566888564516	0.055875714437096824	9.773212469080645
O	7.1211301085645164	-3.047253211562903	8.115084659080646
O	8.010367558564516	-7.766335771562903	5.490885709080644
O	4.043034838564516	-12.130666771562904	5.007911569080645
O	5.189383068564515	-10.594631971562903	1.754626019080645
O	7.417098368564515	-7.631256251562903	1.2275392190806451
O	8.647220678564516	1.3092004684370968	12.471887019080645
O	9.334294878564515	4.350259278437097	6.7758811890806445
O	8.913659878564516	7.918966648437097	10.115791919080644
O	5.285957638564515	7.933842208437097	-0.1779880529193549
O	5.848063568564516	6.836065228437096	-3.735672810919355
O	0.43112077856451547	7.370290748437097	-2.0970960509193546
O	2.0126869785645156	3.922324148437097	-1.599920570919355
O	1.5917758585645156	2.9894832984370967	-5.205558930919355
O	-2.0696082094354846	4.0629204384370965	-5.072346070919355
O	-2.7247084814354845	2.114028998437097	-2.0120737509193547
O	-1.2039885104354846	-0.8653903405629031	-3.6029196709193547
O	-3.1605535014354844	-0.3471651706629032	-6.5471209109193556
O	-6.419082911435485	0.1924653834370968	-4.786427580919355
O	-5.963553381435485	-3.370108741562903	-3.4895551109193548
O	-4.490032911435485	-4.731994321562904	-6.727498280919355
O	-7.147096471435484	-3.434538141562903	-9.041605130919356
O	-9.678705361435485	-5.749107501562904	-7.538074430919355
