37

O	-4.199878828825224	5.944998583131243	18.350933544792163
O	-4.897908018396711	6.797611545719993	19.281200967606374
O	-3.234604908625389	6.910310364878428	18.297894193358854
O	-3.8522905160464447	4.512981378634086	19.01500510854448
O	-3.5196554151208073	3.3746639111683647	18.13569356879487
O	-2.6073298873837913	3.9932349968267116	17.128548553203252
O	-1.418857065866911	4.523339958899461	17.56930692151962
O	-1.8265192337801555	5.327494485424949	18.67723701266381
O	-2.6929110268639196	4.505115845144304	19.55842148894993
O	-0.44402082138683596	5.271009742679093	16.911445475726758
O	-5.024481122982479	5.231379126117975	17.01016721388012
O	-5.126676445014854	3.8760944240269457	16.597861497381658
O	-6.069280066624712	2.9855048010647973	17.24492894526624
O	-6.896751156771863	3.59655533408398	18.237533049256914
O	-7.34299214128236	4.594818066375005	17.466251607885404
O	-6.313017510460478	5.529182385721734	17.08225248225655
O	-6.532334927842754	3.396968178048227	19.69186283684439
O	-7.460208896912844	3.801973369241099	20.791414237143943
O	-8.775431208914956	3.8411248419750144	20.150369115169745
O	-9.990805911532112	4.106112340981354	20.90739428069046
O	-11.016176956232373	3.952865892309722	19.789515916009293
O	-10.350615720058894	4.993591435122376	18.99030272173982
O	-8.928707602014546	5.194384207138162	19.540471084340986
O	-6.872432801161729	1.9720063104345726	19.376771407843727
O	-6.265288725785393	1.098841852967606	19.897261365176877
O	-8.257653043072805	1.8589000117795065	19.243031174623333
O	-9.119699948398328	1.2069735141555582	20.20443459960932
O	-8.989693887529103	-0.4063574778269453	20.156714832780963
O	-8.463206240200167	-0.7268270154044828	21.753784152724506
O	-7.547822185249631	-1.6478725763232127	21.984027388948764
O	-6.291494154612766	-1.5456751916870246	22.625802105566464
O	-6.11524971630217	-0.21041090322913314	22.79852513965295
O	-6.93435448330616	0.8444239836783994	22.576406277961702
O	-8.224894750014794	0.5313476526386275	22.159799306882995
O	-9.120078854780711	1.2775360535670537	21.568350203397657
O	-5.83074854644514	-2.2271494224407604	23.82629705643669
O	-6.2721605864617045	-1.597216971419531	25.055916151255254
