28

O	-7.763649967074435	7.5738223092219155	18.563344790303148
O	-8.069870405576438	-1.829799873386159	20.82219027486115
O	-8.361201592463988	-0.6964308465175706	20.00942779746667
O	-9.047873315018787	0.4660957353418913	20.59483391505098
O	-9.332883515199374	-0.15911123660932391	21.874570490554937
O	-8.488263584782565	-1.4731145971434754	22.056122786601456
O	-7.404926254722494	-2.6893086053841775	21.31862021342285
O	-9.76902384525466	1.6402769832001913	20.157233621701398
O	-9.317017149076715	2.9538474183131482	20.64077480670362
O	-9.748532249404136	4.280695485294758	19.996061239349547
O	-7.838647991631954	2.726978029883635	20.334578866040438
O	-7.066474940172499	3.4604904232898335	20.95460015533468
O	-7.1388203351156445	1.5109541618944	20.193209878726396
O	-6.473255194460813	1.0947573168640299	21.357768532665308
O	-6.890060163760105	1.4617801623756994	22.48771102870114
O	-7.1921327190854125	0.7934234625767178	23.69169257206531
O	-6.107478160798142	-0.08400852813918425	23.610283301686717
O	-5.4587483712182285	-0.7028616578009017	22.73784596179426
O	-5.64986993308988	-0.13168895534168001	21.48555366727292
O	-9.983783271999215	3.8623083776038705	18.73162333719801
O	-9.579369952865202	4.702771760740992	17.66742774098631
O	-8.310257348876753	5.2910557987781335	17.70192538148454
O	-8.49020357697418	6.067401043033648	18.848534670294843
O	-8.655923205362898	5.1978856993725016	19.956419898351598
O	-7.028362819545757	4.9671545856345976	16.629853218513787
O	-5.575109271718229	4.527489004599298	17.385522818493733
O	-7.51680083442234	4.300371947288732	15.41400929974748
O	-6.664731026442615	6.301498234514305	16.10022090627513
