87

O	-1.8886699501272726	-4.172979246072727	-3.2753443958236366
O	-2.6828239301272725	-3.3818382260727273	-2.5352693458236364
O	-2.3730576001272725	-3.542372176072727	-1.2855692156236365
O	-1.2432522891272726	-3.763388396072727	-1.1078201838236366
O	0.1252998498727274	-4.018461486072727	-0.8637846068236364
O	1.2336509398727273	-3.179329606072727	-0.6472097278236365
O	0.47814708087272745	-2.642799566072727	0.09327101417636352
O	2.1583719298727275	-3.351614856072727	-1.6582114498236364
O	3.3769071698727275	-2.511737826072727	-1.7725595828236365
O	2.6205076498727276	-1.3006619460727271	-1.3586057758236365
O	3.804331149872727	-0.5201906900727271	-1.3111028231236366
O	4.546276109872728	-1.0556629060727272	-0.08199102582363649
O	4.179424839872727	-2.4371328060727273	0.15596232417636346
O	3.2195492998727273	-1.9824473160727272	1.1325233341763636
O	2.303111859872727	-1.3914997160727272	0.14375283417636342
O	1.3495092798727273	-2.9143922560727273	-2.8277366258236363
O	0.5583943638727273	-3.283134526072727	-3.837569285823636
O	0.5066359828727274	-1.9793953260727273	-4.392012475823637
O	0.5937859778727275	-1.0066455160727272	-3.4680055958236364
O	1.0255333398727273	0.30323956692727283	-3.2590047358236367
O	1.0588327498727275	0.7345036109272729	-1.9685005768236365
O	-0.057559079127272594	-0.010144983072727154	-1.2829462524236366
O	-0.3211477757272726	-1.273270116072727	-1.5423859808236364
O	0.3106798978727274	-2.037147266072727	-2.4416111558236366
O	2.3925265898727273	1.1246754599272728	-4.042192145823637
O	1.9238621598727272	2.226781083927273	-5.014867495823636
O	3.4588234098727275	0.6578605819272729	-4.910032515823636
O	3.3641081398727275	2.2907732439272728	-3.0639835758236362
O	4.815719889872727	2.2503367239272727	-2.962110825823636
O	4.1896814798727275	3.2702691339272727	-3.783036415823636
O	-1.5030208601272725	-5.1499463860727275	-1.9807875098236365
O	-2.4416149601272727	-5.017575146072727	-4.333486005823636
O	-4.8733466801272725	-9.644900416072728	4.158243964176363
O	-4.542055590127273	-10.174363896072727	0.4457160141763634
O	-2.4839916201272727	-6.997946536072727	0.5039672841763636
O	0.43573609387272744	-7.881470656072727	-1.5654188038236365
O	3.6581457998727274	-6.7560222160727275	-2.3427900658236362
O	5.069964529872728	-4.706448076072728	-3.775467525823636
O	3.3253812498727275	-4.079824726072728	-6.040757745823636
O	2.940451059872727	-2.422937396072727	-9.432912935823635
O	0.8006275998727275	0.37555525392727285	-10.787007795823635
O	-1.7118143701272726	2.360134173927273	-8.893346015823637
O	-4.683062090127272	4.1852574839272725	-10.188690945823636
O	-4.818132110127273	7.912547403927272	-9.478208385823637
O	-7.712050200127273	10.199052303927273	-8.586869815823636
O	-4.040529490127272	9.711471633927273	-4.756274805823637
O	-1.4130956701272726	10.726273103927273	-7.203171245823636
O	1.6859747098727276	10.034026913927272	-9.254677865823636
O	2.2157001298727272	7.061434143927272	-4.9981320458236365
O	1.3306141698727274	9.940521923927273	-2.6793238958236367
O	-10.427453890127273	0.20078917292727283	6.994614954176363
O	-7.966185680127273	-3.558905136072727	5.146267794176364
O	-7.187664770127273	-3.726829896072727	8.785118094176363
O	-2.3613654101272723	-2.598792546072727	7.3488127841763635
O	-3.6210587001272727	0.8571280649272729	6.464170164176363
O	-1.1244274731272725	2.325593263927273	8.881481094176364
O	1.7211142098727272	0.31509540892727284	7.448835204176364
O	0.7541533098727273	1.2485327939272728	3.904800124176364
O	0.38244658587272745	5.025795103927273	4.719239554176363
O	3.9969040098727273	5.015000193927272	6.0067861041763635
O	5.522550269872728	3.178506703927273	3.022549834176364
O	5.882301669872727	6.156786183927273	0.6437217341763635
O	7.790040609872728	8.259383773927272	3.2225895841763634
O	9.720326309872727	5.179352983927273	4.360895514176364
O	10.085262609872727	2.236287953927273	2.0494450741763632
O	11.395140609872728	0.023003589927272847	4.8008057741763634
O	8.087333409872727	0.17135945492727284	6.638013574176364
O	6.798411009872727	-3.4487471460727273	6.640147014176364
O	4.836420769872728	-8.344653246072728	5.397848544176364
O	6.724982899872727	-14.328269296072728	2.8843734441763633
O	6.479503849872727	-12.424103496072728	-2.8774100558236366
O	4.9862123298727274	-11.127343096072728	0.30916172417636356
O	1.5785611998727274	-10.425245596072727	1.6700246741763636
O	0.6777557698727275	-8.546746776072727	4.706138384176364
O	10.465001509872728	0.5419440449272729	10.057530094176364
O	7.167016119872727	6.290245543927273	12.523032894176364
O	-3.617453190127273	3.7798152439272727	3.7275006941763635
O	-6.942317540127273	2.473556013927273	2.6298201641763637
O	-7.086085840127272	4.875549913927272	-0.3703693198236365
O	-3.6514632901272726	3.715724453927273	-1.3911252398236365
O	-4.701170070127272	-0.03951845507272714	-1.1914197895236365
O	-7.714616600127273	0.8421102119272729	-3.0860917858236365
O	-5.871122550127272	2.684964963927273	-5.764631635823636
O	-4.112456500127273	-0.6893887540727272	-6.390275595823637
O	-7.038021340127273	-2.9030587460727273	-5.8184027458236365
O	-9.415597720127273	-1.034552386072727	-8.110918605823636
O	-7.397496020127273	-2.042730886072727	-11.107957185823636
