106

O	5.4058113158840575	-1.6626876519130431	-0.745601897869565
O	4.287381965884058	-2.5091576319130433	-1.059448674869565
O	5.328887765884057	-1.1728384019130433	0.514171095130435
O	4.193910655884058	-0.4924952519130432	0.5787928981304351
O	2.998278115884058	-2.2365921719130433	-0.663151299869565
O	2.482431045884058	0.6777269940869568	1.246931779130435
O	3.0742616658840576	-1.1293188319130434	0.12944219113043498
O	-1.194084974115942	-1.1708555619130432	-1.328374362869565
O	3.836362515884058	0.49129752608695676	1.320702049130435
O	1.960227375884058	-2.986650691913043	-1.259386043869565
O	2.1328322358840577	-0.5198702619130433	0.890472599130435
O	4.106111555884058	4.341420818086957	2.529205119130435
O	0.861926581884058	-0.8970883619130432	0.930232199130435
O	5.580910005884058	6.220002018086957	3.161414479130435
O	0.6672418188840579	-0.8974272119130431	-0.485527617869565
O	-0.060200895915942056	-2.983559171913043	1.330368569130435
O	0.4882280038840579	-1.8203875819130433	1.7813175391304352
O	-0.6423988981159421	-2.873806561913043	0.11261969013043499
O	-0.286255724115942	-1.9135478919130433	-0.7647842738695649
O	-2.184802604115942	-1.0581035319130434	-0.505457696869565
O	-2.782500004115942	-2.362900981913043	-0.651975839869565
O	-1.813911274115942	-3.3315317119130436	-0.320036780069565
O	-2.3535267241159423	-0.03364649191304325	0.5833269811304349
O	-2.2370971941159423	-0.05990489191304316	1.9377746891304353
O	-3.3807198641159424	-0.3797418919130433	2.6829587591304347
O	-4.673910794115942	-0.17705715191304328	2.2030606991304347
O	-4.819181254115942	0.11376911808695689	0.905331299130435
O	-3.613665794115942	0.09955509808695684	0.20227303413043501
O	4.675374485884058	1.6036858500869569	1.685927699130435
O	4.1459100058840574	2.1356113660869567	2.949057869130435
O	3.452340335884058	3.172817048086957	2.041428509130435
O	4.246072105884058	2.7466930480869567	0.842319509130435
O	3.870050775884058	5.370250668086957	1.5824481191304351
O	4.485123105884058	6.511919228086956	2.3196761291304346
O	6.439006735884058	5.157669178086957	2.7351996791304347
O	5.549860135884058	4.048011368086957	2.359527849130435
O	6.366082145884058	7.426542068086956	3.119839139130435
O	9.06868714588406	-4.419592981913043	8.239318209130436
O	8.409134275884059	-2.4484582519130433	5.084511509130435
O	7.244591265884058	0.7357169080869568	6.757391749130435
O	4.387815405884058	2.4386016680869567	8.539524369130437
O	0.9771508058840579	2.1952121480869566	6.888318029130435
O	-2.1560003241159422	4.211400928086957	7.649566289130435
O	-3.6598951541159424	1.5736714300869568	10.027035069130436
O	-0.37017391111594206	0.17426465808695668	11.232393169130436
O	2.930035645884058	-1.349030211913043	10.189507669130435
O	3.303261045884058	-3.0059904119130434	6.717323039130435
O	5.6344885058840575	-6.029977741913044	6.667461339130435
O	7.135785745884058	-8.189640181913044	3.9157449591304347
O	3.9982837258840576	-10.793237711913044	-0.174510070869565
O	3.2547108558840576	-7.529988111913044	1.7320137191304352
O	1.473081385884058	-7.974696071913042	5.084887739130435
O	-0.5882530821159421	-4.993420961913044	6.312140399130435
O	-1.463433384115942	-4.951128931913043	10.029612069130435
O	-3.633911284115942	-2.768206291913043	12.286816969130436
O	-10.532462194115942	-3.4055587719130433	12.207012869130436
O	-9.348973384115942	-1.760606021913043	7.575213479130435
O	-10.85354419411594	-4.9413731719130425	6.108795699130435
O	-11.14883559411594	-0.7381077319130431	2.7767667691304347
O	-9.024722854115941	-3.5197082719130433	1.3994083991304351
O	-9.608330714115942	-4.581976611913044	-4.5419924208695654
O	-9.652264064115942	-6.176716341913043	-9.509909300869564
O	-3.3311070341159423	-2.517479181913043	-10.239846730869564
O	-1.778749494115942	-3.8105761519130428	-6.985321920869565
O	-3.3147215241159422	-7.230098291913043	-6.2842816308695655
O	-5.0572135441159425	-8.284267081913043	-3.0625860108695653
O	-4.042015424115942	-11.868694711913042	-2.176765810869565
O	-4.039100904115942	-8.939109111913043	8.492987189130435
O	-4.317565674115942	-8.051977381913042	4.776522859130435
O	-2.050733634115942	-9.991980111913042	2.370843669130435
O	-1.0376616581159421	-8.193583271913043	-0.841727258869565
O	1.175277225884058	-8.351391931913042	-3.887882090869565
O	4.582997615884058	-7.141884201913042	-2.808868080869565
O	5.738654615884058	-3.8205881019130428	-4.3881773008695655
O	9.274340505884059	-3.3986238319130435	-2.9395053708695653
O	9.693100155884059	0.2252408280869569	-3.945403010869565
O	6.942657235884058	1.8709374870869568	-1.9722886308695649
O	4.650392585884058	4.546142908086956	-3.071434170869565
O	5.419920985884057	6.460102108086957	-6.2928229508695654
O	5.623392345884057	9.897117938086957	-4.664232520869565
O	8.39955496588406	8.652149988086958	-2.367063770869565
O	10.049692205884059	6.737670538086956	-5.0917553408695655
O	10.137943405884059	9.947790578086957	-7.202783740869565
O	-10.67763179411594	6.062937838086956	-8.179769200869565
O	-7.7915473241159425	9.869501118086957	-5.334947680869565
O	-5.321410194115942	9.245998528086957	-8.167134590869564
O	1.621386745884058	9.556867758086957	-7.151818830869566
O	1.253118845884058	8.806906248086957	-3.390873700869565
O	-1.478669664115942	6.347590518086957	-4.253497770869565
O	0.5575124248840579	4.457725728086957	-6.842343750869565
O	3.0989254258840577	1.8083985470869568	-5.975055620869565
O	6.411497605884057	0.7804511030869568	-7.562401200869565
O	7.479065705884058	-2.8366607919130433	-8.147291290869564
O	10.906320805884059	-4.371919391913043	-7.751474580869565
O	0.6609500598840579	0.1772584280869567	-10.493215030869564
O	-2.436666564115942	1.8057067590869567	-9.066756640869563
O	-2.8800740541159424	1.4094161940869567	-5.255244540869565
O	-5.748378254115942	2.3970126680869566	-3.0012053108695653
O	-8.087521774115942	5.293317278086956	-2.8102930208695653
O	-6.551854764115943	7.217391278086957	0.095515617130435
O	-4.441427564115942	4.620805698086957	1.817629439130435
O	-1.532356274115942	7.041755328086957	1.7282685191304352
O	-3.5560218641159422	9.801230728086956	3.347065919130435
O	-2.253739294115942	9.619617738086957	6.925069659130435
O	1.312880145884058	9.611124448086958	5.526413829130435
O	0.960360985884058	12.789214288086956	3.331400689130435
