37

O	4.6064107134901535	-6.959628024198819	18.90522673935988
O	3.9740012408575978	-5.759796337538142	18.429456185389252
O	4.695318344749533	-6.980553057703824	20.255987669442995
O	5.400443218141471	-5.912278261975386	20.597753222321295
O	4.201599469086753	-4.51758808966519	18.975578873917282
O	6.42785157553255	-4.338866526634129	21.699479006278604
O	5.00845843324427	-4.723324381220604	20.055710061142523
O	5.704666864771685	-0.4073464413444363	18.94514007837367
O	6.135137530159543	-5.673657967490733	21.622156811610356
O	3.740911824411428	-3.3936539013739857	18.254349488336263
O	5.421736994895236	-3.872176793405087	21.026087733639862
O	9.409479638073842	-6.32658257916541	23.90449482123778
O	5.13860289613497	-2.5764988428658624	21.037455791285065
O	10.901803870256122	-7.983926885428274	24.96749280078764
O	5.580928554017175	-2.32051487862626	19.702877822926972
O	3.097662510350477	-1.496688808550088	20.857563400235776
O	4.028728149698675	-2.162465513321865	21.597127822089202
O	3.611250293124161	-0.8731765243551228	19.770653789312757
O	4.7654404111045485	-1.2717615660095507	19.198161408694787
O	5.630492255083246	0.5328886708862688	19.829381189637203
O	4.4759073378255545	1.2465215565844396	19.340640044436007
O	3.3879948352419555	0.3512508048990022	19.301527050391353
O	6.2856723393285625	0.5648337307990692	21.18332014722664
O	5.8420414746867	0.39172078795147836	22.45689680282645
O	5.39080529290217	1.524790186767916	23.1482776398497
O	5.817926026197651	2.815563651310889	22.83973627199807
O	6.497800695259573	2.9921215300846233	21.70114821158906
O	6.6145101853042885	1.8243487407009356	20.945869392902264
O	7.023934110820094	-6.620522437149842	22.245235425347033
O	7.182951859993335	-6.194792717108268	23.64246224209475
O	8.491665076202072	-5.5538714432917615	23.135396952865634
O	8.39561162061844	-6.254549560461305	21.812794181904327
O	10.690616647840095	-6.138590131516765	23.326644346643807
O	11.509860926500423	-6.881421326786271	24.327777124036224
O	9.962304502394392	-8.72785964367394	24.186182935423965
O	9.08271985584736	-7.730871323528444	23.557377246444215
O	12.007130917593873	-8.867439650419115	25.235111938937624
