83

O	0.3329356126490195	2.0035330062843135	9.869900886607844
O	0.6757502926490194	2.8715057282843137	10.941762896607845
O	-0.3356024483509806	-0.10990003171568663	6.300665846607843
O	1.4058255126490193	1.3045396235843134	9.247382366607845
O	3.432162842649019	0.15412069828431352	2.0687389276078427
O	1.9571413026490192	1.8752876152843134	5.106860916607843
O	0.8830744726490195	0.3212826722843134	8.270884846607842
O	3.1284487526490192	-0.35101807171568655	-0.4401018633921572
O	-0.03766543035098058	0.8492467912843135	7.1381976866078425
O	1.6117771626490192	0.5211264092843134	1.405401039607843
O	-1.1177482603509805	1.5066580032843135	7.936669646607843
O	-0.26143649135098057	1.7791749552843135	2.003948392607843
O	-0.5168815873509806	2.5653967382843135	8.874988396607844
O	-2.0719084873509805	2.9162497382843133	4.276234346607843
O	0.8267342326490194	-0.23500510171568667	5.695749196607843
O	0.9803433026490195	-1.0540495617156866	4.541412206607843
O	1.8588372526490193	-0.7514764917156866	3.453171086607843
O	2.822010912649019	0.31072481328431345	3.319281866607843
O	2.7962255426490192	0.9654280722843134	4.579763036607843
O	2.0544234826490193	0.1974550782843134	5.682487836607843
O	1.4303652526490191	2.4008155482843136	6.093541456607843
O	2.739628982649019	-0.31302466171568666	0.9184936376078429
O	2.0179948826490195	-0.6211800117156865	-1.311874483392157
O	0.7774459826490195	-0.3485227517156866	-0.528681503392157
O	0.5715516526490195	-0.2821051517156865	0.9490935156078428
O	-0.5468802426509806	-0.20528394171568665	1.7397812706078428
O	-1.4849685833509807	0.9114954112843134	1.888395739607843
O	-0.32244593335098054	1.5085217692843134	3.5018292666078428
O	-0.9123053973509805	0.21406640528431342	3.143566086607843
O	-2.1276589973509807	0.4675041682843134	3.882359056607843
O	-2.2008772373509804	1.6517386012843134	4.926459576607843
O	-0.6956431441509805	2.843522838284313	3.8781852666078427
O	6.034531102649019	-10.113204551715686	6.357134006607843
O	3.1008752326490194	-7.758182961715686	6.7975777766078425
O	3.0681300726490193	-4.219052321715687	5.539629186607843
O	-0.36183972035098055	-3.3200725317156863	6.958728046607843
O	-3.9822540073509805	-3.272776971715686	6.923465486607843
O	-5.572831877350981	-2.6188379617156867	3.606695096607843
O	-9.21839947735098	-1.8107518317156865	2.726602006607843
O	-9.99422468735098	-5.398361661715686	1.735994548607843
O	-7.581110927350981	-7.191149281715687	4.036636196607843
O	-3.9260293273509808	-7.375405111715686	5.050584706607843
O	-1.0885385333509805	-6.309525261715686	2.753904516607843
O	2.2527815126490194	-8.210629021715686	2.783830946607843
O	5.73390618264902	-7.599299941715687	1.2892177050078428
O	6.592765522649019	-6.652824391715686	-4.335170403392157
O	3.558290032649019	-5.748576291715686	-2.218548403392157
O	0.9054097126490194	-8.504470051715685	-1.9410328533921573
O	-2.6351036673509807	-7.275562611715687	-1.235601893392157
O	-5.08884880735098	-9.900865951715687	0.0941396666078429
O	-8.829182087350981	-10.007359751715686	0.7824130996078429
O	1.7433598326490194	5.645101458284314	-10.874648953392157
O	2.0045814926490193	2.6183889982843134	-8.611273803392159
O	2.306289242649019	-0.37227079171568667	-10.880633953392156
O	-4.150607347350981	-11.748894351715686	-4.371868753392157
O	0.6565700126490194	-8.118598241715686	-6.740417353392157
O	1.8697815226490193	-4.532362581715686	-6.798466403392157
O	5.006724012649019	-2.5035106117156865	-7.017817763392157
O	6.383719692649019	-2.2083707617156865	-3.5468025833921573
O	6.239763182649019	1.2755855677843135	-2.031203023392157
O	7.96655034264902	0.8038764162843135	1.324773701607843
O	7.01466324264902	4.210678548284314	2.789660926607843
O	3.2923322826490193	3.9854122482843133	2.699691526607843
O	0.6360990426490195	6.544218508284314	1.876026407607843
O	1.6544589926490194	10.145907768284314	1.403599663607843
O	0.7630788926490194	9.085864318284314	6.682680986607843
O	4.277279422649019	9.889995938284313	5.440945986607843
O	5.391758272649019	11.531624548284313	10.113799516607841
O	-3.9803497873509808	9.444560498284314	1.2300784584078428
O	-4.258022737350981	8.097142468284312	-2.3226832833921573
O	-0.5890337454509805	8.673563438284313	-3.197635523392157
O	2.2743225226490194	6.410271608284313	-2.171506913392157
O	5.971484282649019	6.930373878284314	-1.3284012733921573
O	8.828424282649019	4.6903781682843135	-2.568440733392157
O	11.96760745264902	3.5635272782843135	-0.7307132233921572
O	3.3875890726490194	8.088965408284313	-7.112324983392157
O	-0.36266975535098056	8.023131518284313	-7.671548163392157
O	-2.1853409573509808	5.0825514182843134	-6.017384373392157
O	-8.31037616735098	2.3277582282843134	-2.018294473392157
O	-7.397919017350981	4.2897295382843135	1.2445507714078428
O	-11.06362214735098	5.095082058284313	2.0620079366078428
O	-11.77454524735098	2.5899467482843135	4.853012256607843
O	-8.53227643735098	3.7272792282843135	6.5850379566078425
