89

O	-4.221108389298246	2.7388068174842104	1.3047425456263162
O	-4.203290869298246	1.4119555984842105	1.3470872256263164
O	-5.0607141892982455	1.1683927233142104	2.3417248056263165
O	-5.631828589298245	2.3616274974842106	2.827413765626316
O	-5.267975879298246	3.31362734748421	1.9609548356263162
O	-3.135538199298246	3.31099918748421	1.0424001556263165
O	-1.9969435232982458	2.68545452748421	0.8153005056263164
O	-2.2466422992982458	1.4892915224842103	0.36212815762631634
O	-3.1500591392982455	0.6859354684842104	0.9271121856263164
O	-2.8864965192982455	-0.4855921125157896	1.5811902756263163
O	-2.205234119298246	-1.4205741825157898	0.8489311956263162
O	-1.0569751690982458	-1.6277266625157898	-0.046152378373683633
O	-0.8519751152982458	-3.0372644925157894	-0.13220998737368367
O	-1.7252247992982457	-3.49729000251579	0.6680037056263163
O	-2.687652789298246	-2.5670841625157896	1.0638600756263163
O	0.3750618207017542	-3.5431202925157894	-0.7687469103736837
O	0.9785161907017541	-2.6960567525157897	-1.9515363643736836
O	1.6476099207017543	-2.7263621525157897	-0.7221333423736837
O	-0.8548481622982458	3.7921531474842105	0.4132948836263164
O	-1.3431036722982457	4.5176724874842105	-0.7078497573736836
O	-0.22881667429824581	5.405302977484211	-0.8024531933736836
O	-0.08052468929824586	5.9380148874842105	0.5922059656263164
O	-0.9012089712982458	4.94693108748421	1.3672272156263165
O	-1.5663636472982458	3.1616865674842103	-0.9471151273736836
O	-2.645103499298246	2.9830662674842103	-1.5361812543736835
O	-0.6215220772982458	1.9892947714842104	-0.5504264030736836
O	0.6005848907017541	2.3959704974842104	0.03787872862631636
O	1.8935104607017543	2.0873448914842103	-0.44344664167368364
O	2.052521690701754	0.7455653804842104	-0.8504828383736837
O	0.9601079307017544	0.33297195548421044	-1.4725441433736837
O	0.09137887070175421	1.4086888844842105	-1.7318679643736838
O	3.119466020701754	-0.035886292515789675	-1.1055743673736838
O	-12.673611219298246	1.4763908384842104	-5.778105314373684
O	-9.404598459298246	3.2992366774842106	-5.271943084373683
O	-7.303824179298245	3.0115056574842103	-2.2413823543736835
O	-4.821932179298246	5.67584090748421	-3.1137592243736836
O	-1.7418921172982458	6.49534616748421	-5.103497964373684
O	1.078409670701754	4.16103104748421	-5.1225457043736835
O	4.696553710701754	4.42513784748421	-6.281284754373684
O	4.090005550701754	2.86454457748421	-9.733989714373683
O	0.46448098070175425	3.9207260674842104	-10.058552144373683
O	-2.975484169298246	3.80011483748421	-8.465113334373683
O	-3.888898559298246	1.0776517051842105	-5.941241604373683
O	-7.426249289298245	-0.2326743925157897	-5.703737154373684
O	-9.399172239298245	-2.4439937725157894	-3.3332525543736837
O	-7.617607629298246	-7.73438697251579	-1.7570610743736839
O	-5.503693339298246	-4.7078962425157895	-2.7197863043736836
O	-4.808366649298246	-4.33812607251579	-6.476747154373684
O	-1.6330081332982458	-2.3940629125157895	-7.354727964373684
O	-1.3681168992982458	-1.0746414925157897	-10.951207904373684
O	1.3300817807017544	0.6263029654842104	-13.029629704373685
O	2.0487922307017543	-8.33259992251579	4.019357155626317
O	1.2360967907017544	-11.22270025251579	1.713945375626316
O	1.5264260507017544	-11.37042915251579	-2.056188364373684
O	-1.5237403782982457	-13.12188505251579	-3.4940565343736836
O	-1.3972165462982458	-5.924843732515789	-11.835289704373684
O	-0.14932603529824573	-7.184988532515789	-8.517914104373684
O	-2.682347979298246	-8.68084803251579	-6.079501064373684
O	-1.9112033752982458	-8.31845572251579	-2.3790814743736837
O	-3.345916229298246	-8.84951715251579	1.0502045356263165
O	-5.570839089298246	-5.87131408251579	1.8285432056263162
O	-4.396830239298246	-3.4697561725157895	4.553918645626316
O	-7.193907789298246	-0.9918073225157897	4.919797725626316
O	-5.255041349298246	1.5212629734842102	7.1506250856263165
O	-2.3725448292982456	2.2383531974842104	4.574813695626316
O	1.141790400701754	2.8129721874842106	5.805017765626316
O	2.110850470701754	3.1184847074842104	9.416719875626317
O	3.7147619807017547	6.57385434748421	9.064599775626316
O	0.42854215070175417	7.96813683748421	7.601915225626316
O	-1.5927784052982457	6.127692677484211	10.172386795626316
O	0.5268032407017542	7.561758317484211	12.990511195626317
O	-3.459458659298246	10.73492232748421	11.545206295626317
O	7.076023990701755	3.2400978674842102	9.621995795626317
O	6.448415630701755	4.250094817484211	6.019202805626316
O	7.205823230701755	0.7014570214842104	4.912339945626316
O	4.933810750701754	-1.0045610925157895	7.459040905626316
O	1.211498600701754	-1.3798833325157895	6.913565855626317
O	-1.8264454232982459	-1.3474410125157896	9.154338755626316
O	-4.705819759298246	-3.84086942251579	8.869808745626317
O	6.109037970701754	-5.4078908625157895	7.4039539156263166
O	5.711405140701754	-4.14133442251579	3.8240743656263163
O	8.100457180701754	-3.72155203251579	0.8370161056263165
O	11.057261480701754	1.0902742091842104	-0.5747756180736836
O	7.550843150701754	0.7820990624842104	-2.048887214373684
O	6.826926840701755	3.9955613574842106	-0.11924094037368366
O	9.766152280701755	5.944041507484211	-1.4539118253736838
O	8.121103000701755	8.13192955748421	-4.116022314373684
O	5.5364209207017545	9.14460690748421	-1.5542592143736838
O	7.901095970701755	10.337029987484211	1.2437938356263163
