29

O	5.031736677403782	-2.456270560283375	19.999289656917586
O	5.5704332714839335	-6.959321245024759	24.57074567100741
O	5.853785994004812	-8.898994991934082	21.80057272340923
O	5.5334707527680855	-7.301429434623897	23.13267971425324
O	6.122347345947182	-8.554217957376913	22.99657527660621
O	5.007658538896385	-6.602718055318	22.051952895420026
O	7.666580311311748	-11.564999607940557	23.600939362956407
O	5.248257717657641	-7.844991917910996	21.04780065448966
O	3.8453791154370722	-6.751640376461935	21.38097704344713
O	6.083483396378375	-9.487016951144604	24.035926716200446
O	4.463788021775288	-6.377364772495417	18.888596221966722
O	7.510513231314729	-9.491455788270537	24.489106613318942
O	3.6241658932326524	-5.253935948671059	20.83817500424982
O	8.350683649051364	-10.266614647527557	23.517329726754422
O	6.808510783400067	-5.323903814837818	20.033846362228687
O	6.552576378828366	-11.476046020840249	22.733729795520297
O	6.552468635501823	-4.778500562553608	22.24172069118272
O	5.490378945438762	-10.72761083359218	23.421135744179672
O	3.8070409137533687	-6.501199068120802	20.013692815191522
O	4.467954655556229	-4.867122044095783	18.73960668672076
O	5.072315594932501	-4.441730072207418	20.092196088226167
O	4.538620265342166	-4.503356761968442	21.400930531431598
O	5.758926445626667	-3.855721411037919	21.74562270797319
O	6.149228144091158	-4.159465922049832	20.19156019950862
O	6.481419482610123	-5.7676114899124755	21.170136856484334
O	7.444736353163531	-4.585014404021099	23.25728438261188
O	8.098389701557608	-5.7472659109728745	24.061045372356766
O	8.540951637221115	-6.602027663128491	23.00823210108243
O	7.897392179819626	-6.3566214479188385	21.75414147938669
