31

O	6.12745237400352	-3.3784479145053252	24.31512260858088
O	8.525175319778656	-3.9565225598815443	25.341192921989894
O	8.538714080883771	-1.272226711589125	24.907104259184727
O	6.594737108375953	-5.885104037946818	25.12741469971054
O	5.710423189300991	-5.008579337404283	24.5756810181829
O	6.6559755747563525	-7.1799615401314805	24.318976517260214
O	5.47428231527877	-7.029361215474172	23.572318421159697
O	7.892692441916706	-7.0334795756294906	23.475148901265843
O	8.641304638492501	-8.21663896032082	23.57675350104951
O	7.332186991060155	-6.863658621435759	22.09905433238315
O	7.54723980773533	-8.016111022792053	21.399985615471884
O	5.9596332367905624	-6.489974547736459	22.477712672088824
O	3.6406751378093993	-5.540251525309187	18.308243114201254
O	4.995535997760161	-2.437761575016124	24.434929195509547
O	8.603578052124641	-3.8660025650097847	23.941057388573604
O	8.839684769172568	-0.035365739066118174	25.641167377839142
O	3.948669837406232	-6.72528863842881	18.869339782635826
O	6.935709016623261	-2.992903129211547	22.963200638822403
O	9.093738573750745	-5.289751967623546	25.971599225691822
O	9.17784875928098	-1.819264076009016	23.569843941070083
O	4.845792789684632	-6.803817305726441	19.813499670875185
O	8.992266063009419	-2.499577561349306	26.046762557152995
O	7.010670289252699	-3.3638774898714674	25.621799606302332
O	7.156715885207247	-0.5565098217853319	24.53702775016523
O	5.085688769412743	-5.6269385673918055	20.447795155807427
O	4.662993099363802	-4.3945915989249755	19.926655076747018
O	3.861213676045657	-4.338278693794801	18.810936228833746
O	3.554128300364022	-3.0902432093590813	18.26312773235195
O	4.716049864999469	-3.441104381900465	20.860327647150275
O	5.042400209200271	-4.1838928457274	21.879202998272696
O	5.393900567732508	-5.440736196176202	21.728335944616482
