32

O	9.412478306273986	-12.211578423281239	25.67578180295012
O	10.297196910404569	-13.3228936683332	25.720927534322634
O	6.9674874586382245	-8.89141807971394	24.868603901951946
O	8.219912413309945	-12.376467326325372	24.915642319095227
O	4.71215913746257	-8.183139726852328	19.712364611513465
O	7.537214941275415	-9.670650420592889	21.7555633196756
O	7.3268149897317425	-11.2090318051299	25.097525755713402
O	3.7972073476341146	-6.048956980384678	18.594412570065955
O	7.896052106737187	-9.805531573955491	24.757460338369228
O	5.606305594471451	-6.532135397188785	20.315026362716146
O	9.095800931309055	-9.764588044901362	25.649229522405868
O	7.607482247766708	-5.880003718134855	21.324922766753883
O	10.015853193347526	-10.96118239755386	25.359270327636853
O	9.868405073701801	-6.517896398402869	23.378055073938825
O	6.252584708694984	-9.181280347824554	23.802069366348718
O	5.194537129522281	-8.33574599260169	23.363286464824675
O	4.8587152375422065	-8.116601531928426	21.989688932664023
O	5.3866289206634494	-8.74205830281171	20.804778638243672
O	6.27291281465662	-9.73547131960214	21.300505841345807
O	6.144898730282793	-10.011199970921108	22.805045938954496
O	8.444009232620683	-10.119535247033259	22.465096707901115
O	4.303742759759263	-6.822355416926539	19.663843625675216
O	3.7949612258787813	-4.64402876032509	18.898146703184807
O	4.713620033012882	-4.451223129375166	20.058141006357094
O	5.200539338529415	-5.436162295657185	21.06978679819104
O	5.898658708333245	-5.310295504664593	22.24399522307441
O	7.297249979496257	-4.915244876961781	22.43678935270178
O	7.742468400621126	-6.943051440248266	22.40766497561394
O	6.74478655125518	-6.168486242461146	23.153708583337508
O	7.625976381289853	-5.9568645717611215	24.27880896872648
O	8.950204814064389	-6.805762928049726	24.43278506218843
O	9.163345026827454	-7.107758379100369	22.276786831867426
