92

O	1.9825402303316664	-2.4952351645999995	4.76329382877
O	1.9637331603316666	-3.1473218445999995	3.6045243987699997
O	2.9258193403316666	-4.0627234545999995	3.76288351877
O	3.372671880331666	-4.0455367745999995	5.10124357877
O	2.880302000331666	-2.9386299445999997	5.68805210877
O	1.6436878603316663	-1.2781270745999997	4.62583980877
O	0.5490089113316663	-1.0334431745999995	3.84764997877
O	0.6701561503316664	-1.5092826145999994	2.66569667877
O	1.3310584503316665	-2.6903730545999993	2.4861109987699996
O	2.1224654803316665	-2.8447424445999996	1.37778358877
O	1.5521435903316663	-2.6110924046	0.18074822977
O	0.8104002003316664	-1.6555998845999997	-0.65942356923
O	0.5865044203316663	-2.148869554599999	-1.95518892123
O	1.4658775103316664	-3.0928748945999995	-1.96498324123
O	1.8638308303316662	-3.5031812145999996	-0.67296715923
O	-0.2343711516683337	-1.4577567845999997	-2.92715037123
O	-0.7636380726683336	-0.1401298935999995	-3.15865487123
O	-1.6826305196683335	-0.9764104845999995	-2.4892731012300002
O	-0.35084096276833365	0.2097708244000005	4.34175410877
O	0.3317322103316663	1.2098797274000006	3.59943961877
O	-0.23934405466833367	2.4203895454000004	4.12084979877
O	-0.3812929480683337	2.1158689554000008	5.61267352877
O	0.0024260903316662974	0.6362259664000005	5.72595570877
O	-0.18484617766833367	0.5087945854000004	2.4961249087699997
O	-1.3270432966683336	-0.07224202359999954	2.8509463387699996
O	-0.011911305668333705	0.7171972674000004	1.11529047877
O	-1.3090261796683338	0.39123819440000046	0.57067152677
O	-2.089120329668334	1.3542019794000004	-0.20971116222999997
O	-1.5887927096683336	2.3546776354000007	-1.0231206182300001
O	-0.2785995406683337	2.2354458154000003	-0.94017784023
O	-0.004655193668333668	2.0588812154000005	0.44080831277000004
O	-2.1977981096683337	2.5250041954	-2.2002970912300004
O	-3.3274804496683337	-11.8274298846	6.92035783877
O	-3.4961380096683334	-8.0552625946	7.35383060877
O	-0.9140657286683337	-5.663812484599999	6.18064178877
O	-2.254543489668334	-2.5275965945999994	7.66409764877
O	-4.933381929668334	0.1323418214000005	7.47365511877
O	-5.3938711496683345	1.7947252254000006	4.2201549087700005
O	-7.115692639668334	4.987591835400001	3.1495636487699996
O	-10.319782719668334	3.1890418254000004	2.0361592487699998
O	-10.058505239668333	0.21344224540000045	4.3844245087700005
O	-7.751711809668334	-2.6139569546	5.49659836877
O	-4.998131859668334	-3.9942669745999995	3.28239881877
O	-4.113732549668334	-7.6657940145999985	3.3556408687699997
O	-1.3317490636683338	-9.8593636846	1.97008242877
O	0.1048857703316663	-9.9583835846	-3.6420248012300003
O	-1.3640717236683337	-7.088509664599999	-1.63130925123
O	-5.151475229668334	-6.944504804599999	-1.39498640123
O	-6.737258149668334	-3.5663195745999996	-0.75634659923
O	-10.374190669668334	-3.5294131545999994	0.50998688077
O	-12.979050569668333	-0.7959793445999996	1.11171319877
O	6.305764590331666	1.9261746054000004	-10.07716097123
O	4.1132064003316655	-0.31146903459999953	-7.93525108123
O	2.1363354103316663	-2.543097704599999	-10.30563187123
O	-1.6226367296683337	-3.0186495545999996	-10.43475657123
O	-2.440071959668334	-6.7173134245999995	-10.901624671230001
O	-14.674756769668333	-4.5962667345999995	-3.7059092012300003
O	-10.963823669668333	-5.425050714599999	-4.01831154123
O	-7.853672309668334	-4.116050814599999	-5.71609579123
O	-4.9601172296683345	-6.549183374599999	-6.23440066123
O	-1.4633757396683336	-5.131416314599999	-6.34433564123
O	2.2069232403316663	-6.0293976345999996	-6.39898658123
O	3.210251010331666	-6.771006744599999	-2.78659043123
O	5.579927850331666	-4.323864674599999	-1.05085631123
O	6.356473470331666	-5.9150816945999996	2.2447765187699997
O	8.115476460331667	-2.8579837545999993	3.80752112877
O	5.056705300331666	-0.43978183459999953	3.5529813287699996
O	5.576212370331666	3.2682912654000003	2.72623762877
O	8.927283890331667	4.933663505400001	2.52832596877
O	8.114237330331667	7.587846085400001	5.14881190877
O	7.237472280331666	4.847942165400001	7.69694761877
O	10.189674530331667	2.7699121254000003	6.6474697887700005
O	12.531008930331668	5.7575823354	7.16781598877
O	4.761439060331666	8.7089088454	2.07533331877
O	3.7143976103316665	7.967148825400001	-1.50818086123
O	6.688384490331666	5.6802038154000005	-2.2993317712300003
O	6.945828880331666	2.0243352854000003	-1.24979393123
O	9.618579330331666	-0.3811637445999996	-0.11834324543
O	9.910447430331667	-3.980337734599999	-1.37111075123
O	11.102105430331667	-7.033049634599999	0.52451534277
O	9.023784670331667	2.2992629154000004	-6.09406444123
O	6.554601260331666	5.092261345400001	-6.82187331123
O	3.0571141303316662	4.5094389754	-5.33511091123
O	-0.30496787766833366	6.320789335400001	-5.76407271123
O	-1.0331460396683336	10.0607022654	-5.88548956123
O	-2.425899979668334	10.587278895399999	-2.39306216123
O	-3.1963059896683337	6.985725265400001	-1.26483277123
O	-1.3439411546683337	7.911726065400001	1.92215092877
O	-3.2914561496683334	11.0746812154	2.60795250877
O	-5.711635529668334	9.8529090454	5.29797873877
O	-2.7474958096683335	8.2972231854	7.109927878770001
O	-0.4903852095683337	11.4496081154	7.27179232877
