37

O	-8.226777895027846	-1.649849357100998	30.878615367235657
O	-4.603317319505468	-1.5620540600232198	27.541224332472282
O	-5.717952505384352	-0.45281973515421314	28.418978675633777
O	-6.608672899544251	0.33757465821189414	27.691666876597793
O	-7.962336949467467	0.44013896647818296	27.830813701709346
O	-8.097243130374968	0.4411734678948831	29.257481801391872
O	-7.365324608169379	-0.4139783078264425	30.04166790375031
O	-6.078381119429164	-0.6707296160952605	29.706111785533345
O	-8.952392867588573	1.0822588793971601	27.048100478848756
O	-9.531733924909258	0.9563817858877095	25.743149608204273
O	-10.379576387877547	2.141305652040251	25.42489356704436
O	-10.866862479343034	2.354240131184253	26.65251982670336
O	-9.87535366437654	2.0042305298993224	27.659680094145475
O	-9.775747903849652	2.5076792410149835	28.780923088580842
O	-11.806585375640653	3.169401523589415	27.332413133972306
O	-12.853928607578823	2.959032332827599	26.380656130163132
O	-12.897185959587176	1.7864001919459251	25.58833017977983
O	-11.774868375782857	1.0966365122873656	26.21791012456603
O	-12.100888828791614	0.8755547825867707	27.54763350973743
O	-12.966159383943332	1.6809460450539353	28.1752266770082
O	-13.23031945599444	1.573376402582346	29.500129131664394
O	-12.621173278638679	0.5136300693849531	30.111626936107662
O	-11.413083385053651	0.05961079541547143	29.583077118017925
O	-11.17543866561314	0.2178763983680998	28.240691652319217
O	-12.949485811690566	0.3514596642429184	31.524875874379365
O	-12.387469160402564	-0.030312220064347972	32.494275099482685
O	-13.058433476974212	4.1312364922628575	25.637544534210857
O	-13.431931102138652	5.112007600208174	26.43491984312854
O	-14.125050147968075	6.096085572237238	25.671698759993898
O	-13.725129496082719	6.266351122834082	24.337098360147746
O	-12.60895685336413	5.515188547535656	23.971624888689064
O	-11.928236397650373	4.643446162711058	24.993817097595926
O	-14.795184200399724	6.6369751204902245	23.38118773772006
O	-15.238758911663133	5.627386292194185	22.743873866158516
O	-15.811325042527205	7.444908925706721	23.905604572907947
O	-11.270786838287766	2.208115522546654	24.189325948085244
O	-8.75602868360172	0.8573491664243706	24.787042326850074
