42

O	-12.303027997463474	4.543433084567374	25.209704444448057
O	-6.38596073611434	0.44608697348844906	29.214238119303555
O	-10.461017953951991	0.10487282326598801	29.332932189048435
O	-7.276933224920441	0.10815061799186032	28.058361311680063
O	-10.774797536528153	5.6318233541162455	27.56985822127596
O	-8.081448660484753	-0.9172622579701902	28.40849554210393
O	-12.62175336051082	5.977704679813157	28.846887215137034
O	-9.229715245313546	-0.1950895067552777	31.211850688969914
O	-14.549198361499034	5.892151482576123	26.554741047988816
O	-10.44792552225854	0.31549898966846135	30.676482422397203
O	-11.605366137198459	2.6669251804188656	24.428752718828786
O	-11.151099653819013	0.30832086767555444	28.23583503263302
O	-11.887499371569877	1.2734453356822868	27.962221154899744
O	-12.24980222642547	1.8405214697897159	29.347622426639806
O	-11.773764302435804	3.292279376882511	29.584683637514992
O	-12.03278379403886	3.868849047027791	28.299433891195637
O	-13.168373894130895	3.2371951753216304	27.756182402602196
O	-13.00519089488876	1.8222243377879117	27.20316324277831
O	-11.672328378311985	5.206909717333695	28.2531623712212
O	-11.37339249949757	0.8758460263197322	31.56793961335393
O	-10.842425231387029	1.8081019148616924	32.40512574475657
O	-9.835525947396826	1.1794125291445798	33.08328762678072
O	-8.882685390022292	0.542387865700066	32.35347342743998
O	-8.733931231430187	-1.304485194980542	27.271777282853446
O	-8.853333077962143	-0.4123728169176616	26.181958097328046
O	-8.648161228473104	0.9160409744631967	26.407571024888178
O	-9.527972480602251	1.8543748364402126	25.78619144791929
O	-10.154969811072231	2.941315813863022	25.875546966740806
O	-11.20593770971476	3.620619067649646	25.192976491877783
O	-13.709009363377444	4.264729876201307	24.874512245222775
O	-14.801831360304355	4.964787188593228	25.578553823715247
O	-13.640913745494359	6.619678465253194	25.890246955274126
O	-12.561835537975888	5.931147822233152	25.15142004213942
O	-7.994290375838659	1.2029056474623228	27.53632286792621
O	-8.332144817807892	2.3566333117021094	28.42998151776995
O	-6.041162621204629	-0.7697970501439567	29.920490579783667
O	-5.26479411544538	0.37473688083547724	28.63408752615958
O	-7.062831991094267	2.4592082926714607	28.69937021139091
O	-8.798461481344603	2.3501723601752036	29.679920350581806
O	-9.3463948520632	2.8459409012885533	27.937432367827117
O	-7.091711663298485	0.6908306194871465	30.220814642921503
O	-8.132703543438028	-1.2129314329657963	30.15248082049718
