28

O	-6.09672184442533	-0.28823831852190107	31.64769304787241
O	-3.1256805153996146	-1.26342361225328	27.519184763893687
O	-9.813302614401508	0.641673857444637	26.657432915686748
O	-9.875495807052864	1.9227083329236783	27.257081462344402
O	-10.705091301528753	2.812124505027449	26.434809052719682
O	-10.387389623684982	2.0753080373745214	25.122695488061716
O	-10.917337995423198	0.7172913235709009	25.62400539832169
O	-8.653099096931996	1.9733818442660531	27.92647417699235
O	-7.847617291768593	0.8503534051045711	27.379360624042423
O	-8.406455938604735	0.6953572044857008	26.242575423285615
O	-8.364732487730075	-0.0006204493275367429	25.07960698063089
O	-8.395795422911577	0.13529197146846134	23.93718458063003
O	-6.527700715952067	0.37565544715781624	27.72035821036318
O	-5.846179104455885	-0.6951832172032764	27.306603069232214
O	-4.786847646493079	-1.1830176468813236	28.063121109464127
O	-4.833491231944858	-1.119571827998974	29.453192034416386
O	-5.738995623377016	-0.2428427024496003	29.968479144637598
O	-6.287101132263687	0.6411748163729487	29.077931689670603
O	-8.405419138497846	2.6001207588832695	28.934969763610514
O	-9.79326416697056	-0.6108202401943255	27.38130442633761
O	-9.615425718524117	0.08193197200557095	28.695518729289773
O	-9.027562347534694	-0.33487714430771603	29.781980790856586
O	-9.259950927339682	0.39801142994216515	30.92436738881145
O	-10.540045654256769	0.8482292638310851	31.098160078789196
O	-11.199889285431329	1.3748007334945478	30.03130562673074
O	-10.901161157730254	0.6785779866829316	28.858988738601347
O	-11.343928795115453	0.5637925384187981	32.2619895347357
O	-11.537749503650605	0.14599673777061667	33.29670355885473
