29

O	-7.6079572554766735	0.5126556888413296	28.175702640442267
O	-11.518099408288078	2.601704360480985	28.307147532091893
O	-7.561032289360329	1.264450863897929	26.905029565636738
O	-13.13654175562634	1.9397962847805044	29.7021985004239
O	-7.651137773138658	0.6378090949949952	25.59193875410994
O	-12.900221087276506	1.8835080654175385	25.304513691212648
O	-8.997654740956625	-0.023978499894759087	25.529820311989315
O	-6.4927653490490504	-0.2621052923951668	28.54840908323709
O	-10.7526861149179	-0.8769757339012659	26.69596767957618
O	-6.947860895277727	-1.631554275888822	26.98830633671718
O	-11.417880629112435	-0.3352293780780188	27.7484228797423
O	-10.6216869131902	0.11229589971451925	28.84684825095397
O	-9.38165040783689	0.5309158313626069	28.261775339883872
O	-8.54927514263794	-0.6265904443067457	27.85270058621058
O	-9.82168807613716	1.4328082487911282	27.203246563750508
O	-11.037375143166393	1.7401124958673817	26.4604706322118
O	-11.405182962658143	3.107080827385425	26.940842937194155
O	-12.607152926526151	3.8228265135196455	26.4710874164019
O	-13.632215350483511	2.7267601442782823	26.176903725249215
O	-13.664613910350962	1.9893290201749148	27.46999390869808
O	-4.7091693372022245	-1.099317722954693	26.848268828762976
O	-3.8151553169289265	-1.2766753085073472	28.007807678401175
O	-4.370566809602659	-0.5423511867820247	29.175773763229337
O	-4.507494449155108	0.08430170140369386	25.947803029871885
O	-10.633562914417041	0.13437010084824574	30.259969201291224
O	-8.314422251084878	1.819582986858924	24.67697945654925
O	-12.909918765814771	2.537514003063886	28.60369013962577
O	-6.088298528809087	-0.8166499067557994	27.374684170304
O	-9.260046586652686	-0.802601617580256	26.589106906676893
