32

O	-10.01730081894739	1.8275077542212126	25.817703081788075
O	-11.267307752149161	2.3572968072129843	25.479480320166616
O	-9.238321067345108	2.817722689753123	25.513521846277275
O	-11.443339993631383	2.718060283334178	24.041465372931967
O	-13.158863016690955	2.606598991110061	29.180176297288906
O	-12.710556709083566	4.727030235740449	24.71157361869905
O	-12.469499137123966	3.736704268676413	23.828277043683045
O	-12.861431144579178	4.266269606317853	25.963192195657285
O	-12.432863960997182	2.8661816531043263	26.08847920346534
O	-9.348905072261902	0.7893695224444846	26.50752037775635
O	-8.269105365368693	0.07942497359113032	26.65196275981142
O	-6.949695319655318	0.5123647845147558	27.171206976872604
O	-6.282187456948874	0.12273609676091146	28.283816552899786
O	-5.7775120550766665	-1.1697632259924957	28.42597743799805
O	-6.397570806870365	0.6452299008416726	29.596771323043487
O	-6.019825374209576	0.09512681302066728	30.88171314896194
O	-7.280598790278917	1.636301954585131	29.509863636247914
O	-9.704740618898327	2.283183629615341	29.518112672039322
O	-9.30566785071109	3.3696277244576693	28.683716084829104
O	-10.289440276105788	4.244233576962287	28.17806251267183
O	-11.428579620144177	4.1815014017342875	28.995645660258116
O	-11.828007886570344	2.938837537045447	29.39658195962538
O	-10.931891289849531	1.8821409300547622	29.0868471141057
O	-7.164021883409154	2.4953987718668573	28.398664000399425
O	-6.8404846976599245	1.9306845849880858	27.14017141876005
O	-4.4311360205175605	-0.7147260664429052	28.690166866400098
O	-6.568327869137454	-1.7551175000633854	29.337488407031444
O	-5.118415557702985	-1.5914528030402575	29.621489533743706
O	-6.554635923000726	-0.9739127796954612	31.52074694075764
O	-4.715836062346405	0.14081038375847066	31.252226950087838
O	-6.690577650227936	0.8699303590933329	31.829143042436865
O	-8.79764718748892	1.022853351503655	30.270613880276663
