43

O	-14.25752804438438	5.058659876883528	26.783720258371144
O	-12.8826723743061	5.135952963927623	26.364313327554406
O	-12.494503085966432	6.525613827154814	26.96262117659499
O	-12.649222036388725	6.178131474532135	28.41189934235579
O	-13.99694153315378	6.545930917155278	28.535037588078847
O	-14.93300752894817	5.992767396601529	27.582836634124572
O	-16.112075683104504	6.377089048937393	27.503141620316352
O	-11.96180986104774	4.928898886674942	28.534070026598226
O	-11.162805788769816	4.103083141047152	27.58218014756602
O	-11.238516106221375	2.6571298820712177	27.817448193199706
O	-12.091116327369765	2.050660133476641	28.793784490107292
O	-12.513173316660637	3.1825724330112126	29.663724145093727
O	-12.333741692887063	3.2041031784236544	31.136048374493967
O	-13.039124751511508	1.7628668146158017	31.426583599057828
O	-11.688740091107501	1.302516009938757	31.11890586694193
O	-11.43687303304487	1.1494320032889205	29.80533398896795
O	-10.01296193696296	1.2342377935881115	29.36988289465747
O	-9.995752587488758	0.7078008071489839	28.13764455547877
O	-10.488390922050957	1.627793457734991	27.117275041828428
O	-9.293629963714224	2.1682897540623687	26.512298662956756
O	-13.838326336508237	2.2756244108325685	32.55999400358099
O	-13.854932381412212	3.39869790438462	29.479661407783357
O	-14.635061233027953	4.133272541390592	30.408853905674057
O	-14.120325385526183	5.029646878034379	31.10643224917911
O	-16.074143850046116	3.791156277572325	30.635269083593567
O	-16.106420760094327	2.3555011401658743	30.319723643866226
O	-15.428266957545084	1.8291390338992604	29.14315756181532
O	-17.070164620647017	4.698170898933546	30.03738095639754
O	-12.573345759857975	5.732314327723582	24.99395951204626
O	-13.877800696115829	6.348788395516417	24.594265630220722
O	-14.872658916459098	5.62737402564548	24.797074159128513
O	-13.881586075246787	7.592451894850312	23.928926823401792
O	-14.920819115626106	7.759327552379043	22.911692928736088
O	-15.137285938351408	3.901203528972931	26.855741641667066
O	-14.186373917953798	2.8523913329270747	26.315456047415125
O	-13.015736138305876	2.9709055247787606	25.682504630457316
O	-12.58371935645209	2.53224024307899	24.470597215002975
O	-13.485994210992054	2.87032758741334	23.45946979360185
O	-14.785622123118994	2.5988960175204157	23.885487449507764
O	-15.08883176030145	2.4550587742335734	25.241617281623103
O	-13.204688324869878	3.909304547155545	22.562405461847014
O	-11.304938328766672	2.3007659479092935	24.076144457596524
O	-11.067616383797297	0.9219857017717743	23.94971747600657
