39

O	-11.381970627463367	3.0023155911558694	26.653367115183308
O	-12.648656263980481	3.6318072658415703	26.850885401162227
O	-10.489745051116671	3.8713877468784625	26.947491286735595
O	-13.233908285359073	4.551168309199141	25.832169231844553
O	-12.605845493606914	2.249214462425806	30.199489031202084
O	-14.271519235408478	5.993223774100615	27.471972621395068
O	-14.47812087323591	5.254162551300015	26.29207765979505
O	-8.489114643740347	1.059114313606946	29.74595162241386
O	-14.163532508190299	4.934304232781358	28.38794652897986
O	-13.751706735082829	3.6514981666556396	27.758200942711344
O	-10.780551504735886	1.7451172954856207	26.46920594474172
O	-9.828283191790902	0.9721228326891156	26.329935203337588
O	-8.98818147444346	-0.023969311600793297	26.942063560451643
O	-7.657852274945376	0.16975352663891802	27.323680287854398
O	-7.046525943388445	1.3293621089795775	26.742747814350462
O	-6.938616362633519	-0.6175653347610144	28.16168814232435
O	-5.677282378032047	-0.13970438004117114	28.732477312467918
O	-7.743587896406403	-1.0449671904498834	29.147652422192074
O	-8.73944314056572	-0.22962922305813305	31.558550457518756
O	-9.420899726196922	-0.26274178996313025	32.77446704015584
O	-10.761954202824834	0.22160640252662722	32.89384490881913
O	-10.68480673940741	1.552690926426671	32.717978536811344
O	-9.771849975843992	1.8937409014793554	31.714459024031854
O	-9.091668926422333	0.8997140949592501	30.987668573789847
O	-9.108271027057125	2.1455701851904294	29.18853456233858
O	-10.516404078243244	1.922901972855771	29.48789094524781
O	-11.486657571836107	2.8254893392098	29.81492311333938
O	-12.631507926812017	0.8840699069175127	30.23700609161929
O	-12.10762842545335	0.3241647524577389	29.128504111638176
O	-10.83503846245743	0.62280710608562	29.501533300840734
O	-8.901615649692742	-1.5824837584057463	28.67834297242096
O	-9.508378874818533	-1.1316997342979145	27.508952548591317
O	-6.451509142123717	0.53532526463821	25.845832319348624
O	-6.3996378005250305	1.8763237091210219	27.775365888919566
O	-8.08714779406754	2.1088787522254755	26.462191445850024
O	-5.158204675382274	-1.1887691944094507	29.504948016493607
O	-4.869742130852125	-0.04836066445782594	27.706756119687455
O	-5.721678742994996	0.6764512805835773	29.77003220138047
O	-7.383489103805392	-1.1103463638009603	30.857596176453825
