25

O	112.96018928820894	61.07324221089353	5.620112069020381
O	116.37119590212626	65.92259321171629	8.91275702726338
O	116.73513754629482	66.9664319541922	9.771920528348716
O	116.42022230240914	67.05965180815257	10.976511212309546
O	115.4973586483926	66.5183374234507	11.900622983759447
O	115.05754003603941	67.45696174087493	12.809267594449722
O	116.10043206864586	68.37509665696425	12.799007814170512
O	116.93514157336074	68.07098839926658	11.773793954204837
O	118.13321510125492	68.49771802524695	11.342686024178747
O	118.455624027491	68.37548721159297	10.016970971664733
O	117.37139910500422	67.93583031211831	9.278936956957095
O	115.56431090393787	64.93694261234313	9.278484159912036
O	114.40549316334139	65.03912930297108	8.572892932527715
O	113.14999313597427	65.2543292401764	9.142866685845004
O	113.25253071490394	66.04692625004625	10.213742824132186
O	112.21159257874801	64.32309905137606	8.756102661177042
O	114.84915124867692	65.31044836170804	7.38153518446115
O	114.90333331134397	64.44977288793291	6.317256010118755
O	113.77856161082819	63.74104144229462	5.950412823240017
O	113.84534503575796	62.52840591187888	5.269387914657814
O	114.91792271196337	62.41055026725004	4.391468693215225
O	116.06642001531024	63.080831896151786	4.714802598812867
O	116.03398964803102	64.17444776351505	5.532039859372841
O	117.28049438766196	65.01268965286569	5.8099962245188
O	115.99858113287316	65.94969286494192	7.638745435223321
