24

O	117.64223476063086	68.89419046073105	14.443544536492887
O	118.70310408083596	66.25558694784009	7.554485871952093
O	118.52449099427217	67.11004140472858	8.693027427088477
O	117.60161712593487	66.94147155607574	9.822600736703665
O	118.05387145481146	68.00540126196749	10.708377602067392
O	119.35761078340242	68.42901518078222	10.435948061061774
O	119.59485120367778	67.86606543980476	9.217502999192545
O	117.69573158005831	68.51860072054126	11.898135831716036
O	116.79920646891289	67.54048582337536	12.386142791763454
O	116.38050605368682	68.30497538280359	13.489315939352833
O	115.2915128772913	67.95524684759162	14.401180569081028
O	114.73442876741603	67.01879971658403	13.478103805419538
O	114.90486745197924	67.16191293153385	12.1159538476603
O	115.96650910216975	67.19406945148312	11.306212949154336
O	114.0249593238484	66.35024860765452	11.250407087963655
O	114.52198284299915	65.6724449991402	10.148868490952708
O	113.72713683212567	64.32432391869906	10.052810109918276
O	114.63688997437049	65.90523847682304	8.745872433437361
O	113.35173877689881	65.51479725957059	8.124860025974012
O	113.19829714140417	64.15328812276613	7.745638797437947
O	113.99183828407261	63.97433198272581	6.4546376799341525
O	114.99373207502877	65.12449337166915	6.481267252290929
O	115.5333546046075	65.32246170072249	7.841170159970375
O	113.17945122364247	64.12266312031218	5.359610865327166
