23

O	115.4449031477013	65.87433181478626	9.913094288619543
O	116.3414104243579	64.9363796004159	8.072406810720425
O	118.6518798014047	68.30297130296717	11.851980566947079
O	116.2995194420401	66.02268767511224	8.940089632785543
O	114.67917940238354	64.93239140406716	9.517719149764124
O	115.11666898157273	64.66061684220955	8.326199948277242
O	119.62719285442886	67.92992136322128	9.558195624949681
O	115.31237171858788	67.14291290457102	10.394423026120855
O	114.24958976674615	67.71283121706445	11.11069262667933
O	114.0625906807524	67.74523943775395	12.508692594595516
O	114.8305441849817	66.53341624083244	12.563378330158782
O	116.21845069870713	67.13432579543489	12.489160993517103
O	116.42221209247616	67.43159119908437	11.188953733961142
O	117.41639214090713	66.85063129228614	8.994960134312745
O	117.50885829490848	67.34718095076363	10.267359885264197
O	118.71630344614059	67.88485733690226	10.683774664546249
O	119.50875750900764	67.30748134335778	8.396821962535249
O	118.3291848735767	66.6108756386617	7.89802385224203
O	114.04111045772773	64.22768825572489	7.458200854779671
O	113.38242028307522	65.61850982848	7.232755930048537
O	112.83473471667666	64.03162250159995	8.24702480670643
O	114.7294531807678	64.19470485142874	6.227806090812568
O	113.8962930769201	65.54540127479449	12.227573545755092
