90

O	-0.840644470481481	-3.967214708461111	0.7066950607185187
O	0.36471414651851897	-4.37584557846111	0.0369617317185188
O	0.315599278518519	-3.504583018461111	-1.0723923422814812
O	-0.12777602548148104	-2.1676626884611108	-1.029524452281481
O	-1.160992997481481	-1.774337698461111	-0.2414802022814812
O	-1.413707500481481	-2.723612588461111	0.6855605967185188
O	-1.348684270481481	-0.37727226046111084	0.2689691387185188
O	-0.45085113948148103	0.19436531953888914	1.1717119307185189
O	0.47322490551851903	-0.48578368046111087	1.8196855677185189
O	1.399004589518519	0.24588227053888911	2.5080771077185187
O	1.292058159518519	1.6131794415388891	2.8049498777185184
O	0.36468206751851895	2.287404571538889	2.138097867718519
O	-0.496886612481481	1.573672251538889	1.4017959677185188
O	-0.752577706481481	2.097946101538889	0.1788730267185188
O	-1.907477080481481	1.580998901538889	-0.5544278052814813
O	-2.334949290481481	0.3073538875388891	-0.34852654928148125
O	2.521885319518519	-0.591556744461111	2.9792470677185188
O	3.204052719518519	-0.12963871396111087	4.104235907718519
O	3.8814305495185186	-1.183003845461111	4.514613297718519
O	3.580950589518519	-2.218625138461111	3.7902150877185186
O	2.522580089518519	-2.0002684984611108	2.9348337277185186
O	4.993384809518519	-0.9065973964611109	5.429251037718519
O	4.975065049518519	-1.8254833384611109	6.581845587718519
O	5.998976639518519	-2.957560788461111	6.508719817718519
O	5.804412229518519	-3.813738208461111	5.377328007718519
O	5.715176889518519	-2.863811768461111	4.266838787718519
O	6.130709319518519	-1.4422539384611108	4.649672357718519
O	1.476206939518519	-5.082362178461111	0.5896419857185188
O	2.551405709518519	-5.440103848461111	1.346016934718519
O	3.0655914895185186	-6.762777158461111	1.8116080477185188
O	4.325400949518519	-7.31450825846111	1.523069957718519
O	5.2879591095185186	-6.73229187846111	2.3864434477185186
O	4.866931689518519	-5.430473038461111	2.3930888377185187
O	3.5379566195185186	-5.0408903884611105	2.3985094777185187
O	-1.709745270481481	-4.95626705846111	0.2682850877185188
O	-0.20238204978148103	-4.358335108461111	-2.0227246322814816
O	-6.578416720481481	-0.6309660894611109	13.700884257718519
O	-2.7694815304814813	-0.16630646056111087	13.89327905771852
O	-1.376591820481481	-3.028652298461111	11.88116295771852
O	-1.810827630481481	-5.452015798461111	9.01106487771852
O	-0.008980500481481024	-4.147891998461111	5.878983647718519
O	-0.582370224481481	-7.232008228461111	3.691851607718519
O	-2.696634290481481	-9.59874734846111	1.4647145477185188
O	-2.9280907904814812	-9.942505948461111	-2.4494883822814812
O	-5.505434140481481	-10.87845751846111	-5.1238525222814815
O	-7.743022890481481	-8.13155821846111	-0.9338032722814811
O	-6.246530970481481	-7.252176678461111	2.4588687177185187
O	-4.780366520481481	-3.864086198461111	3.5074435677185187
O	-4.4944046404814815	-2.379782278461111	7.154469627718519
O	-2.814364480481481	0.7405313415388892	8.55797102771852
O	-5.534481790481482	2.509634911538889	10.60015995771852
O	-4.880192910481481	5.961913841538889	6.424435947718519
O	-4.752388920481481	2.686966131538889	4.504716257718519
O	-7.763704420481481	0.4558267185388892	4.497524047718518
O	-8.29828977048148	-2.238255368461111	1.8703486777185188
O	-10.91752521048148	-4.96191636846111	2.3596079577185187
O	1.415759199518519	8.88792961153889	-9.60158997228148
O	-1.716389050481481	7.01448699153889	-8.54778225228148
O	-2.5855734204814813	6.403093591538889	-4.9143229622814815
O	-5.2997759304814815	8.76122629153889	-3.5805336922814814
O	-13.81731011048148	-1.002998233461111	2.7698189677185185
O	-11.63011731048148	1.1294493715388891	0.4466862949185188
O	-9.99576935048148	4.081870581538889	2.319146557718519
O	-6.788659420481482	5.40539055153889	0.8140234407185187
O	-3.9614606404814814	7.79195999153889	1.7681694077185188
O	-1.1067117284814811	5.950499081538889	3.6810177677185187
O	2.2071675595185187	6.049245841538889	1.883978147718519
O	4.905654269518519	5.9818015015388895	4.5736049277185185
O	7.7795497795185184	4.348072691538889	2.6403232477185186
O	5.820400649518519	1.270891571538889	1.6381022077185188
O	6.2670465195185185	-0.7622592894611109	-1.650773672281481
O	8.94159375951852	0.15301043653888913	-4.1412337222814815
O	9.93592658951852	-3.486770718461111	-4.3196943422814815
O	10.893038189518519	-3.4516373784611107	-0.5538968102814812
O	12.200524889518519	0.13352212553888915	-0.4662407112814812
O	14.553519889518519	-0.4651944084611109	-3.4093413222814815
O	16.39049958951852	-1.9256893784611109	1.495957767718519
O	4.799577379518519	-5.23459755846111	-10.80605704228148
O	7.136847379518519	-3.298162068461111	-8.39457410228148
O	5.183053969518519	-4.92790948846111	-5.607574282281481
O	2.153120809518519	-2.874866298461111	-6.551821552281481
O	4.098262629518519	0.42993973153888915	-6.672570682281481
O	4.345061219518519	2.564174071538889	-3.4930353822814815
O	6.738389289518519	5.150980511538889	-2.2629712422814814
O	5.348258979518519	8.432891871538889	-1.0124547622814812
O	2.5905601995185186	5.861191251538889	-7.187388262281481
O	0.656344771518519	2.845513991538889	-8.60580165228148
O	-0.817003674481481	1.504576461538889	-5.324094962281482
O	-3.080518000481481	-1.389775368461111	-5.930727672281481
O	8.921231299518519	-3.7814040784611107	-13.94669024228148
