25

O	109.70365460902332	62.86297734116964	8.084878736974018
O	118.72357434775097	66.07537449051945	6.728350480512279
O	117.17314714838386	66.17616545034753	8.356891454108329
O	115.73552637840389	68.1868511025673	9.894500497247991
O	117.64502862651554	65.59096504322223	7.321763261596941
O	119.23537623531618	67.29332808055605	8.702517176713519
O	118.0417972555075	66.87689859934198	9.054697460814225
O	119.66181360623823	68.16397578051965	9.583148839060103
O	119.54673144666397	66.86788372237291	7.462524812910332
O	113.37847686119127	65.43162675499731	11.888857151238438
O	117.75696976755823	67.33943763047215	10.274823199079178
O	113.46410731784768	65.11985681908172	10.512136062752646
O	118.67734903422478	68.2699970334262	10.526470912104239
O	115.33362987297905	66.25304334677595	9.599033532044595
O	116.3443137879972	67.25316799351008	10.420303172709746
O	114.41997921873713	66.20036427520816	12.463013547643575
O	113.9188616079275	67.10443843420965	11.572813159465177
O	114.03786949476718	66.31748961678353	10.339860669182704
O	113.0800267310278	64.38371074895116	9.310601655532512
O	116.06341613877375	66.47130777270806	12.296092015546712
O	113.76879482557244	64.66639115805103	8.217913155079225
O	113.33588129936882	63.821941550058774	7.145099969222583
O	112.04768364031821	63.388764544284015	7.056704854230492
O	111.21246184581327	63.77022541664931	8.111273591982384
O	111.69903989578799	64.59334404523601	9.157844361829463
