84

O	3.414703072912	-1.9913590796363638	-2.39662144702909
O	3.465183562912	-2.693344659636364	-3.6871038610290903
O	2.294209812912	-2.278037439636364	-4.47773316102909
O	2.137107012912	-0.924106859636364	-5.00468698102909
O	2.8844606029119997	-0.09938996563636404	-4.00022582102909
O	2.820771692912	-0.6969832496363639	-2.6876450630290902
O	3.126475092912	-2.734199069636364	-1.2544725910290901
O	2.766217472912	-0.7592072596363639	-6.245604891029091
O	1.964240952912	-0.330643644636364	-7.3952301210290905
O	0.6958749399119999	-2.172076829636364	1.5509108689709101
O	-0.02052094928800013	-1.070114589636364	0.8583094989709099
O	0.29368989491199987	-0.7185526896363641	-0.49728112102909017
O	0.28923924191199984	1.424749728363636	-1.96417051770909
O	1.339621322912	-1.270170509636364	-1.3005263650290901
O	2.012606362912	-2.250827789636364	-0.51006739102909
O	1.8117230629119998	-2.647766939636364	0.8225530789709101
O	-0.3607225720880001	0.178632702363636	-1.43378067002909
O	-0.40340478708800015	-0.11173166063636397	-2.97763068102909
O	-0.8614097140880002	2.718199410363636	-5.92764798102909
O	0.26133251991199985	1.867189110363636	-5.46362076102909
O	1.5067536929119998	2.057380830363636	-5.88665800102909
O	0.18110599591199986	1.629202220363636	-4.15371508102909
O	-1.1642629870880001	2.094877590363636	-3.37889034102909
O	-0.8071683910880001	2.449849380363636	-1.99136999292909
O	3.324640022912	-1.9816223396363641	-6.83101538102909
O	3.7983333229119998	-1.5969114196363638	-8.17070658102909
O	4.133106902911999	-0.25883128063636396	-8.16900334102909
O	2.907242822912	0.431028558463636	-8.241918701029089
O	-1.698915097088	0.694734383363636	-3.25708835102909
O	-5.812777837087999	-12.541665229636363	-4.90898326102909
O	-2.117948607088	-12.158778029636364	-5.84475494102909
O	-1.9029331870880002	-8.878077079636364	-7.681588361029091
O	-3.296048627088	-5.372795169636364	-8.17560245102909
O	-1.245804047088	-2.804443139636364	-6.2707645710290905
O	-2.895944947088	0.354321722363636	-7.613443881029091
O	-5.825533627087999	2.762892730363636	-7.95724657102909
O	-6.348327967088	6.350577940363635	-6.4885544010290905
O	-9.218519887088	8.612483990363636	-5.1544146110290905
O	-10.125001237088	3.260228720363636	-4.09718976102909
O	-8.292362287088	0.203947687363636	-5.37451242102909
O	-5.782644647088	-1.982418979636364	-3.53761975102909
O	-4.6612510070879996	-5.585297389636365	-3.9848057410290902
O	-1.9464151170880002	-7.812076899636363	-2.5872461050290902
O	-3.7539007870880003	-10.927120029636363	-1.2011650540290901
O	0.14589586491199988	-11.720912229636363	2.78472267897091
O	-1.947437477088	-8.547911839636363	3.3809060589709095
O	-3.0498073770880003	-5.461480309636364	1.5513539689709097
O	-6.645496847087999	-5.087993849636364	0.62794551897091
O	-8.384077347088	-1.8280354896363642	-0.22671138102909016
O	-11.821485937088	-1.6887297796363638	-1.90719875942909
O	4.672880962912	5.712209070363636	10.93024160897091
O	1.0917046229119998	4.946862850363637	9.952082408970911
O	0.17844727691199988	1.747686540363636	8.11035630897091
O	-1.4617677770880002	-0.8566031996363639	10.37144340897091
O	-5.161423287088001	-1.466593469636364	10.20874570897091
O	-12.924636237088	-4.254737309636363	2.1696851389709098
O	-10.194066537088	-2.637960469636364	4.32341484897091
O	-7.471653397088	-5.131506929636364	5.383281468970909
O	-4.042497177088	-3.734147609636364	6.170653468970909
O	-0.5276954220880001	-4.999098729636364	6.819485508970909
O	1.498267712912	-5.4597350796363635	3.59139904897091
O	4.632004292912001	-3.267215169636364	3.43828060897091
O	7.120011072912	-5.110592319636364	1.2158306389709097
O	9.058200302912	-2.157589389636364	-0.28770781102909004
O	6.049725102911999	-0.35940295863636396	-1.7990850520290902
O	5.777554572911999	3.522359070363636	-2.17841825302909
O	8.483043852912001	5.840779750363636	-1.1970777300290902
O	8.063801582912001	7.609470310363635	-4.5245802110290905
O	9.094122752912	4.346977050363636	-6.40553979102909
O	11.620404562912	3.1154431403636362	-3.8300440510290903
O	13.488959662912	6.434844250363636	-3.81337371102909
O	14.826505262912	2.946751800363636	-7.759497531029091
O	2.485357222912	13.165529470363637	-1.4947494480290902
O	5.445501492911999	10.697817870363636	-1.6572004200290902
O	3.103199152912	8.470726140363636	-3.6681472410290903
O	1.024976682912	7.965746240363636	-0.46619937102909015
O	4.068886252912	7.132444570363637	1.7550638089709099
O	5.094970052912	3.424102740363636	2.0400000189709093
O	8.373334462912	1.737018690363636	2.9227496189709097
O	8.360859002912001	-0.9816194896363639	5.57227046897091
O	4.632430492912	5.000109050363635	6.9524964289709095
O	1.7400652729119999	7.162849700363637	5.74097895897091
O	-0.00108867824800013	4.457547150363636	3.67848829897091
O	-3.272562237088	5.832809320363635	2.4015466389709097
