82

O	-3.8913172766982456	-0.6363356685964908	-0.3338479357824564
O	-4.666458846698246	-0.7143012385964908	0.9919581142175435
O	-4.134949486698245	-1.4560832185964907	2.0206702742175437
O	-2.788456836698246	-0.9816021285964908	1.9173113942175437
O	-2.4573294826982455	0.26000198040350925	1.0791352342175435
O	-2.4713823606982457	-0.05700055759649081	-0.36377937078245637
O	-2.1682197606982454	0.8800179624035093	-1.3994139037824564
O	-3.0124674266982456	1.791103641403509	-1.1515106527824563
O	-2.9553892566982456	2.6730703614035094	-2.3438484957824564
O	-1.7402918458982455	2.3971659114035093	-3.1230604657824563
O	-0.9316413666982456	2.8976998914035095	-4.196507255782457
O	0.4449740733017542	2.5423588714035095	-4.197000375782457
O	0.9043549533017545	1.6996361614035091	-3.3503754957824565
O	2.2164557833017544	1.2379925044035094	-3.1436026657824563
O	2.1697259033017544	0.6210488174035093	-1.8751882257824564
O	0.9315229633017545	0.5887228239035093	-1.3639800247824563
O	0.038128123301754524	0.9324789064035093	-2.4421473857824565
O	-1.3186751676982456	1.4916859554035091	-2.250480845782456
O	-4.344307036698245	-2.3541005785964906	2.9483711142175437
O	-3.0617583166982456	-3.1561277885964905	2.7915864042175436
O	-2.769920386698246	-3.65807437859649	1.5178448242175437
O	-1.8509046016982456	-4.7018689285964905	1.6167729542175437
O	-0.8948234926982456	-4.731835118596491	2.6079908942175436
O	-1.0570239336982454	-3.8305448785964904	3.6240988442175435
O	-1.8910261356982456	-2.7277246985964907	3.422517474217544
O	-2.5441852086982455	-7.229042248596491	-13.649617525782457
O	-6.456787016698246	-3.6801218585964905	-10.592884625782457
O	-6.798147226698245	-4.805640188596491	-7.001028475782457
O	-5.6294756366982455	-2.0194469185964907	-4.641762755782457
O	-6.682381236698245	-3.5773480985964907	-1.3475574187824564
O	-6.508612276698246	-6.2376779985964905	1.3229016742175437
O	-5.327507106698246	-6.123701458596491	5.020455944217543
O	-3.436127816698246	-8.15932102859649	7.645076474217545
O	-3.3883476866982454	-11.419657628596491	5.449989454217544
O	-1.7418143588982455	-9.425911308596492	2.5450475742175436
O	-3.2141308366982457	-8.258418128596492	-0.7583905607824564
O	-1.8958953516982455	-5.584318918596491	-3.1197596757824564
O	-2.350087447698246	-5.14764091859649	-6.872301975782456
O	-1.5242202766982456	-2.4673237285964906	-9.421665395782457
O	0.4648516133017546	-4.144834628596491	-12.191276225782456
O	4.238725153301754	-0.9465278385964907	-9.836597465782456
O	2.4822596933017547	-2.1141923385964905	-6.663681435782456
O	2.6365037733017544	-5.855742868596491	-5.997696195782456
O	1.9564735133017543	-7.37976767859649	-2.5850733057824566
O	1.1645746233017542	-11.082318028596491	-2.069946725782456
O	6.199864293301754	-12.16453132859649	4.783571474217544
O	10.324193473301754	-7.950057358596491	2.7899308542175434
O	11.207233473301756	-2.9008205985964906	3.7370159142175434
O	8.926997773301753	5.30450154140351	3.3232318342175438
O	7.6090960133017544	3.5123748214035095	0.21152951321754365
O	10.383409773301754	2.2128473514035094	-2.0883802157824567
O	5.602690803301755	-11.370961128596491	-4.307135815782456
O	6.906396483301754	-8.015139288596492	-2.9769095157824563
O	7.118176893301755	-1.6872932785964907	-4.722813975782456
O	6.860288103301754	1.7041722114035092	-6.393749105782456
O	3.2267790733017545	2.678651151403509	-7.193359625782456
O	2.1480750133017543	5.8320937614035095	-5.518921855782457
O	-0.4125232466982456	7.436955921403509	-7.800867755782457
O	-2.5343780426982456	9.322355621403508	-5.2455087157824565
O	-3.3565306066982457	6.249867031403509	-3.1775980857824564
O	-3.9166406966982454	6.289735621403509	0.6545333042175436
O	-3.8798218266982456	9.403898251403508	2.6969477042175436
O	-7.1421313066982455	8.219215091403509	4.255981454217544
O	-8.932142756698244	8.39748253140351	0.8334638342175436
O	-7.033422096698246	11.390736271403508	-0.5308037611824564
O	-11.661822036698247	13.344444071403508	-1.2746567597824563
O	-0.2004319466982456	-0.5146645185964908	12.671157274217544
O	0.08893262330175444	3.2708207914035095	12.263312474217544
O	-3.2027180266982453	4.484427351403509	10.736421674217544
O	-3.9931398766982458	6.877804071403509	7.826524534217544
O	-5.076862736698246	3.8434659014035093	5.798937884217544
O	-1.3841901386982456	2.7227262114035096	5.869936174217544
O	-0.006004586698245662	6.104840371403509	4.680904624217543
O	0.29220533330175424	6.656354391403509	0.8875315642175436
O	0.4158115033017542	9.860939841403509	-1.1510143877824563
O	5.0560360933017545	7.85592756140351	2.7727279342175435
O	4.498216893301755	5.084538811403509	5.296980914217544
O	3.2955337933017548	2.521698051403509	2.8146790942175435
O	2.8220152133017544	-0.8178061285964907	4.566173934217543
O	4.889383103301754	-2.8447844385964904	7.054984174217543
O	2.7298567133017544	-5.930286338596491	7.420677204217544
O	-3.3141013966982458	9.272423611403509	13.200332874217544
