86

O	-3.8331403911698105	4.460643239733962	3.9681681262452826
O	0.37205401883018907	-1.4492678102660383	-3.048639573754717
O	-4.229073631169811	1.2021300007339617	4.641450756245282
O	-3.000919781169811	2.0855361117339615	4.434102286245283
O	-3.112493351169811	4.051113179733962	-5.597873253754717
O	-1.322379791169811	0.016448019733961594	-1.6191606427547174
O	-1.9834693611698109	1.3454177067339617	5.267267146245283
O	-3.1571475111698106	5.537979409733961	-0.6231244857547173
O	-3.405763901169811	3.6130460697339615	5.0791032662452835
O	-1.916312181169811	4.615263749733962	-5.0470933337547175
O	-2.836038991169811	6.3933939197339615	-3.7795899237547173
O	-2.643253051169811	4.194662189733962	-0.5519967887547174
O	0.4474664988301891	-3.0139319502660378	0.28520442624528264
O	-3.2839991311698107	5.370198459733961	-2.9144354037547173
O	-0.5600625921698109	-2.361742210266038	0.9388043162452826
O	0.7304799488301892	-2.553549320266038	-1.0473556417547174
O	-2.666858621169811	0.43690454973396164	0.9123452862452828
O	-0.7763716491698109	1.3475664957339617	1.1613196462452828
O	-3.125158181169811	1.2519522747339615	1.9474948962452827
O	-1.260535698169811	2.2125758777339617	2.1794079762452827
O	-1.411035969669811	2.528987909733962	-4.123885423754717
O	-1.246538270169811	2.6305141647339614	-1.8466574737547172
O	-0.04272635116981105	-0.26670844026603846	-3.602439483754717
O	-1.333411451169811	0.049571089733961626	1.1442406462452825
O	-2.455931597169811	2.060835913733962	2.7943320562452825
O	-0.8105232991698109	-1.1332010802660382	0.44480551624528264
O	-0.06270611116981084	-1.8169831502660385	-1.8142052687547174
O	-0.903601587169811	1.8958010397339615	-3.0382292237547173
O	-1.612798325169811	3.901163819733962	-3.9373668837547173
O	-2.079737543169811	3.704946869733962	-1.7169031947547173
O	-0.857725677169811	0.4792608097339617	-2.8154510237547172
O	-0.7028745591698109	-0.9437577802660384	-0.9361897367547174
O	-2.541326251169811	4.190525499733962	-2.9128257937547173
O	-11.978475141169811	-5.7492061902660385	-7.3156141537547175
O	-10.47755600116981	-2.595840530266038	-8.907182303754718
O	-10.316852831169811	0.011577009733961585	-6.207476303754717
O	-10.05429236116981	0.7067766397339617	-2.5422677137547174
O	-6.444120651169811	1.6802884288339617	-1.7208433237547174
O	-7.068969841169811	2.743264459733962	1.8445447462452829
O	-8.04546484116981	2.0382620517339616	5.442832566245283
O	-5.791441151169811	2.0974364307339615	8.608427756245282
O	-5.503344251169811	0.3251624797339616	12.030628926245283
O	-7.337666361169811	-3.137931000266038	8.144280646245283
O	-8.427526561169811	-2.2460947902660386	4.615118826245283
O	-6.5837774111698115	-2.760339120266038	1.3394159362452829
O	-7.885651211169812	-3.211915910266038	-2.2051837787547175
O	-6.243441101169811	-3.202035940266038	-5.611242823754717
O	-7.491023261169811	-6.440241590266037	-7.298717803754718
O	-2.1566841991698107	-7.5707734702660385	-6.549128023754717
O	-2.9097593511698108	-5.906277120266038	-3.2575293537547174
O	-5.404025711169811	-7.503429790266038	-0.9262301577547174
O	-5.607595521169811	-6.644196800266037	2.7760909562452825
O	-8.62542192116981	-7.589279620266039	4.887890806245283
O	12.864249458830189	-2.8511065502660378	1.1449528062452825
O	9.932796958830188	-4.796940630266038	2.573562006245283
O	6.752112148830189	-5.417694720266038	0.5996409862452827
O	6.448000628830189	-8.982652370266038	-0.7858444787547174
O	-7.256162001169812	-12.077611370266037	3.2159375262452827
O	-3.5220345711698107	-11.164481670266039	2.930460776245283
O	0.7348858488301893	-8.906166270266038	-1.4965964427547174
O	2.5885263588301886	-7.5722490902660375	-4.5945534837547175
O	1.028304698830189	-4.236168260266038	-5.856808763754717
O	3.2950539988301886	-1.1993148102660383	-5.661314183754717
O	2.205368038830189	1.1414000917339617	-8.432485023754717
O	3.449415328830189	4.458628139733961	-7.103186043754718
O	1.444487708830189	4.203574569733962	-3.859693353754717
O	2.522912448830189	5.646960949733962	-0.47932970875471737
O	5.686227608830189	7.679774219733962	-0.15431241375471738
O	3.632551658830189	10.263726079733962	1.7154614462452829
O	1.483971038830189	10.933732229733963	-1.4227445657547173
O	4.2346076088301885	10.401187119733962	-3.976651103754717
O	6.590095528830188	12.884355929733962	-2.2602960137547177
O	2.924636998830189	14.990129729733962	-5.661694463754717
O	5.361196508830189	6.885765589733962	9.242144126245282
O	5.694819588830189	7.931620139733962	5.541366246245282
O	2.093401628830189	6.843804049733962	5.097342026245283
O	3.2674356188301887	3.2207303497339614	5.7397204562452835
O	6.165478698830189	3.391594129733962	3.1966785462452827
O	5.411969908830189	2.4213990197339617	-0.4316680347547174
O	7.04090583883019	3.3232488997339615	-3.6937540437547174
O	7.85996299883019	0.5273174097339617	-6.102664263754717
O	9.616230358830189	-0.47991601026603825	0.8166570662452828
O	8.11862246883019	-0.6865914702660383	4.321333976245283
O	4.621470078830189	-1.5809421302660385	3.265724246245283
O	2.263980028830189	-2.178954390266038	6.157247496245283
O	9.797608458830188	9.936635469733963	9.267551226245283
