32

O	114.98186051513684	62.225824005158834	3.6055465812178316
O	112.52923371373883	62.06993680635364	5.1788093540038425
O	115.17494312715307	64.8166726264842	6.326904223679668
O	115.54815296894564	67.69432355282648	14.437539910209214
O	116.38660303842214	67.5169176733313	13.140196452561526
O	115.69496002101961	63.86705758861587	5.448715448960695
O	115.71847278371105	65.5225151447426	9.67693941307677
O	114.85099086032834	65.91267523562978	13.248233944327074
O	113.61957030063822	65.40528500670248	8.865649779101508
O	113.76032718683909	63.31765521801252	7.327887881842365
O	115.44543653163812	66.39523814062476	10.578655271661255
O	115.61942891347583	66.35786324750492	11.991948150857525
O	114.80716801207026	64.15731610499876	7.551035028114813
O	114.9959024173233	65.27173139312268	8.465258997853354
O	114.44405239212055	66.81181212366893	14.378529894286974
O	113.11564053454829	65.7375690415503	10.024946114725642
O	115.40804843496947	67.75385276036623	12.23027466378933
O	114.14895235952801	66.75495188254673	10.581235886854296
O	114.79554360786085	62.90903214844038	5.201239744648164
O	113.74618441601973	62.80060688213979	6.066817012463855
O	113.09523190831463	66.83863252545453	14.888441268096312
O	112.05250877768637	65.03684878439483	10.537833016502962
O	112.40781689600668	66.68820279719931	17.328040630273037
O	111.13855470522255	65.46606666378213	15.672914360991307
O	111.06952656915618	67.13953171831947	17.82781971644542
O	109.92242338222148	66.20002595205142	16.160957346120895
O	114.17672036436917	67.6434342785003	11.57626249545066
O	112.38079659524777	66.21592815360387	15.938144358836142
O	111.05370624932839	64.611007491414	9.576075392831354
O	112.27224626958062	67.35612151517375	14.042944216843505
O	111.71573503228468	64.79597778286318	11.690800198597621
O	110.03262931853901	66.26589468910686	17.560224774669855
