28

O	116.50409322553521	64.59045814076454	7.096003779737258
O	115.42672838090397	65.08156286843355	7.7957148485460035
O	114.2210679006769	64.48091428954663	7.722395681053339
O	113.81582188979678	64.40999182273107	9.005334352634746
O	112.302079761908	64.70643397789316	9.453105937179506
O	113.20321999882182	63.922878329529986	10.16413599787459
O	115.87412389492418	66.14514086112702	8.528947242551833
O	117.21599823601707	66.08317446613611	9.123667191062305
O	118.22674206388898	66.69998706642183	8.202409873945475
O	117.51217776740091	67.79099203816827	8.581780106079552
O	117.98951087164198	67.79754374163511	9.980362879008224
O	116.91363538178786	67.08883598627608	10.357077223241905
O	115.5930409966151	66.39663229072903	10.770169966352997
O	114.32337088924827	66.89762333822642	10.710268754439342
O	113.76646484549842	66.53812175522324	11.94212563737956
O	112.51233147565159	66.11876632222562	12.40291770322427
O	111.86870588897555	66.47716652391803	13.64930304058301
O	112.94335252996049	66.5019616512501	14.692754547816147
O	112.3251081256702	67.42352708201773	15.766526862642989
O	111.51685139366163	67.05976035241933	16.832799955257318
O	112.01866399125093	67.44664873439942	18.112821796159576
O	110.94167813084556	67.41564740578978	19.122099475671497
O	110.13012757943082	66.32202365455048	19.183100646820975
O	109.8232672228224	65.68225649114223	18.01903621576052
O	110.58614021165734	66.00937205735158	16.80556135807683
O	114.24641506302932	67.098320403584	14.246523022452013
O	114.65506415069021	67.32175359678837	12.857602508282763
O	115.71310340769158	66.64712303263549	12.259692598575462
