29

O	115.1221284293756	68.06936137951918	13.32128720839126
O	114.68202835057137	67.33539018549034	14.516391849087722
O	114.21114751698626	66.00748978125951	14.087782403091186
O	112.99994031286698	65.81796824881273	13.292453332160072
O	112.92454086910975	67.09577785817737	12.511969449059382
O	114.24276772086088	67.62418608084609	12.252923171052679
O	116.48573191721343	68.29781587861736	13.154599781575325
O	111.84888765403402	65.7341144729568	14.086742592561224
O	111.01215370749492	64.53396867137731	13.997313079278749
O	118.76995593540562	67.7863321819086	10.219522280584433
O	117.77753743764985	67.00052429309406	9.441799969368294
O	116.51777580008361	66.62193956764499	10.015929201640562
O	114.09185172612884	66.20141447915044	9.189139867673136
O	116.0178577402757	67.00124386393212	11.30032317458045
O	117.01042971848265	67.82015796009557	11.919680523484185
O	118.25064814041755	68.27514662922599	11.441521885644335
O	115.4742371778909	65.73015480442673	9.540560092479774
O	114.61522712097195	64.85230413089315	10.520910034251147
O	110.84859031553887	63.39397832259104	9.742056092318707
O	111.39679114651777	64.44387755348657	10.634959989439409
O	110.60916589960516	65.30467599531488	11.271261653677277
O	112.48040791030732	65.01393632639545	10.10606051872202
O	113.10662214468407	64.35421197981081	8.764477816259527
O	113.72170067780583	65.42646747087393	7.957829938584567
O	112.08743337883818	65.70894703190339	15.532876179423248
O	110.76927517633854	65.47810947282993	16.14633630061572
O	109.78644475979438	65.97283095749218	15.314573272940178
O	109.64488753827976	65.01220362340729	14.29421908541152
O	114.27501858820519	63.74501518555281	9.488921478828704
