23

O	117.18441110016133	65.96837623435145	5.800683135026851
O	113.88153089997286	65.31654459539196	9.762282783838845
O	113.84550082715197	64.25800958515251	6.159364338893613
O	115.16619561456442	64.32464999361162	5.865189913893713
O	116.16708267403449	65.00550170446643	6.707389788239247
O	115.87272749753338	65.67613005498364	7.8919388560239705
O	114.83903472405808	64.93292267810052	8.158642443372415
O	113.61361338950523	64.52834368766301	7.457655367075521
O	116.61081563859987	66.37971781171807	8.947448592777071
O	117.41261010488361	67.3529342570358	9.445430498351914
O	117.62607372771126	67.5454431922853	10.707339524663285
O	117.48971782628675	68.81288460515849	11.411125831112717
O	117.24032925347477	68.8776983441174	12.765390051127369
O	115.9406882812323	68.45079312106432	12.743724050610515
O	115.96315819631258	67.13647578835715	12.268307668639384
O	116.17715641488427	67.27734189754085	11.010736523558291
O	116.06764237734352	66.19040888075757	10.278515871869018
O	114.86398244495322	66.88657818439796	13.252004084203143
O	114.8720142498196	67.26285317461583	14.680087951186845
O	116.03237459464134	67.76350447774588	14.993346844206268
O	114.21967971697123	66.98592856966383	15.928274947354883
O	114.2638224505007	67.92913610093919	17.102822078604518
O	113.00181366578242	67.39093930267858	16.616193707767508
