14

O	113.88795184365507	65.14355312136716	8.740992872511084
O	115.22950189347138	65.16751863836113	8.63954535381784
O	111.38983098587218	64.7449907142532	8.235146909964895
O	116.25632630957928	66.03425014604952	9.276897049889921
O	118.20066982978713	67.21301394416338	9.469343632801657
O	113.08992140816257	64.97601538998954	6.38409703968515
O	117.54218162401067	66.36579225645605	8.716124962873115
O	117.34050958257	67.66144089331573	10.529889217549714
O	116.22984327559762	66.89097284741199	10.440209712448219
O	117.38868004548807	65.88178091014447	7.296537948143582
O	115.94753584042161	66.24104911002321	7.299344714092353
O	115.37934723860214	64.81269561943988	7.175014377271459
O	112.88884125065867	62.80014153151941	7.275237435169479
O	112.73425803690564	64.49169609091688	7.750908130406788
