32

O	115.76271488528882	66.43187793658022	8.946677923716557
O	114.92238410497008	66.8596215644242	9.809615024191709
O	115.37564935147	67.46551062986758	10.875571979917664
O	116.54130576485699	68.16326692082086	11.074179264638415
O	117.36922597722698	67.44571937775711	10.093408420703652
O	116.94377783435718	66.97728590044761	8.860263663774958
O	118.4879030486345	66.92295564751974	9.903133630500093
O	118.83566649824832	67.35102429687606	8.796291430108266
O	117.86073353267642	66.42624012040164	8.120501321782568
O	115.07962920100873	65.45885166003526	8.154804933836077
O	114.0779994798556	65.14838967090365	8.944313971740963
O	113.87295410655145	66.14446114496948	9.900243703011023
O	113.46343367728684	63.87441809647032	9.396242488211586
O	118.28816007155143	65.99417155361103	6.950314387859631
O	116.62425077545201	68.5183101498341	12.439190211872262
O	112.91742432601514	66.24066506705928	10.886135354795497
O	112.19488693113291	65.60399400736885	11.985457939585517
O	112.28535353471355	64.3803379533938	9.116000151279295
O	113.61619210566559	63.77179659432816	10.670798581108043
O	111.20359145596699	64.29985796563653	10.181328254744857
O	111.60862379283641	65.00142278557225	8.18495962191601
O	110.5683480755369	63.954982288884494	7.603298992017459
O	111.72748426760865	64.2350955067505	6.818329919388542
O	110.49709453526414	63.083418292000644	9.795351482270181
O	109.82940421534398	64.39322683240196	9.883060677192828
O	115.57295768446639	67.62336360454135	13.083781652289833
O	115.54001906332552	66.4285070320408	12.84125361721196
O	114.87612130364381	66.04869532767128	12.24381472796279
O	116.73982351796975	65.90982347048981	12.4378261635035
O	116.42884420932285	65.47394993980589	11.15351515304304
O	118.09297225491203	66.119073109252	12.864882091618426
O	116.62651249020331	64.2684643244681	10.379035574871036
