81

O	3.7816901781155168	2.029753627224138	0.6199626400172417
O	2.6161795381155173	1.2106719032241378	0.0007536420172416514
O	2.955280858115517	1.418129117224138	-1.4177746039827581
O	2.948634668115517	2.9305101572241377	-1.7335423939827583
O	1.479537848115517	3.151437587224138	-1.7611006939827583
O	1.489434648115517	3.430511887224138	-0.3649772604927583
O	1.3986872981155174	1.9752019972241377	0.15783240001724164
O	1.3472556581155173	4.679607157224138	-2.512467283982758
O	2.3775992881155172	5.527051427224138	-1.8965783339827582
O	1.440205428115517	4.389003547224138	-3.9371537439827584
O	-0.23301572988448277	5.221861657224138	-2.0849412939827583
O	2.5951205081155173	-0.14899446177586217	0.5041677220172417
O	3.7761563781155174	-0.5626592727758623	0.9724465460172417
O	3.504458318115517	-1.7836758527758625	1.6074551260172418
O	2.228708538115517	-2.2260793127758625	1.3316995960172417
O	1.7334855781155172	-1.1412327427758622	0.6089927740172417
O	0.4495758681155172	-1.3510627527758623	-0.00046714398275832236
O	-0.46077350488448277	-0.4492934727758623	-0.5928684789827583
O	-1.6026390918844826	-1.1316688027758621	-0.7912259329827583
O	-1.5205304728844826	-2.3324335327758625	0.010124671017241682
O	-0.34167475388448276	-2.4924442427758624	0.4722485550172417
O	0.27054250111551725	-3.433587702775862	1.3200703060172416
O	1.4727329781155172	-3.3737880727758625	1.7532942960172417
O	6.100657548115517	-9.727804232775863	-9.591491173982758
O	7.870797858115518	-9.796070532775863	-6.192887313982759
O	8.963688438115518	-6.257850752775862	-5.429691173982759
O	8.314457468115517	-2.573609992775862	-5.959845833982759
O	6.459085058115518	-1.045717652775862	-2.9555027239827583
O	6.618349978115518	2.5840636772241377	-3.917959683982758
O	5.8036737981155175	5.434368317224138	-6.273622913982758
O	3.633675118115517	8.581686737224137	-5.702506453982759
O	1.217425458115517	10.989577167224137	-7.632093933982759
O	0.9638345181155171	5.804426967224138	-9.614048903982757
O	3.220419618115517	2.8952534572241375	-8.680176053982757
O	2.591896178115517	-0.13158393977586214	-6.517822713982759
O	4.042199878115517	-3.6785550427758626	-6.590432073982758
O	3.875269158115517	-6.721863362775862	-4.3512382939827585
O	2.728526558115517	-9.625888532775862	-6.543900513982758
O	0.1857479481155172	-12.102341332775863	-2.1613414039827585
O	-1.6052865118844828	-8.856511452775862	-3.2156830939827583
O	-0.7518843548844828	-5.209301232775862	-3.856706593982758
O	-0.9764437538844828	-3.987244462775862	-7.403587843982758
O	-1.2394306158844828	-0.3623215927758622	-8.377514463982758
O	-0.5552111825844828	0.8833935062241378	-11.942312523982757
O	-14.471575841884482	0.007518372224137759	6.246607106017241
O	-9.708600881884482	1.399986007224138	8.345254596017242
O	-9.625141681884482	1.6040156342241378	4.5668479560172415
O	-7.505404811884483	-0.7461945327758622	2.4483420660172417
O	-9.580877041884483	-3.469094272775862	0.7266008260172417
O	-10.307804721884482	-3.305033382775862	-2.960509363982758
O	-4.231490281884483	-2.3582434127758622	-12.767684123982757
O	-5.874801631884482	-1.9284956627758625	-9.323655773982757
O	-5.6269373118844825	-5.0510149027758615	-7.1032704039827586
O	-5.7022816618844825	-4.564961782775862	-3.3468118239827582
O	-5.0897581518844826	-6.621609702775862	-0.21381125398275833
O	-1.408901548884483	-6.588243442775862	0.8330626260172417
O	-0.8337907678844828	-5.129517032775862	4.297893416017241
O	2.2833514481155173	-6.793136312775862	5.648562436017241
O	3.657434118115517	-4.052047952775862	7.9535083860172415
O	3.913636308115517	-1.4169343527758622	5.258986706017241
O	3.451803098115517	2.400853377224138	5.6507422260172415
O	2.8258409281155172	3.851716527224138	9.103982036017243
O	5.514321808115517	6.411309797224138	8.364190416017243
O	8.178552758115517	3.605241697224138	8.107286836017241
O	6.710138098115517	1.3551921102241378	10.783235876017242
O	6.5506993681155175	4.150224357224138	13.400668476017243
O	11.308983358115517	1.5933094032241377	12.899097276017242
O	-0.04762297988448283	12.034540267224138	5.362552436017241
O	1.4952323081155172	9.140978247224137	7.378511896017241
O	3.1220286781155173	7.960791617224138	4.167961316017242
O	-0.40692240388448275	7.130856577224138	2.8353542660172417
O	-1.4305165988844828	5.163757117224138	5.958523166017241
O	-0.7084381678844828	1.4185786852241378	6.048760096017241
O	-0.2978834868844828	-1.015889692775862	8.921770406017242
O	-2.2614074018844827	-4.256011422775861	8.849916616017243
O	-5.821867381884482	1.745101777224138	7.224984136017241
O	-5.903983561884482	4.678801897224138	4.815064686017242
O	-4.069095311884483	3.0267597672241378	2.014846926017242
O	-4.0442896418844825	5.294357337224138	-1.0432721729827583
O	-6.723624981884482	7.409877227224138	-2.799045363982758
O	-4.790452181884483	8.816554347224137	-5.744689243982759
