23

O	119.23015931232887	67.60703096686258	8.51277422398849
O	117.7042575818478	66.38521759734753	7.558474575909445
O	111.61391248586631	63.52865844003259	6.260602465462024
O	118.93661424736533	66.67760215306602	7.521266449047359
O	117.99583798023015	68.18983033065712	10.719134700784599
O	118.30760949012088	67.63167335042536	9.511597412415249
O	115.05981792257266	66.22725315696265	10.94930222698816
O	117.3812962258522	66.83495578765981	8.834575486626694
O	114.90447486569049	66.4928320837898	9.01292467875209
O	116.1423099555177	66.86165055288023	9.369532649690797
O	113.32579934733944	63.52707906773953	7.701656219742224
O	116.07049305593377	66.98791736506989	10.709744194070183
O	111.93361838563641	61.11531002292295	3.9577114586556608
O	116.85249689328337	67.95114038905164	11.35775360171604
O	114.65773601622725	65.52941366316247	9.968324635665287
O	114.71515830414262	65.7533376765216	7.896385538621624
O	113.02749076242448	65.88298924854236	8.063279359176768
O	112.48821803607933	65.08580958517115	9.165979353295885
O	112.4108800606337	63.64177373396562	8.845006918691976
O	114.36728725063853	64.42880608437378	7.581178950434111
O	112.71951891226992	63.02243306491703	6.531895965315573
O	112.8207057405845	61.53619384966261	6.3458295508013345
O	112.2229669856852	61.302057525173964	5.047535113409894
