25

O	114.07399109786866	63.72966514478281	9.679844908799028
O	113.0921952498982	64.90887480179971	9.768685101591567
O	112.10278121591323	64.73656638284012	8.704187566451658
O	112.650771738889	65.33964551938435	7.497250660430295
O	113.94684697946875	64.66740175320191	7.634937311316255
O	114.78449702937482	65.62057160415957	8.239386354464722
O	114.05491895352336	66.01537187012198	9.336413889916894
O	114.51502586722157	66.4570784873994	10.555041777668132
O	113.44082129238373	66.82346475049891	11.495381112661573
O	115.7516765648875	66.94095801914142	10.755365800252648
O	116.62546878813099	66.96779130772593	9.75726264688624
O	117.18773395315853	66.26302541490813	8.752296787012279
O	118.25371359040096	66.95611941500317	8.16631509017297
O	118.03631747796604	68.13210961186012	8.826668134830102
O	117.66645370161562	68.00410526732315	10.054662162065691
O	118.1422165963098	68.33870923027094	11.22188773582364
O	117.251508938517	68.0805749742879	12.237075463529607
O	116.09993208922207	67.50610388586651	11.900875133846366
O	114.40691006899691	63.74524674481837	6.833513398627776
O	115.1471790996319	64.0208082810661	5.873205944141791
O	113.2139572291585	63.132558348447716	6.6366309647568364
O	112.51251130800438	63.46490238458433	5.443785635668821
O	111.10982840571225	63.397947591145694	5.874506018143554
O	111.10161016061275	62.245330637569694	6.801824046487017
O	112.46913954609991	62.22619334548294	7.36548902372798
