94

O	-3.6766414333461537	2.0204671189615384	2.5638962700730774
O	-2.545302733346154	1.7733014489615382	1.5196632200730775
O	-1.4544457533461537	2.750100128961538	1.6510803800730773
O	-2.090942740346154	3.8410835989615384	2.048066630073077
O	-1.8574252733461538	5.147589148961539	1.9550384300730772
O	-2.2584753013461536	6.206554168961539	2.6753907100730774
O	-1.4513716163461536	5.241135048961539	0.6975256500730772
O	-0.3753699163461537	4.355155478961539	0.3490784870730772
O	-0.5611115053461536	3.060451598961538	0.6964569000730773
O	0.14110313665384644	2.1551172989615384	-0.03861959592692277
O	-0.8250792293461536	1.4158629949615382	-0.6089601196769228
O	0.07193586665384633	0.47900555595153826	-1.1577276849269227
O	1.2710030666538463	0.7597494379615383	-1.7001188999269226
O	2.1241101466538463	-0.29563961103846176	-2.343275029926923
O	3.000709496653846	0.36905044896153827	-2.8202018399269226
O	2.8169953066538462	1.7020719689615382	-2.5956596299269226
O	1.7769172466538463	2.051108108961538	-1.8997112299269228
O	1.1309839066538463	2.929480308961538	-0.9763567579269228
O	1.9051838166538464	-1.4706068110384618	-1.4910044759269228
O	0.7036768966538463	-1.8711708510384617	-1.7884289899269228
O	0.09644647665384642	-1.8376812110384617	-0.4943913229269228
O	-1.3789074065461537	-1.6904026910384617	-0.09846580392692272
O	-1.7678305973461537	-2.616950491038462	0.9913038700730773
O	-1.4408820583461537	-1.5754294110384617	1.9642811200730774
O	-0.057281363346153746	-0.9699264610384617	1.6451486000730773
O	0.7712388966538462	-1.0253991110384617	0.43014335007307725
O	1.7206518766538466	-1.8083009510384618	-0.16752528892692276
O	-0.6113891723461536	-3.560481081038462	1.0647237000730772
O	-0.9611835353461536	-4.280260261038461	1.9747818700730773
O	0.07093076665384634	-3.9616884910384615	-0.2618606469269228
O	-0.4485324043461537	-3.0987248710384616	-1.4548114129269227
O	-0.8911361703461537	-4.423883001038462	-2.0242791899269226
O	-0.6587652593461537	-5.637577191038462	-1.3650042609269226
O	0.7178858466538465	-5.170277491038461	-1.4049001859269228
O	1.0226955366538464	-3.749674861038462	-1.1367561779269226
O	-1.6224506693461538	-6.201677071038461	-0.40547989392692274
O	-2.5214958933461538	-7.135552561038462	-0.8950507649269228
O	-3.020997013346154	-8.36662079103846	-0.21413153192692275
O	-4.240635413346153	-8.011141031038461	0.6784555500730772
O	-3.6224935933461535	-6.683921721038462	1.1942340000730773
O	-2.7514593133461536	-5.7910170510384615	0.4253246300730772
O	-1.0294127723461537	6.476404658961538	0.44652599007307725
O	-6.638862733346153	-1.4635767110384619	-13.027810309926924
O	-4.608218463346153	-4.582835531038461	-12.179285409926923
O	-5.807721743346153	-5.458602881038462	-8.697145649926924
O	-7.180222603346154	-4.335817311038461	-5.311036879926923
O	-4.436793633346154	-3.753975851038462	-2.7604074699269225
O	-6.224636743346153	-3.316492881038462	0.5168662800730773
O	-8.832852893346153	-1.3734766710384618	2.4163720100730774
O	-8.292824623346153	0.5564320119615382	5.711081270073078
O	-9.640694083346153	3.6272702489615383	7.480480250073078
O	-12.274912823346153	4.4913018289615385	4.715613990073077
O	-9.532486313346153	4.297903138961538	1.9865226000730773
O	-8.853697573346153	1.7854019589615382	-0.6405961767269228
O	-5.5875510733461535	1.1851670539615382	-2.5548854899269227
O	-5.242637263346154	-0.4647271590384618	-6.1128816799269226
O	-2.2855723723461536	-1.7292253710384617	-8.157683539926923
O	-2.5715115733461538	-0.0218331540384617	-11.598863709926924
O	1.8496616666538461	2.330182188961538	-9.518080669926924
O	-0.2677410533461537	2.1525139589615385	-6.290896419926923
O	-3.4755678733461535	4.152435648961538	-6.247831039926923
O	-5.410821323346154	5.210866168961538	-3.2176902799269227
O	-9.079225133346153	6.339997938961539	-3.3076036599269227
O	8.345253666653846	7.163718368961539	3.3558144500730775
O	6.317760666653847	5.985837488961539	0.3935388300730772
O	6.810125086653846	8.295525428961538	-2.6078740799269227
O	-7.087115813346154	9.568088428961538	-6.4630821399269225
O	-3.6447945733461538	9.504906668961539	-4.849400039926922
O	-0.8636451003461536	7.953817748961539	-6.9664127399269224
O	2.0525124766538463	6.441082578961539	-5.168813979926923
O	5.169762916653847	4.456175458961538	-6.244817969926923
O	4.4434623166538465	0.6718839019615382	-6.108754489926922
O	6.497052436653846	-1.1991511410384619	-3.4737500199269227
O	6.615597836653846	-4.826842921038462	-4.724696929926923
O	7.2646418566538475	-6.658311311038461	-1.4604018429269228
O	4.126510396653847	-5.378544721038462	0.1338657660730772
O	3.5723838466538465	-4.746987671038461	3.927466960073077
O	6.1219837466538465	-5.576641741038461	6.471425950073077
O	3.4126040466538465	-7.392173801038461	8.451186420073077
O	2.9183750966538464	-9.928675921038462	5.573396240073078
O	6.570882226653847	-10.01719092103846	4.461184690073077
O	6.0569115066538455	-15.01938482103846	5.0783328300730775
O	1.3805378766538463	-0.6357919310384619	12.983600890073076
O	3.403084556653846	-3.1151768910384616	10.890460590073076
O	0.3767181966538464	-3.3001424610384618	8.598473320073076
O	1.1007113266538462	0.3510145049615383	7.513871300073077
O	4.885312016653847	-0.2741977130384617	6.885184660073078
O	5.927180166653846	-1.3553772710384617	3.3060296300730774
O	8.895479776653847	-3.2464863810384617	1.9147253100730772
O	8.919469076653847	2.6961003989615384	4.203832850073077
O	5.962375886653847	4.115564948961539	6.1374146900730775
O	3.3308612666538466	3.2987695689615384	3.3993127800730774
O	0.1423049466538464	4.5952419189615386	4.842262770073077
O	5.370590496653847	-2.055558421038462	16.342385290073075
