86

O	0.6096106436071421	1.1131678625357138	-6.083621180178572
O	0.24784375360714217	1.5948763735357139	-7.380396300178572
O	-2.081511566392858	1.551363453535714	-6.062545000178572
O	-1.6362305643928579	0.35221104553571386	-6.073058050178572
O	-0.5444497553928578	-0.7045580634642862	-6.2717634801785715
O	0.7642696736071423	-0.31049676346428623	-6.381095600178572
O	1.962717163607142	-0.6024527534642862	-5.600506940178572
O	1.0618253336071422	-0.4684572234642862	-4.471545310178572
O	-0.11942028239285785	-1.3383731534642864	-4.326275380178571
O	-1.3245231653928577	-0.7255760334642861	-3.6079092701785713
O	-0.4252111353928578	0.037335461535713876	-2.7870543501785714
O	-0.06902757039285778	1.346670577535714	-3.3609792801785714
O	1.269056983607142	0.8920761185357139	-3.9382175101785712
O	0.6818130636071421	-0.5669821634642861	-2.1262974821785714
O	1.6593808136071422	-1.2808434034642864	-2.9015502501785715
O	2.874598773607142	-1.4469943734642863	-1.8814970231785715
O	2.851688213607142	-1.8444407234642863	-0.3231134691785714
O	1.392493463607142	-1.7686135934642864	0.18278926982142862
O	0.8993255236071421	-0.8348500834642861	-0.7391400971785714
O	1.8105489736071423	-0.014092755464286122	-0.03702288017857147
O	1.731727053607142	-0.4736836334642861	1.4133443698214287
O	1.6394793136071422	-1.7271885834642862	1.6561289198214284
O	0.38206549360714226	-0.0574091064642861	1.6758424198214288
O	-0.3298496523928578	0.21849395453571385	0.5657686298214286
O	-0.5173068433928578	1.297882406535714	-0.25159417017857133
O	-1.807800857392858	-0.19187186946428614	0.28391426982142853
O	-1.715090582392858	-0.9644350134642862	1.7960443598214286
O	-2.1624952063928577	0.3531788395357139	1.8258909098214284
O	-1.4223263403928579	3.2251434565357138	-5.628401750178572
O	-2.435900536392858	2.470198126535714	-7.844555280178572
O	-1.9748974463928577	-14.855530753464286	2.054032509821429
O	1.691273933607142	-13.883562053464287	2.6615122498214285
O	2.776396223607142	-11.939741453464286	-0.38311739917857135
O	1.6500756936071421	-9.746261053464286	-3.2749769801785713
O	2.474500053607142	-6.155922163464286	-2.5907165001785715
O	1.6884358236071422	-4.510005653464286	-5.909313000178572
O	-0.7885174553928578	-3.750313673464286	-8.644801880178571
O	-1.9514719463928576	-0.3246277134642862	-9.729302950178571
O	-5.061239636392857	1.4874089435357138	-11.11926745017857
O	-7.148306246392857	-1.760261293464286	-11.55610991017857
O	-6.421346956392857	-2.5486225534642863	-7.814441310178571
O	-4.150720286392858	-5.116612433464286	-6.317137670178572
O	-2.8379955963928576	-5.293138743464286	-2.8168963601785713
O	-1.7045682983928578	-8.345027673464287	-0.6711609671785714
O	0.019436570607142212	-8.771072403464286	2.7236827198214284
O	-2.1564470263928577	-11.176044553464287	4.693276869821428
O	-2.886162436392858	-6.506837713464286	7.446520149821429
O	-2.987993406392858	-5.1515205634642856	3.926186839821429
O	-5.748087656392857	-6.289673163464286	1.5651177398214287
O	-6.9160806363928575	-4.5502635034642855	-1.5648458981785713
O	-9.023412926392858	-6.216238483464286	-4.260083630178571
O	-3.673554986392858	8.791008726535713	6.145413989821428
O	-3.511092026392858	4.979505866535714	6.185765689821428
O	-6.032428186392857	3.3234412165357137	8.481629069821429
O	-11.970382626392858	-6.699407653464286	-0.25057252017857135
O	-10.715329666392858	-3.5453670434642865	1.5369814398214288
O	-8.748043946392858	-4.281727533464286	4.744047709821428
O	-6.192222426392857	-1.807114373464286	6.008568089821428
O	-3.308961136392858	-1.553772373464286	8.52522311982143
O	0.04709745960714218	-2.921479463464286	7.191961769821428
O	2.7810590436071423	-0.31970998346428614	7.012746769821429
O	6.011964613607143	-2.1744813534642864	7.440150179821429
O	8.395332713607141	0.12216948453571386	5.556704969821428
O	6.480502213607142	0.07564944553571384	2.2801058198214283
O	6.332889123607143	3.0417821765357136	-0.18724055017857144
O	8.228963273607143	6.210132536535714	0.3126619498214287
O	9.421246673607142	5.869404936535714	-3.276998380178571
O	11.245642573607142	2.543703016535714	-2.468592570178571
O	12.253046573607142	3.4510762365357137	1.0625878398214288
O	16.95662857360714	2.3317350265357137	-0.4714342011785714
O	-0.35469785839285783	12.131502646535713	-5.741854280178572
O	3.041818763607142	10.494502316535714	-6.3193630701785715
O	5.733749583607143	9.135206926535714	-3.9227585301785712
O	4.692400483607143	5.6576419665357145	-5.0233171301785715
O	1.295181653607142	6.250667306535714	-3.2772576601785715
O	2.907410583607142	7.535684996535714	0.01916724982142859
O	3.7512748636071422	4.906907866535715	2.7043159998214286
O	6.206507163607142	4.723785066535714	5.563286699821428
O	4.908884403607143	3.617376286535714	8.92443998982143
O	0.9206159036071423	8.412754326535714	5.327309089821428
O	-1.0348965553928577	8.945007426535714	2.069466809821429
O	-1.7153228593928578	5.409046156535714	1.3939719098214287
O	-3.930845456392858	4.838320796535714	-1.7082680951785714
O	-7.160508846392857	6.503452386535714	-2.8997746001785716
O	-7.889379076392857	4.531037746535714	-6.032426240178571
O	6.082579073607143	14.874425546535713	-5.324805500178572
