23

O	112.5887520007577	66.00635570696751	10.133758910702518
O	114.07965283437045	65.87303431615814	9.718825401771735
O	114.14119437678332	64.40241653021192	9.65761631925656
O	113.113398716136	63.88593780839701	8.626143736459778
O	113.83778124899881	64.2490922120757	7.380670862033578
O	113.21172995442826	65.52784065908742	7.382470568201282
O	114.19427368140117	66.2600303593971	8.330098114198673
O	113.00225396261523	63.353859984988574	6.18995428016931
O	111.572255237266	63.51868563957531	6.484954508066153
O	113.58367435429612	62.02024242887499	6.268923700571578
O	113.41977271981636	64.13323267455294	4.709301595447606
O	114.95500510667526	66.55299978235317	10.65368753436247
O	114.41644923939572	66.71775158334628	11.865324353290259
O	115.30001142003645	67.57409653693487	12.539066451218698
O	116.47529485064537	67.74298730752969	11.839434976612491
O	116.17864316667293	67.04327865865766	10.670311973585324
O	117.284402961051	66.86477238295187	9.770687076837753
O	117.33427416389956	66.43405862269329	8.427235672121773
O	118.58495544183839	66.67265491329728	7.993984081878714
O	119.19222790533219	67.58211889858514	8.939941780300655
O	118.46810096548371	67.70487559716247	9.98370118056349
O	118.55075493723649	68.4686679650763	11.162324207981202
O	117.65766029017479	68.52548310892679	12.076476796484958
