26

O	116.76244005475878	64.09229003117832	8.10341075671747
O	114.3270043153958	66.4536551967355	8.46297978395592
O	114.7984373447162	66.2039974648532	9.670673301045293
O	116.27114840077891	66.72441837995154	9.924897152655781
O	116.41302188780689	67.10487662632872	11.183662277415014
O	117.43379654060367	67.82718731003689	11.601790356316132
O	117.54890702975425	68.2109834635139	12.960263224324667
O	118.44720746259047	68.12305056832982	10.793229946757302
O	118.29316887789761	67.91364940494579	9.489089277238767
O	117.15209094531752	67.31387510385461	9.065814248043981
O	114.39164501218616	64.81510883233514	9.305473588619089
O	113.23369106621992	64.6484811398403	8.61108451126668
O	112.20105181118112	63.76373433357825	8.191943187374564
O	111.00551195887172	63.93135560967663	8.600245147858233
O	112.10891019971764	62.744305576685015	7.2163832984775755
O	113.87420078515635	65.47360227316872	7.59117764778981
O	114.49624432033836	64.4379963597439	6.833163633241693
O	113.73628904918691	64.09796233009618	5.6924814622430855
O	114.22200180616207	63.179374101395624	4.8447225229113595
O	113.47294589155065	62.03959551036003	4.296748092619204
O	115.537943686983	62.931164314190326	4.741463706446188
O	116.34476979409658	63.74918018600081	5.558782875386948
O	115.6992672202245	63.83658787336492	6.818777437371525
O	112.27710636770371	62.56803936946993	4.189310737279637
O	114.07633678878834	61.7050948551729	3.160626889175769
O	113.77232467144893	61.13060283530202	5.252706721768004
