79

O	6.751568750946428	-0.668482830775	1.6848803551410718
O	2.784695860946428	-0.312385281775	0.6634360521410719
O	2.812747510946428	0.8040909202250001	-0.1118141153589281
O	4.077345900946428	1.3563327222250001	-0.2327123502589281
O	5.243382600946428	0.604812856225	-0.06248692785892811
O	5.204083400946428	0.05520398322500003	1.2295279451410719
O	3.994190370946428	-0.652640854775	1.2896745751410719
O	0.6670455909464286	-1.690722027775	1.0629766151410718
O	1.7701138409464285	-1.3125504877749998	0.533849321141072
O	2.2311694109464284	-2.4111941677749997	-0.2168745387589281
O	1.0848372609464285	-2.0669584677749997	-0.9698131728589281
O	-0.01821448905357148	-2.027093297775	-0.08440931405892811
O	3.336083160946428	-3.213950937775	0.3243862891410719
O	3.253936890946428	-4.3083305177749995	0.977650595141072
O	4.711369810946429	-2.882235937775	0.2075116661410719
O	-1.0372146850535715	-2.796585757775	-0.2592788629589281
O	-2.022877979053572	-2.119391377775	-1.0591682058589282
O	-2.9834499090535713	-3.134523937775	-1.3490569848589282
O	-2.5089206390535717	-4.553165767775	-1.5374317348589281
O	-1.7438922190535715	-5.093260037775	-0.7274875988589281
O	-1.0012851020535716	-4.148319947775	-0.013787333858928108
O	-1.3105682610535716	-6.419334807775	-0.6431259578589281
O	1.4987160909464283	1.2010435322250002	-0.6294178878589282
O	-1.4519611230535716	-3.0647935777749997	-14.850950694858929
O	-3.6217024990535718	-5.484784347775	-12.80634429485893
O	-1.2730187330535716	-6.945515797775	-10.263555894858928
O	1.8498259009464284	-6.416105657775	-8.192057794858929
O	0.9415261909464285	-5.416032757775	-4.660700644858927
O	4.232839620946428	-5.714824017775	-2.987129764858928
O	7.774979240946428	-4.495387017775	-2.4343761348589283
O	9.471131860946429	-2.639424867775	0.5147406251410719
O	12.303369060946428	-0.05959922977499996	1.172577715141072
O	13.430236160946428	0.16858740622500004	-2.5627963948589283
O	9.82277926094643	0.931969238225	-3.6942301848589283
O	7.235120110946428	-1.277514977775	-5.373952804858928
O	3.464172930946428	-0.902986617775	-5.497582854858928
O	0.9718950009464284	-2.0609357677749998	-8.158246994858928
O	-2.7798202590535714	-2.191116067775	-8.602726754858928
O	-3.680514399053571	-0.457481365775	-11.89119859485893
O	-5.680720379053572	3.084766052225	-8.199092664858929
O	-2.4388728390535714	2.144666052225	-6.402909504858928
O	0.7893420809464284	2.991091372225	-8.151273244858928
O	4.145747370946428	3.184289842225	-6.417986564858928
O	7.477175010946428	3.182262202225	-8.37123753485893
O	5.680074270946428	12.399059692225	-2.9007672548589283
O	-3.5596837890535715	8.728600632225	5.844231475141072
O	-3.7658479490535717	7.182688202225	2.359016175141072
O	-4.928951979053572	9.748076072225	-0.2653822847589281
O	5.265033400946428	7.127327032225	-10.351649394858928
O	3.145842870946429	8.032962262225	-7.302674004858928
O	-2.7507436890535715	6.868920842225	-4.720629814858928
O	-6.291745329053572	5.775879022225	-3.889513574858928
O	-6.611794839053572	1.9427038122250002	-3.766702624858928
O	-7.756493589053572	0.6108995352250001	-0.3780050118589281
O	-9.687858169053571	-2.589576957775	-1.011950705858928
O	-8.97962854905357	-4.522155297775	2.2506742251410716
O	-5.245532699053571	-4.385469267775	2.0873308751410717
O	-2.7289942490535717	-4.300085217775	5.021470845141073
O	-3.882818819053571	-4.3826575577749995	8.543630745141071
O	-1.2254397930535714	-7.052270227775	9.12695614514107
O	-3.034595549053572	-9.477874337774999	6.754460155141072
O	-6.595403299053571	-8.342915617775	7.472116565141072
O	-7.4632652190535715	-13.284531507775	8.317270885141072
O	5.565430550946428	2.2553124122250003	11.825142305141071
O	4.554626050946428	-1.4256498677749998	11.527019205141071
O	1.2024443409464285	-3.132796307775	10.829797705141072
O	2.5136034209464286	-4.040530107775	7.355049945141072
O	2.460038820946428	-0.30303609077499993	6.559349765141072
O	-1.1228260080535715	0.24249161362500005	7.730343835141072
O	-4.012898369053572	-0.23280625977499994	5.260163185141073
O	-7.691889709053572	-0.993533867775	5.695637985141072
O	-10.19823137905357	1.1349141282250002	3.806202515141072
O	-4.857719429053572	4.518425902225	7.207695335141072
O	-1.0912302950535715	4.825869532225	7.314028305141072
O	-0.4066825250535715	3.586362122225	3.813195975141072
O	3.2713869009464283	4.1492109322249995	3.198404325141072
O	5.8021407109464285	6.976638502225	3.7796876451410717
O	8.99944888094643	5.638034692225	2.228489325141072
O	2.4466754309464287	-1.8396185477749998	16.510940205141072
