21

O	115.92902093853891	62.58493986493793	5.169158219767575
O	116.03416845306265	63.83848541684139	6.042114144136086
O	117.24311110031658	64.65187820066555	5.789847842823448
O	117.71681151009945	64.62976183124906	4.565353799462262
O	118.89623867068366	64.79318138796413	3.9558132946763305
O	119.54690357338667	65.58038592589199	4.793033740420821
O	119.06859739787538	66.10289898165934	6.153134864173602
O	117.88369681795568	65.45278834802583	6.597644335789535
O	116.92822845165612	66.43689042051972	7.132025651474181
O	116.02203183836298	65.96477535283421	7.926776512932896
O	116.5887347379129	66.04054129024135	9.313641064707694
O	117.83400415664725	66.59831429958155	9.242491707573532
O	118.85695779265474	66.99662641677233	8.257496898837157
O	117.93788653308904	67.57997216802069	7.182528850514458
O	119.8603824795011	67.55049878211433	8.796800038338034
O	119.41185093362319	67.95464343857996	10.079662653804006
O	118.23650626429777	67.42391816838385	10.32595845255607
O	117.39045815304628	68.16403232539844	11.278464569424518
O	116.51116314925869	67.4062468560036	11.704248032360844
O	116.64311775599208	68.73907844876591	10.127860096840715
O	119.04254015238054	64.99344388827744	2.576491131358635
