29

O	115.9103943089733	65.04046388745705	9.290505154958428
O	115.9678830081444	65.97460541133002	11.230595797427062
O	116.26584173396115	65.6512840830684	6.176166956932406
O	115.18570386716532	65.22091673396659	10.514611472754385
O	117.0043909664136	66.067410301178	9.515286498988393
O	116.85072210864003	66.7504993374091	10.441429630511495
O	117.48733846102058	66.47840804071048	8.193559414270265
O	117.87647478335613	67.48959676198426	9.020590584544816
O	116.67290986315152	67.90322486330633	9.974558806909384
O	115.48477201187686	67.44881486700936	10.141009516984328
O	115.54378265527608	66.30825092355232	12.457550124498466
O	114.41189662732666	65.82723294753573	12.980798287522697
O	113.4257544743241	66.13391316623024	12.05054379412526
O	113.95071831782056	65.36268386431017	10.89796551683721
O	117.14163273830168	65.595889317163	7.1307077488615835
O	114.61109662403517	66.72795591503373	9.122953420140206
O	113.79012536505438	66.04173530350384	8.332508222608814
O	113.6530451975645	64.8392976753582	7.562907563614994
O	113.04758158081378	63.618714325190815	8.184183432120163
O	111.56011141743605	63.808468932819494	8.243100908966941
O	111.46356719216585	65.04070757598457	9.094769747690789
O	112.32349189567552	66.09111486947997	8.577679342390297
O	116.68249183783473	64.1770176382881	7.39609165610886
O	112.07560618106918	66.02919307828927	12.626084779159552
O	111.94910007127548	66.99897466323274	13.706907079181766
O	111.21020719944029	66.51161752323132	14.68865744171512
O	110.4561587751255	65.6289107991479	14.030087624813135
O	111.3367688105832	65.04303686543183	13.16766217332231
O	110.84960042675364	67.05048431230195	15.98668670984928
