88

O	-0.8413686184886794	3.6146655868981132	-5.01886144754717
O	-0.37583408918867944	2.139214955898113	-4.78951536754717
O	-3.1067675801886794	0.9308267128981133	1.7502274624528302
O	-1.1965632481886794	2.222973609898113	1.4234547324528302
O	1.0320088298113204	-1.5474099031018866	-1.86317376754717
O	0.46777112981132063	4.180132606898113	-5.11114811754717
O	-2.1080928701886794	1.1160051338981132	-0.18006919754716977
O	-2.3846540001886796	2.0645881408981133	2.27257642245283
O	-2.2610128001886793	0.006043986898113252	0.8826330124528303
O	-0.6711695451886794	1.3707008578981132	0.3369364024528301
O	1.0474312898113207	1.7767751948981132	-4.87105868754717
O	1.5417005498113205	-2.5342545631018867	-0.8952768495471699
O	2.180624249811321	-1.162483613101887	-2.68960914754717
O	1.3705640198113205	0.8648960278981132	-3.6812165375471695
O	0.13741841981132052	2.535901671898113	-2.68821029754717
O	-2.5790103401886793	3.6639864768981134	0.09749780245283013
O	-0.8492129396886794	4.904096866898113	-2.2385051965471696
O	-1.9679826401886795	3.2726480968981133	-2.1265835715471697
O	-1.9557540301886793	5.544011696898114	-1.40148711494717
O	-3.0926000601886794	4.245058636898113	-2.06054215854717
O	0.7726052098113206	-3.2776767231018864	0.06581487245283002
O	-3.4611181301886793	3.322809966898113	3.77341455245283
O	-2.7679924501886792	2.355909240898113	0.04512145245283006
O	2.871226209811321	-2.384286053101887	-2.81212880754717
O	0.41235345981132066	1.1844381408981133	-2.68684790754717
O	1.1252073898113206	3.164273386898113	-3.34834447754717
O	2.520995349811321	-3.212809713101887	-1.7531224695471699
O	1.3970827298113209	3.1478717468981134	-4.68829267754717
O	-0.6987791771886794	3.531399416898113	-2.5405605175471697
O	-3.051787090188679	4.735798436898113	-0.7146113335471699
O	2.1793584998113205	-0.2081816431018868	-3.6943425975471698
O	-1.1731722161886795	3.889080086898113	-0.12799938754716988
O	-3.1300844501886793	3.282296246898113	2.43057794245283
O	-1.3342084961886793	-0.9972420731018867	0.81918650245283
O	-0.11801218418867943	0.1679166768981133	-0.00261369754716978
O	-6.64015384018868	-5.921327693101887	-12.28783102754717
O	-4.34458881018868	-2.996080263101887	-13.15337102754717
O	-5.46098931018868	-0.22762951310188684	-10.88383752754717
O	-6.892789220188679	0.7909108708981132	-7.54139436754717
O	-4.27350057018868	1.5308628132981132	-5.04265399754717
O	-6.25675677018868	2.9405905968981134	-2.1561157265471698
O	-8.873069860188679	2.7017617368981135	0.4244610624528302
O	-8.492387780188679	2.896300366898113	4.24052646245283
O	-10.032952040188679	1.3580995948981132	7.3773920024528294
O	-12.77672669018868	-0.6972573931018866	5.49232835245283
O	-10.041383230188679	-2.2601046231018866	3.2453078824528303
O	-9.194259950188679	-1.6147587631018867	-0.3681167875471698
O	-5.94879544018868	-2.4065761431018866	-2.2192243735471697
O	-5.34319956018868	-3.108803513101887	-5.93856449754717
O	-2.3012187701886795	-3.4647502831018864	-8.16179775754717
O	-2.7772626301886794	-6.747137983101887	-10.04954257754717
O	-0.7450952251886794	-5.893458533101887	-4.22976285754717
O	-4.16354228018868	-7.339693003101886	-3.4430018875471697
O	-6.15684748018868	-6.317783593101887	-0.3989257875471699
O	-9.88942656018868	-6.928666193101887	-0.023774387547169873
O	7.61437983981132	-5.4320002531018865	6.95285120245283
O	5.77697977981132	-5.943411193101887	3.6454999824528302
O	5.864329989811321	-9.536819293101885	2.39705486245283
O	-8.22728893018868	-11.594800993101888	-0.6850539005471699
O	-4.76788033018868	-10.953014193101886	0.8543356324528302
O	1.2828743198113206	-9.192544393101887	-0.9801879845471699
O	4.4133060898113206	-7.992146153101888	-2.71149849754717
O	3.997073689811321	-4.757549513101887	-4.66264699754717
O	6.3105829298113205	-1.986216663101887	-3.5203625575471698
O	6.980764839811321	0.22797564689811312	-6.53181831754717
O	7.63435360981132	3.5999398468981134	-4.82473599754717
O	4.38023417981132	3.6468937168981133	-2.89284927754717
O	3.717202979811321	5.310188576898113	0.5221106824528301
O	6.31671031981132	7.1515213668981135	2.29181043245283
O	3.7437291398113204	9.934617326898113	2.8105997524528297
O	3.5355582198113207	10.551915536898115	-0.9831349105471698
O	7.20497163981132	9.762352046898112	-1.79180347354717
O	6.17134810981132	15.004566906898113	-0.3879359585471699
O	7.18776793981132	14.317524806898113	-4.02097022754717
O	1.1448833898113207	6.953232496898114	10.14076537245283
O	3.415915639811321	7.714450106898113	7.161569042452831
O	0.40673525981132064	6.848500496898113	5.02413551245283
O	0.9093612298113206	3.2092686968981132	6.22845185245283
O	4.604173209811321	3.009616196898113	5.42236456245283
O	5.712568759811321	1.8736379798981133	1.95352898245283
O	8.899454019811321	2.483544539898113	-0.024382737547169908
O	10.56248910981132	-0.5132497331018868	-1.6430883125471698
O	8.442668749811322	-1.2111057731018868	5.14626255245283
O	5.44002919981132	-1.110458463101887	7.45507912245283
O	2.9219348498113207	-1.894051723101887	4.83579308245283
O	-0.5998009251886794	-2.1657935131018866	6.30570530245283
O	-5.63829001018868	-3.325456213101887	9.22719637245283
O	5.2458251798113205	9.714373286898113	12.40325367245283
