37

O	113.56965609095191	63.3856427486153	3.7740281441680104
O	113.2158745560844	64.68330180455182	7.45111198350977
O	113.41748980737313	64.7740666125692	6.020384244519827
O	112.87689154341591	63.484236225469544	5.394156348721097
O	113.51083471315818	62.4287357773521	6.244673200992074
O	114.77704411204702	63.038176989585324	6.843890492594026
O	114.6370988049282	64.27193379667628	7.853163642677343
O	110.6155614323698	65.48618473290709	14.33615177129273
O	109.54186254309934	65.09075658054779	13.413690390596212
O	108.38004845208053	64.46934157682179	14.19945688371255
O	108.19765928076566	65.0548745231685	15.500659914100384
O	109.35794199543707	64.82242023651125	16.322656231140222
O	110.50714241017255	64.51070022189936	15.37150918492966
O	114.69017451306135	67.41156766663916	13.664483813132911
O	114.14446801524616	66.50395370803517	14.654037968625245
O	113.15295267441086	65.475650814581	14.334437539696667
O	111.85741107407154	65.73176799581813	13.734762042667999
O	112.16104958819825	67.12976016738926	13.304676876542631
O	113.50117194557677	67.45328197084525	12.822225917267685
O	115.04602508121077	66.47979354553134	10.606188130119284
O	116.42686657367281	66.56975344022608	10.052921521099243
O	117.73257243421885	67.44359232521258	10.256012943385656
O	117.83225197681585	68.08257095170377	11.57046342448805
O	116.57334651381777	67.76608883928691	12.12978302739856
O	115.32734197674901	67.62245164581265	11.4416112992915
O	112.7567750514269	65.89273217419074	9.761486456184398
O	113.03690317829314	65.57095810885022	8.536113831905618
O	112.80263879882422	64.26852574028176	9.430392256067098
O	114.02243639862606	64.34699261597973	10.141148871834837
O	113.82509648707314	65.67595866810818	10.80742686290691
O	111.68480990570073	63.75148305823938	8.652385398370969
O	110.71140082851296	63.57076180390901	9.759751552299932
O	110.81109284789599	64.76682209047294	8.146359501727233
O	111.55945822834805	65.54702906807744	10.617441564278758
O	116.01648834692713	67.76873033318402	13.457350087221148
O	106.98083678977264	64.52270515893072	16.05741523401759
O	115.59661567351338	65.21022164464638	7.105370821588592
