36

O	113.68780694197702	63.40472942387608	9.001703458022488
O	112.4545313102088	64.14049448483271	8.923650228565286
O	112.82019819083527	65.0956823289604	7.950983227449056
O	114.08813875733654	65.70267794759526	7.852706456358621
O	115.23542506754592	65.02489854654449	8.112715696315279
O	114.95053603510505	63.887941629037314	8.7839528278486
O	116.51630922381565	65.67017183508672	8.549220613873935
O	116.62367020399442	66.3127266979419	9.783487712460662
O	115.72715940991391	66.21370106368538	10.744139237857915
O	115.87577225851958	67.05921965315596	11.806823826808198
O	117.02609817030175	67.8123213325302	12.087288960983587
O	117.91515170189024	67.9119406519482	11.108025281300486
O	117.72660055272124	67.13691590394541	10.032088476909365
O	117.93536183716328	67.76450728333934	8.84957872574562
O	118.0745075912677	66.93352559795792	7.65422732153818
O	117.46315845570989	65.72142388014231	7.588188701376521
O	114.69178231577743	67.04421636891	12.691193142085023
O	114.91379185254215	67.39455799541066	14.022468105785117
O	113.83216723296077	66.9686025405167	14.643337302814778
O	113.06159852522481	66.33131461261611	13.814096445682106
O	113.64634708788671	66.10474281743392	12.586807014198826
O	113.59303759054215	67.5441361585157	15.9703576739783
O	113.24626920918325	66.49790599987745	16.9492934888032
O	111.75885380357187	66.4135412211105	17.289616380226114
O	110.94249842636741	66.11116642602856	16.15248143075877
O	111.39050422536185	67.09436133455213	15.164489492040211
O	112.2789077177877	68.18919530270955	15.757897634509789
O	111.39593501754584	64.17793511072475	9.881778344644266
O	110.6714117806553	64.35605500257203	11.021723055703815
O	109.50903606431127	63.6228802219563	11.606500125165244
O	108.24130432118241	64.16058889993224	11.886690982771924
O	108.30535282465289	64.86593188871929	13.115225461380406
O	109.52372976782907	65.47638341232464	12.992967114247703
O	110.63812442263061	64.8852042616008	12.42146862229892
O	113.38363667927938	62.331839508021766	8.175778681922631
O	112.25651286844086	64.52266264082165	6.8310564247579375
