32

O	116.3071887850454	66.23275156742883	9.414335987027862
O	115.30453542678187	66.41234434137868	10.362386464276558
O	115.50882715849569	66.91272819472582	11.578370737774568
O	116.53615254753056	67.80434367801267	11.698065305459709
O	117.53980834609973	67.64519261345276	10.787699738163612
O	117.4181551138507	66.97889436558314	9.571276123619844
O	116.99507354545443	68.39363424408847	12.912091733393936
O	118.69644365722797	68.21068543829291	10.667542394874488
O	119.25359108898883	68.03312205811217	9.444096547200505
O	118.50570871355775	67.12290688481461	8.827841965431718
O	118.90079993027165	66.48272185259641	7.583434751558647
O	115.81065036031137	65.64277021899791	8.25859990780952
O	114.54789161472931	65.28921583570951	8.627688400367731
O	114.24824642190778	65.88364363788381	9.782467022717189
O	113.99530473765972	63.994826228076924	8.168400013838188
O	113.46030729917102	64.23128700773447	6.884481149548693
O	113.20152960760242	63.53643079882125	9.014489528389227
O	112.92128568668407	65.86310686380513	10.314456344682316
O	112.96200421473223	65.97367252252705	11.740176912531151
O	113.97894878331645	63.29429872984207	5.863795579879206
O	112.03775338101721	64.13418469069215	6.713568245109161
O	115.22993330703417	63.81633613133055	5.302145512919365
O	113.96492880783441	64.09344327848437	4.638769469083026
O	111.27035508079925	64.11848098288685	8.01016343358414
O	111.58282509053494	62.891206403815524	7.3258781442096215
O	115.9754742738006	68.20477153382298	13.918748145499285
O	115.78973439297005	68.73337905302267	15.138652548897834
O	114.6558349497818	68.25621248217848	15.714597910879844
O	113.9202931953918	67.74131496101339	14.702688817610467
O	114.78675241554731	67.62718283883021	13.749085508709637
O	114.14575654399995	67.88949075126162	17.048562505612324
O	112.59057641540849	67.1941994108868	14.737037566942172
