90

O	4.274345578734263	-1.9055987927590161	-2.1048482614754094
O	4.854504568734262	1.2231723132409837	-0.8103156551754094
O	2.606295308734262	-0.6616720727590163	-1.1448575464754094
O	-1.5424455912657375	-1.0207684427590165	-0.8023676974754094
O	4.129774868734263	0.7410321849409837	-2.008410071475409
O	3.0517281787342623	1.5672670572409837	-2.263455141475409
O	5.348232918734262	0.6097338422409836	-2.817736721475409
O	0.9845197387342622	3.765342297240984	0.06679600552459064
O	3.7789872287342625	-0.6910981027590163	-1.6718625334754094
O	2.008978018734262	1.8309049672409836	-0.34139607847540937
O	3.231161708734262	-2.8143407127590163	-2.5843815714754093
O	-2.564149121265738	2.2490698572409835	-0.3577480144754093
O	2.455699998734262	-2.8321256327590163	-1.2555328414754094
O	-3.255380741265738	2.3916716272409837	1.2187296085245904
O	2.228645408734262	2.4227869872409835	-1.5644674834754093
O	0.8025296087342623	2.7620012772409837	-1.7624508604754094
O	0.35863496573426223	4.019182847240984	-1.1366359124754093
O	0.7776030787342622	2.2893793372409834	0.018675220524590697
O	-0.4041854953657377	1.5199852342409836	-0.03156809847540931
O	-1.5953866812657376	1.1355587742409836	-0.5750519474754093
O	-2.063983401265738	2.9370912872409836	0.5130745085245906
O	-1.0328905912657378	2.0790887872409836	1.0071467785245907
O	-0.9930450102657378	0.5311452872409836	0.8103136685245907
O	-2.2651194212657377	0.044181158240983676	0.5422420485245906
O	-3.229077591265738	1.1356933862409837	0.9362771985245907
O	3.247644988734262	-2.8208805927590164	-0.15476036347540933
O	1.1523657287342624	-2.6163835927590164	-1.2172707564754093
O	2.292522598734262	-4.268448302759016	-1.2632679354754093
O	-0.07850092326573777	1.5728765142409835	-1.8726174914754092
O	-6.311836141265738	4.971516887240984	-12.974918841475409
O	-0.9603864122657377	6.879659637240984	-10.756837771475409
O	1.3014345887342622	3.9632391172409838	-10.134801351475408
O	2.1930206887342623	3.8724614072409835	-6.454129271475409
O	4.844714778734262	1.1317096002409837	-6.60545301147541
O	6.056820478734262	-2.4346256227590164	-7.250707921475409
O	7.2797275887342625	-5.112128932759016	-4.704163461475409
O	7.219298598734262	-8.924053652759016	-4.20587240147541
O	5.479929598734262	-9.686449612759017	-7.62674000147541
O	2.6378575587342623	-7.2105997127590165	-6.73993460147541
O	1.946481528734262	-3.7310043227590164	-8.048343191475409
O	-0.18383060226573775	-0.9728718627590164	-6.459670451475409
O	-2.112782361265738	1.9007466172409835	-8.19862079147541
O	-3.964139011265738	4.989976387240984	-6.963815591475409
O	-7.4057620612657376	4.845548517240983	-8.576999751475409
O	-9.760069541265738	7.490278067240983	-4.221706031475409
O	-8.533092151265738	3.957057477240984	-3.3146748414754095
O	-5.334159551265738	1.8821700672409838	-3.5112833014754097
O	-5.510662871265738	-1.0635869627590164	-5.9640640114754095
O	-3.075245791265738	-3.9594986527590166	-5.768880011475409
O	-2.625517171265738	-6.430874972759017	-8.686577031475409
O	-2.6524561412657377	-13.601597612759017	-3.9449343314754093
O	-6.493144651265738	-11.117549612759015	0.2634092085245906
O	-5.970053731265738	-8.763162372759016	4.88452801852459
O	-9.343391071265737	-5.146501842759016	11.502533958524591
O	-3.348968791265738	-2.221447862759016	9.64704725852459
O	-4.4094173912657375	-0.8582894827590163	6.241210138524591
O	-8.121471801265738	-1.3434521627590161	5.52702687852459
O	-9.384509311265736	-3.974036142759016	3.1753690085245907
O	-7.509300351265738	-6.952065792759016	-7.862197131475409
O	-7.261632191265738	-6.113923132759016	-4.107790341475409
O	-8.932979171265737	-2.788004052759016	-3.1783349714754094
O	-7.771402041265738	-0.9269633127590163	-0.1264682914754094
O	-8.118801581265737	2.4451613772409835	1.4935559885245904
O	-5.724022211265738	4.971554197240984	0.20382196852459067
O	-3.3963083412657378	6.380402847240984	2.7753461685245906
O	-2.527869031265738	9.854182577240984	1.6473255085245904
O	0.9506174187342623	10.289411487240983	3.1295356085245905
O	2.4433942187342623	7.228321737240984	1.5069374685245904
O	5.218763668734262	5.119713277240984	3.0382294385245907
O	6.8268982387342625	5.884875567240984	6.368515828524591
O	10.167809178734263	5.362031597240984	4.6360200985245905
O	9.528868788734263	8.332518517240983	2.2418867485245904
O	7.589023428734262	10.451486557240983	4.69819100852459
O	11.019439678734264	14.018511887240983	3.5984047285245904
O	8.705527548734263	-8.487645872759016	5.282088258524591
O	8.724375058734264	-5.897602842759016	8.107089538524592
O	10.535587278734264	-2.8076536527590163	6.724358398524591
O	9.693314378734263	0.9487600862409836	6.79324342852459
O	8.902459198734263	0.6874984175409836	3.0805694985245906
O	5.921859268734262	-1.5427470127590164	4.153412938524591
O	4.570707588734262	0.9116865082409836	6.71832552852459
O	2.1097743287342623	3.6077534872409838	5.532753388524591
O	1.1773541287342622	6.9907315472409834	6.9704247185245904
O	-2.4837661112657377	7.826683107240984	7.3410927485245905
O	-0.36547473105573774	1.3454348922409838	9.451125758524592
O	1.2743896087342623	-1.9082201127590164	8.310591468524592
O	0.41682693773426227	-1.5246247227590164	4.6946138485245905
O	1.3954785287342624	-4.695508532759017	2.7986144085245908
O	0.9733065087342622	-8.461147402759016	3.5311664585245905
O	2.487391928734262	-9.883245612759016	0.31955328852459075
