30

O	119.13036502798776	66.57064026419778	7.729389574198352
O	119.2521799952361	68.39723163860513	10.880589373896617
O	114.26247087916578	65.43151235392959	10.820347858358852
O	118.89099469061178	67.37781681190201	8.924079077060531
O	119.69776428830262	68.1646411957477	9.561849747464557
O	110.84007493508105	66.8266944634619	15.329112340315
O	117.76410812116018	67.40567751171228	9.7650265531312
O	117.41675508812091	68.63401510907924	12.309209338997384
O	117.99266578296326	68.4427209218962	10.975205431576104
O	115.92758834313204	66.90550601523256	12.815265218855735
O	116.56911659089319	67.69273089430077	12.187762829167687
O	116.2983722094545	66.99143840543829	11.005145069128059
O	114.63964941544214	66.9578852844798	13.313148283463153
O	114.06152730184664	65.28488095981709	7.979304395448312
O	114.28050094682523	67.19031672387725	11.939844536180596
O	115.81256649269206	65.51835023861095	8.78590165968191
O	115.11515718549956	66.56862266027348	10.882765360303543
O	113.49470762227179	66.39179129996903	13.98554534178863
O	113.38261072485716	65.84376809712536	9.981286942403138
O	112.20773898448792	65.15389654903959	9.773028636875344
O	114.6819488223315	65.87571033860685	8.982473368043305
O	114.45401080800757	65.40518092013438	6.63275091206568
O	116.02651700218752	65.30553691111369	6.428285651959323
O	116.4759687346457	64.9756029136372	7.548535620647687
O	112.19696325990276	66.01865866553037	13.324116840033666
O	111.00256291069263	66.15997180333297	14.178031800170452
O	112.04755327873991	67.0641102197479	15.948276020721487
O	113.03890080614518	66.20872152573304	15.272806496819463
O	115.64368808259508	64.31426222595789	5.553866146155855
O	113.14121185251783	67.82450524017553	12.160993794656996
