35

O	113.25316007910521	65.64288577125097	14.599018602092254
O	114.65736934538462	65.86143380240644	13.945788411827479
O	113.27753142180525	63.78011828336937	7.204081715783065
O	112.56728021854192	65.8360641702151	8.03710893569551
O	117.51945713991435	66.93451267531086	10.099536355032976
O	113.02574977366366	67.01075846603669	14.944453841442545
O	113.88473389840934	64.55178243174734	9.151779591255226
O	112.21611676555972	64.75188179880317	7.1103478818008545
O	114.57262439023681	64.33403815416477	7.786448737281346
O	113.79301986849217	66.06340824821167	8.830082106187072
O	115.31546039234345	67.17600524153	13.995931584877988
O	118.25852314323845	67.37403620536303	8.903261727055778
O	117.64451633752968	68.02347126143258	11.073708035956967
O	115.88006244017927	67.47400086025623	12.60162679139771
O	113.7716262030796	66.69078328809319	12.11169190337867
O	111.3294212381913	64.58196152605126	9.662154020584058
O	111.2256027608129	66.20642836034875	12.370901344629223
O	112.48044616999756	64.83606859604896	11.682948354339874
O	110.1508589959686	65.343210974437	11.71188311412861
O	111.32049482687052	63.9202825292497	11.857753472501969
O	118.50667796496526	66.60791496575278	7.711893237142813
O	110.3745477189185	64.10995002156913	6.019037055825293
O	112.52494817408561	64.15701059485873	9.28844875314656
O	118.96338797665749	68.46402721145597	10.847364511561814
O	115.08817693130976	66.71753141687977	11.70178517550952
O	113.58701743445732	67.68666573070331	12.995147029640684
O	119.34898704265512	68.10356996903714	9.562066308384875
O	114.05597156545784	67.78504692760549	14.275791225384257
O	112.62596796534177	66.07068068218409	12.234095332705222
O	110.47266332439897	64.21275573334799	10.739870561007757
O	117.05246831121521	68.0699450449045	12.325707428770233
O	111.47888269491149	65.96701711025186	10.032531191158053
O	110.87914038331562	64.2614142313811	7.298443033668731
O	115.71943661904986	65.05151014895083	7.587375272758894
O	115.12989075159382	66.34661428064899	8.80689358298136
