86

O	3.5786932437303274	1.3087296486885238	1.5901247702622958
O	4.219542733730328	-0.02096041231147605	1.1616538202622957
O	4.849081903730328	0.1957850746885239	-0.14160638073770426
O	3.829648193730327	-0.017105889311476052	-1.1595096677377044
O	2.8437574937303274	0.8348223109885239	-0.48651769643770426
O	2.022163733730327	-0.057266445311476066	0.22391200526229577
O	2.9300646737303273	-0.8098736663114761	0.9316683802622958
O	2.7683508037303275	-1.4157041863114759	2.1558722202622955
O	3.952826263730327	-2.170008866311476	2.6035716302622958
O	1.5720270037303274	-1.6962985263114763	2.6977672702622955
O	0.4578147167303274	-1.3429385563114762	2.0699850702622955
O	-0.19191748436967254	-0.344178786311476	1.4350674002622958
O	-1.5215404862696724	-0.6843044563114762	1.1585106602622959
O	-1.4097980562696726	-1.9958223863114761	1.5241806002622957
O	-0.6646908602696726	-2.210104716311476	2.5537688702622954
O	-0.8301120722696727	-2.699164706311476	3.751342180262296
O	0.36171429273032746	-2.837721496311476	4.422871390262295
O	1.4607041537303276	-2.424928596311476	3.7975712702622957
O	2.4033887837303274	1.978545883688524	-0.9362731657377044
O	1.3624285537303276	2.060764683688524	-1.6113766197377042
O	3.592197253730327	2.389842083688524	-1.4411059097377041
O	3.7936305437303273	2.203967243688524	-2.8376137297377046
O	5.232084433730328	1.9162912336885238	-2.9125486097377045
O	5.804778743730328	2.8161355236885237	-1.8874566197377043
O	4.722050383730328	2.961986613688524	-0.8901362997377043
O	-0.35721783746967256	7.155115693688524	13.483378920262295
O	4.172133533730328	3.533768313688524	11.562435520262296
O	5.481581393730328	4.581536483688524	8.199447010262295
O	4.858002303730328	1.804896180688524	5.546821840262296
O	6.810681103730328	3.274706943688524	2.7222965702622957
O	7.438637753730328	6.049280993688525	0.28197201726229576
O	7.249537433730327	5.845535623688525	-3.5735282997377045
O	6.365431293730328	8.057848683688524	-6.593587829737705
O	5.7423312437303276	11.306280323688524	-4.514723769737705
O	3.2856469137303272	9.366136263688524	-2.2366807797377044
O	3.7519969037303276	8.041577193688523	1.2716365602622959
O	1.8172772037303273	5.433058163688523	3.1591850302622957
O	1.2544551637303274	5.074465013688524	6.914177190262295
O	-0.29349611261967257	2.409959373688524	9.120042450262295
O	-2.9335283662696727	4.1529694936885235	11.246264020262295
O	-6.0809093562696725	-0.5116108863114761	11.485396020262296
O	-6.003706686269672	1.0014607516885239	7.939439910262296
O	-3.431456706269673	2.152348243688524	5.379791910262296
O	-3.2830885162696726	5.823685913688523	4.695534480262295
O	-1.7063330762696725	7.344165703688525	1.642933210262296
O	-0.7539663382696726	11.041508623688525	1.3968879702622958
O	-3.7269627562696725	12.251994123688524	-6.582241209737704
O	-8.244150566269672	8.000752963688523	-5.838596529737704
O	-8.809327566269673	2.959545973688524	-7.020603989737705
O	-13.495704856269672	-3.895780406311476	-7.148400439737705
O	-6.758626736269672	-5.233463446311475	-6.079618519737704
O	-6.421846656269672	-3.5067342563114763	-2.7128994597377045
O	-9.742594406269673	-2.1871496963114763	-1.2914099977377043
O	-10.555880556269672	1.4800574916885239	-1.3263162277377043
O	-5.645264526269672	11.362814123688525	2.2945138002622953
O	-6.517842486269672	7.998611503688524	0.6276800502622957
O	-7.767227616269672	5.353218213688525	3.1098421002622954
O	-7.364733946269673	1.7166253636885238	2.2235159402622955
O	-7.659317826269672	-1.679090316311476	3.896136330262296
O	-4.392802676269672	-2.704829066311476	5.677974380262295
O	-2.8544188262696726	-5.906317766311476	4.279575650262296
O	-0.9746169702696725	-7.526499436311475	7.162199310262295
O	1.8237354637303274	-9.329253976311476	5.277811710262296
O	3.1868448137303274	-6.260718276311476	3.5120695102622954
O	4.822861353730327	-6.146560616311476	0.05926832826229572
O	5.325168963730328	-9.381259276311475	-1.9293628397377043
O	8.885679743730329	-8.235503216311475	-2.5212262097377045
O	9.622136373730328	-8.427453406311475	1.2733195302622957
O	7.409309553730328	-11.410044676311475	2.0225377802622955
O	11.607914243730328	-13.483773276311476	3.979623450262295
O	4.588900093730328	0.580582066688524	-12.416698379737705
O	4.1695267337303275	-3.224095486311476	-12.188859479737705
O	6.905845743730327	-4.446150536311476	-9.789718679737705
O	6.867115883730328	-6.834775286311476	-6.794472009737705
O	7.314426093730328	-3.7964933863114765	-4.507337779737704
O	3.7980792237303276	-2.734528876311476	-5.647002779737704
O	2.1739756237303274	-6.045992076311476	-4.851844979737704
O	0.8400651737303275	-6.620052936311476	-1.3457519997377043
O	0.12920965373032745	-9.856790676311476	0.5278857052622958
O	-3.2287379362696726	-10.255225876311476	2.2102246402622954
O	-3.2203386662696727	-7.814299526311476	-4.497159069737704
O	-1.9598655162696725	-4.996124456311476	-6.686690689737705
O	-1.4225754062696725	-2.4511186863114762	-3.9382112297377043
O	-0.5570118272696726	0.8527274926885239	-5.497392809737704
O	-1.8395172962696724	2.895923883688524	-8.422316689737704
O	0.3045616407303275	5.998532623688524	-8.229166169737704
