72

O	0.7267351850862066	2.2019116354999997	2.439437987913793
O	0.07461044808620665	1.5763211954999996	1.442446307913793
O	1.2552949950862065	3.3927102854999998	4.666086377913793
O	0.5497750750862066	0.6728969284999997	0.360849227913793
O	0.47837153908620667	-1.0446726245000002	-1.139766602086207
O	-0.6732953359137933	1.7778249554999996	4.4593252279137925
O	-0.2306733709137933	-0.3572177805000003	-0.27756545208620703
O	1.855075935086207	-0.6450032145000002	-1.036477272086207
O	1.856257725086207	0.4236857324999997	-0.20392360608620705
O	-1.4312757559137932	-0.4360569445000002	0.630947238913793
O	-0.5919740709137933	-0.12101406250000035	1.815134217913793
O	-1.2202973089137932	1.2458908894999996	2.154649717913793
O	-1.1633988739137933	3.9914105255	3.804474917913793
O	0.1784304350862067	2.8477716655	3.860149607913793
O	-2.1786084549137934	6.6611233555	-14.599925092086206
O	-0.8692968129137933	8.367009765499999	-11.447560692086206
O	2.785468805086207	7.6340175955	-10.534974592086206
O	3.3026258650862066	8.659604005499999	-6.944493132086207
O	1.643396465086207	9.316388155499999	-3.628898152086207
O	2.452382895086207	6.4513136555	-1.2627948520862071
O	1.0721150950862066	7.8849738355	1.915612557913793
O	-1.8341337049137931	8.986223205499998	4.031846547913793
O	-3.299918544913793	7.3455928455	7.175586837913793
O	-6.689049414913793	7.1664483755	9.004440567913793
O	-7.371742794913793	7.2369399955	3.5417668879137927
O	-4.805572344913793	8.107336715499999	0.899899308913793
O	-2.9478841749137934	5.7407985055	-1.376297392086207
O	-1.2893468429137933	6.1326594155	-4.7651542920862076
O	0.9418933050862067	4.0316768555	-7.003113102086207
O	-0.7657926379137934	3.9358804055	-10.448072692086207
O	-0.3044794189137933	2.0594205154999994	-13.703554492086207
O	1.3902448150862066	-1.1467721845000003	-11.594547392086206
O	-1.2211212089137935	-1.2939820245000002	-8.756108252086205
O	-1.9919723549137935	0.43930723149999973	-5.5106326420862075
O	-5.038640454913793	2.6737914755	-5.328053752086207
O	-6.679865984913794	3.7455660654999994	-2.079955832086207
O	-9.169156594913794	6.6289297855	-1.851681762086207
O	-4.157221494913793	-15.3717177745	2.5154568279137925
O	-2.6874159149137933	-10.314846674500002	3.5556490679137926
O	-2.4408649949137935	-7.8392137145000005	0.684730621913793
O	-4.467780424913793	-8.8852770045	-2.4056452420862073
O	-7.710001044913793	-7.1756813045	-3.267279572086207
O	-11.411126654913794	3.6641198655	-5.177037892086207
O	-9.961590354913794	0.38597017749999973	-3.771151832086207
O	-7.509096934913793	-1.3516453345000004	-6.172516682086207
O	-4.862076594913793	-3.6265004945	-4.698650202086207
O	-1.6589940049137932	-5.3971579445	-5.734601872086207
O	1.4349506450862068	-3.1688572945000004	-5.431092002086207
O	4.037906845086207	-4.5157678645	-3.0118456420862074
O	7.3685174850862065	-3.2331891445000007	-4.2485323120862075
O	9.316316745086207	-3.0293357245	-0.9906282520862071
O	7.0387875450862065	-0.7216289145000003	0.800131255913793
O	6.274308385086207	-0.7141097145000004	4.602859287913793
O	8.125437075086205	-3.0008982045000003	6.932970017913793
O	8.721063875086205	0.037108272499999706	9.137341687913795
O	10.761541545086207	1.7618491854999998	6.3375247379137924
O	12.309228545086206	-1.3999329045000004	4.915173247913793
O	13.629134645086205	-2.5963850445000007	8.311660317913793
O	1.8281757750862067	-1.4373490145000003	13.823030507913794
O	4.923135445086206	-1.9988083545000002	11.582745007913793
O	3.746318785086207	0.9813982224999998	9.505028397913794
O	0.7223909850862066	-1.2543982245000003	8.545155497913793
O	2.847952805086207	-4.2687773545	7.451994957913793
O	4.104228775086207	-4.3353209745	3.7977533279137927
O	7.018482405086207	-6.1909907245	2.2113870479137927
O	6.381567385086207	-8.2327352245	-0.919590894086207
O	1.6800136150862066	-8.9496457945	4.420523777913793
O	-0.7942449699137933	-7.0597120145000005	6.594685027913793
O	-1.3723738679137933	-4.2398277645	4.212305337913793
O	-4.081462874913793	-1.8586357445000001	5.558206127913793
O	-7.590022054913793	-2.5167812545000006	7.072853107913793
O	-8.696732624913794	1.0904342244999996	7.526072607913793
