86

O	-6.4106037463518515	4.816871186103705	0.4152120904962955
O	-1.5737274693518515	0.5947087661037049	-3.2997899895037044
O	-5.931206546351852	4.094886546103705	-2.098767383503705
O	-1.1338578653518516	1.553735110103705	-1.5201653185037047
O	-1.2396101773518515	-0.4326773638962951	-2.3377004955037046
O	-4.104063666351852	4.957688616103705	-0.7735558295037046
O	-1.5636597973518516	2.678956928103705	-2.7144724295037044
O	0.49776219364814844	-0.3542468838962949	-2.0636331895037046
O	-4.812641546351852	5.837215096103705	-6.497713859503705
O	-3.1058287563518516	2.654391763103705	-2.6344676545037045
O	0.6562005836481486	-0.2917956638962951	-4.207017889503705
O	-2.841765766351852	1.286900848103705	-2.9230359295037047
O	-3.3855736363518516	3.595700896103705	-6.0065232395037045
O	-0.3436142963518516	0.8771692431037049	-2.6545779735037045
O	-0.016956006351851682	-0.8919030938962951	-3.2041919795037046
O	0.010107713648148442	0.614614136103705	-4.959348439503705
O	-0.022456156351851497	1.9802371991037049	-5.178008799503704
O	-1.0578968493518515	2.9550491761037048	-5.314341099503705
O	-2.385274011351852	2.715442002103705	-5.838480999503704
O	-2.2237460433518517	1.319821171103705	-6.0528108895037045
O	-1.0299736703518516	0.5325287561037049	-5.891381769503704
O	-4.473894786351852	3.952972166103705	-5.175131859503705
O	-4.854546856351852	5.401716346103705	-5.181035869503704
O	-5.061411916351851	4.7398595461037045	-7.301829319503705
O	-3.8123397363518516	3.918452326103705	-7.3668310595037045
O	-2.1370796433518517	1.593077836103705	-0.7372274795037046
O	-2.7317797003518516	2.929878676103705	-0.3076530595037046
O	-3.6199667163518514	2.943864676103705	0.9341527904962954
O	-4.928460836351851	2.634346724103705	0.20646184049629546
O	-4.524579086351851	1.223028647103705	0.1501348804962952
O	-3.1331074063518516	0.7748177621037049	0.00021498049629542493
O	-5.063887496351851	3.775439226103705	-1.0288905765037046
O	-6.863029276351851	-11.095258083896294	-7.725387579503705
O	-5.436624186351851	-8.344927883896295	-9.974211139503705
O	-6.958689826351852	-5.1605793838962954	-8.668647749503704
O	-8.291820986351851	-3.2030610438962954	-5.730891379503705
O	-5.761639186351852	-0.9230874438962953	-4.361738639503705
O	-7.889663416351851	0.7952261171037049	-1.9308607008037046
O	-9.934533506351851	1.164173257103705	1.3664898204962952
O	-9.12483540635185	2.995955766103705	4.689233780496295
O	-9.916996256351853	2.545403903103705	8.464882000496296
O	-9.404133686351852	-2.3592595938962955	5.985191890496295
O	-9.197966936351852	-3.047282153896295	2.261124010496295
O	-6.107536206351851	-3.867273233896295	0.16203787049629548
O	-5.768323476351851	-5.867277723896295	-3.1544151895037045
O	-2.9022857463518514	-6.453094883896296	-5.596153489503704
O	-2.7137939693518516	-10.226678683896294	-6.0886449495037045
O	1.9375744336481486	-9.188149683896295	-3.401344079503705
O	-0.32806401635185156	-6.913706073896296	-1.4602867645037045
O	-3.2128374163518516	-8.317712883896295	0.4139158004962955
O	-5.097889286351851	-6.641366083896295	3.239894870496295
O	-8.485022146351852	-7.786134433896295	4.529496170496295
O	11.461777143648147	1.803417377503705	6.0724309804962955
O	8.573572943648148	-0.3926871038962949	7.149858300496295
O	6.638984123648148	-2.4820805638962957	4.647866380496295
O	7.544954073648148	-6.175381523896295	4.733742330496296
O	-5.764440256351852	-11.879930483896294	5.207333290496295
O	-2.4568719803518517	-10.007990783896295	5.734654170496295
O	0.11591870364814838	-10.647045983896295	2.966950800496295
O	2.7173873936481487	-7.980541753896296	2.3197417804962948
O	5.362818013648148	-7.136648983896296	-0.2640576095037046
O	3.9114945036481488	-4.9940362438962955	-3.101858389503705
O	5.543158233648148	-1.6089368338962953	-3.4440298695037046
O	5.357900923648149	-0.6760261438962949	-7.141729819503705
O	5.429879183648149	3.127743156103705	-6.899522689503705
O	2.4838036736481484	3.389080436103705	-4.607897989503704
O	1.7913222236481485	6.175564936103704	-1.9391746830037047
O	4.108865003648148	8.943660216103705	-1.4097123545037045
O	1.0566538836481483	11.261807596103706	-1.4478411755037046
O	0.22441717364814862	10.252590306103706	-5.103783399503705
O	3.8747301036481487	9.826660756103706	-6.243301359503705
O	4.858306173648149	13.269736516103706	-4.991004459503705
O	2.5807118136481484	13.059856816103705	-9.921204799503705
O	-0.002809056351851469	10.855939626103705	6.9447980704962955
O	1.7791069936481483	10.849810076103706	3.4836210204962947
O	-1.1509810163518517	8.784915586103706	2.395822460496295
O	0.054548653648148315	5.8774665561037045	4.602641740496296
O	3.6817971036481487	6.101017976103705	3.2969695404962955
O	4.680830563648149	3.9368923061037053	0.28431730049629533
O	7.408148753648147	4.235538116103705	-2.3177869655037044
O	9.532697943648149	1.192788440103705	-3.0156761195037047
O	8.264170443648148	2.838536356103705	3.8341592604962953
O	5.516208723648148	3.245747216103705	6.430659570496296
O	2.9510448736481485	1.122490376103705	4.672620920496295
O	-0.14354412635185154	0.7846577721037049	6.855289150496295
O	3.471547593648148	14.939478116103706	7.195420060496295
