83

O	-0.4033150854444444	-1.8697706188759255	-0.23042409062962965
O	0.8437783345555556	-1.2432803788759255	-1.8711998276296296
O	-2.0126972854444443	-0.7569802668759256	2.2934881823703703
O	0.8420854045555557	-2.1086652188759256	-0.8998139121296297
O	-0.7955901284444443	-0.5788824358759256	-0.9244718306296297
O	0.027356227555555612	-0.11852020067592553	-1.6018135146296295
O	-1.6881874354444444	0.14522402412407448	-0.014493922629629674
O	-1.2285683854444445	1.1054424811240746	-0.8657524660296296
O	0.3452331655555556	0.9621825511240744	-1.0455783906296297
O	1.2089148345555556	0.12115267212407446	-0.6067292656296297
O	1.9065038545555557	-1.2398450788759254	-2.68802295762963
O	2.8930341645555555	-2.1357070288759252	-2.5854450476296296
O	3.3224631945555556	-2.0497224388759254	-1.2663165916296295
O	2.0616250145555552	-2.4383069388759253	-0.5894801796296296
O	-2.2535716954444447	-0.6483197898759255	1.0240792623703703
O	1.1416538245555556	-0.7027472818759256	0.6723521823703704
O	1.1577068545555556	-1.5078682588759253	1.7312283123703702
O	0.4589455295555557	-2.5708238088759257	2.3936409523703706
O	0.8146722975555556	-3.9957719188759255	2.1014510123703705
O	2.0905812345555552	-4.320136608875926	2.8217908623703702
O	3.025835094555555	-3.3180578488759256	2.2100629423703704
O	2.4597019445555555	-1.9817541988759255	2.2732632323703705
O	-2.2605400954444446	-2.1612884788759255	0.9511888423703703
O	4.641282754555556	-2.6738630788759257	-1.0758498866296295
O	5.6209256145555555	-1.9579666688759254	-1.8835931376296295
O	6.520885434555556	-2.7918979988759256	-2.3754714676296294
O	6.479647184555556	-3.7762134988759253	-1.4749733866296295
O	5.1462987845555555	-3.9133601188759255	-1.2183163996296296
O	7.641193704555556	-2.5855253388759256	-3.27414512762963
O	-4.330681875444444	-7.864304638875926	-12.023713577629628
O	-0.8570488224444444	-6.246023748875926	-12.357322877629631
O	1.1673931245555556	-7.4456558388759255	-9.40851091762963
O	1.1031535145555555	-8.667714448875925	-5.80372670762963
O	2.0172581145555553	-5.855917108875926	-3.42589977762963
O	2.2119290745555555	-7.574485878875926	-0.04059534162962963
O	0.7968176375555557	-9.723093368875926	2.6361896423703706
O	0.31845025055555565	-8.807700878875925	6.32227408237037
O	-2.1310926454444443	-9.611304508875925	9.198285422370372
O	-4.733889015444444	-9.517891158875926	4.31995308237037
O	-3.2216247354444447	-9.449114838875927	0.8696027123703705
O	-2.9922631454444444	-6.571139628875926	-1.5309511926296295
O	-2.6439654854444448	-6.277040898875926	-5.32934255762963
O	-1.9751944954444443	-3.5166080988759254	-7.861870567629629
O	-4.822291795444444	-3.6365751588759254	-10.42168499762963
O	-5.739832295444444	1.1702213811240745	-7.85968180762963
O	-4.811338055444444	-0.9514790128759255	-4.911328757629629
O	-6.930551635444444	-3.9221093588759253	-3.9714650176296296
O	-6.986366065444444	-5.613277818875926	-0.5734796036296297
O	-8.519910945444444	-9.065024908875927	0.05466738337037036
O	-2.3487544854444447	11.634684881124073	5.72707815237037
O	-4.613326505444444	8.592229391124073	5.51999763237037
O	-4.860233295444444	6.473169261124074	2.3499211823703705
O	-8.048277135444444	7.123978231124074	0.3103543823703703
O	-12.437392725444445	-6.627306458875926	-1.8002912776296296
O	-11.352036825444443	-3.1790379888759253	-0.5019518986296296
O	-10.446441725444444	-0.7018655538759255	-3.30578839762963
O	-8.065866865444445	2.1332861411240747	-2.52528114762963
O	-5.995566655444444	4.811407361124074	-4.3398437376296295
O	-2.5140638154444446	3.3781020311240746	-5.24091039762963
O	0.3754319875555556	5.159450121124074	-3.72071438762963
O	3.0784986945555555	5.1224100011240745	-6.289330387629629
O	6.182435874555556	5.275838251124074	-4.06658766762963
O	5.248467444555556	2.1584679611240745	-1.9214254276296296
O	6.161313304555556	1.9658257311240748	1.8168070523703705
O	8.126783274555557	4.536046471124074	3.7324067423703706
O	10.222914174555555	1.6598514611240744	5.1228277523703705
O	11.402809574555556	0.6805159921240744	1.5400300923703703
O	11.453277874555555	4.183830661124074	0.1035411373703704
O	13.641342274555555	5.535957321124074	2.9615502523703703
O	16.239191574555555	3.0959869111240748	-1.1457572956296296
O	5.335897324555556	0.6569769421240744	11.91084892237037
O	7.1503840445555555	2.2505738611240744	8.91264961237037
O	6.073330914555556	-0.8042914728759255	6.91732261237037
O	2.4490284045555555	0.4171559251240744	7.215211792370371
O	3.2268612845555555	4.081961851124074	6.17958572237037
O	3.0565539445555556	4.969505921124074	2.4434320123703706
O	4.573151894555556	7.521506991124074	0.18945763237037028
O	2.3173732845555555	9.421279151124073	-2.15520208762963
O	3.1964254445555556	10.303939181124074	3.4435344023703705
O	-0.037906913444444384	8.523660291124074	4.624664292370371
O	-0.9999536984444444	5.780984971124074	7.11615917237037
O	-1.6457324554444444	3.0592382211240747	4.63574185237037
O	-3.0648701954444446	-0.049080092575925535	6.35856308237037
