25

O	112.90190337620533	64.28053898985887	9.619784476702751
O	111.5260002434333	64.08477160589169	8.9615668330112
O	111.4755630342471	63.58315504705921	7.682180914069318
O	112.5131707217113	64.39456347191337	7.12196267593589
O	113.04227081594493	65.62117750583212	7.876440286816821
O	113.93543128232176	65.21731793505417	8.981814647924132
O	114.61337968364954	66.13068267420354	9.847031946190633
O	113.63705207094497	66.79529726646311	10.304589695887838
O	114.2227234472593	67.57917270719717	11.42052924483664
O	115.6888863711809	67.58949845307217	11.320449591840934
O	116.86678163720498	68.21700228374445	11.84536821255849
O	118.0176449640025	68.24600347900154	11.011096022554193
O	118.03540161819706	67.61593893787007	9.897233633596318
O	119.03288309311975	67.5391563293732	8.908996012586229
O	118.36285770441016	67.01774346005524	7.78166598796671
O	117.09144675113393	66.68730532774632	8.045957765847696
O	116.95720483141609	66.70582618413707	9.48136834390162
O	115.67293860693262	66.89068967136424	10.19330198716935
O	110.92795795989105	62.72536459821509	6.860463907094663
O	112.1770014127728	62.289517304633655	6.110338651197498
O	113.24566050771737	61.80147049903638	6.871466382632073
O	114.10136877960227	61.05241846730864	6.064888266274773
O	114.27945083069866	61.3465126160702	4.730985166777234
O	113.39221018787687	62.236098671571604	4.190107049808471
O	112.65319109655084	63.05794878752987	5.044987299107868
