85

O	1.2430249314035082	-0.19124222892982431	-2.0347804542631582
O	3.012418101403508	-3.4188322339298245	-1.993510144263158
O	2.4612558314035082	-1.4317826139298244	-3.409365745263158
O	-2.0452690385964916	2.123345616070176	-1.7594118822631581
O	1.6212841514035081	-2.6457672839298243	-1.7303347642631581
O	0.8878391214035083	-3.7315366039298246	-1.271560816663158
O	2.031577631403508	-1.3961317139298244	-2.192994978263158
O	-1.4315567045964916	-3.0038305639298244	1.4487503547368419
O	1.6013812614035081	0.9583966710701757	-2.8678055752631577
O	0.1020401954035084	-2.234249513929824	0.041072464736841896
O	3.0621161514035085	0.8508850410701756	-2.993376295263158
O	-3.210651378596492	0.2596299057701757	1.500108114736842
O	-0.1697752575964916	-3.4176599639298244	-0.615791629263158
O	-4.550841428596492	-0.12774322492982434	0.9876643347368421
O	-1.6099035385964915	-3.3255098039298243	-0.656267242263158
O	-2.3301551085964918	-3.5697589439298243	0.5822999247368421
O	-0.9506010165964915	-1.8009567439298242	0.717517694736842
O	-1.3440091035964916	-0.4666303109298243	0.4262781247368419
O	-1.9426774385964918	0.6988166060701757	0.7965417847368419
O	-3.4091409285964915	-0.9797900739298244	1.155820464736842
O	-2.7015015585964917	-0.9588198739298244	-0.049779165263158065
O	-2.2146826985964916	0.07006912307017568	-0.957028758263158
O	-2.9611270385964916	1.1857915770701757	-0.597008030263158
O	-3.978424908596492	0.9449304740701756	0.4602862847368421
O	3.5557585214035083	0.6775899730701757	-4.285538385263158
O	3.525069471403508	2.1640159860701758	-2.7063088952631578
O	3.759371101403508	0.15291391117017566	-2.031577137263158
O	-1.8308785885964918	-2.0172964639298243	-1.293145478363158
O	-10.513592958596492	-6.874053413929824	-9.39748151526316
O	-9.003741708596491	-9.338104543929825	-6.897911485263157
O	-5.2822936085964916	-9.102051933929825	-7.262164085263158
O	-2.3644485785964915	-6.910967393929824	-8.188927405263158
O	-0.7213520415964916	-5.491494683929824	-5.071543215263158
O	2.3632961014035083	-3.8670820239298247	-6.649396665263158
O	3.9667645314035087	-1.4151497839298244	-9.077590615263158
O	6.222669191403509	1.5967034560701756	-8.170413925263158
O	7.043558321403509	5.110964276070176	-9.521694425263158
O	1.7404160214035085	3.8287037360701754	-10.343882095263158
O	0.10542684140350844	0.4533945960701757	-9.811259945263158
O	-2.067130638596492	-0.7223008659298243	-6.966585505263158
O	-4.804272158596492	-3.3881423939298245	-6.950963735263158
O	-6.931138808596491	-5.057772403929824	-4.338728215263158
O	-10.546008858596492	-4.678151163929824	-5.434927015263158
O	-10.297924988596492	-1.4111768439298245	-1.040169657263158
O	-6.914456288596491	-0.5543224559298243	-2.516591665263158
O	-7.069193368596491	1.0325195070701756	-6.014273715263157
O	-4.154455618596492	2.9899551060701755	-7.468112905263157
O	-3.850698818596492	3.7796917260701757	-11.17954598526316
O	-3.8574849885964917	11.132911876070175	10.385133604736842
O	-0.4035411405964916	7.014190126070176	10.485648504736842
O	-1.3046075305964915	7.931605436070176	6.9242364747368415
O	-3.3174730785964917	5.588531856070176	4.682063794736842
O	-6.953313868596491	6.705093476070176	4.307876204736842
O	-8.24176993859649	5.904139436070176	-10.19420026526316
O	-7.402623988596491	6.686720986070176	-6.522700265263158
O	-7.992977648596491	3.977231856070176	-0.542292333263158
O	-8.712115148596492	1.8193678960701756	2.535588714736842
O	-7.028032868596491	-1.5865429339298243	2.2043866047368423
O	-4.485858958596491	-2.3562257839298244	4.847247614736842
O	-4.595686158596491	-6.142643963929824	5.346249624736842
O	-1.0435525315964918	-6.827310923929824	6.508210464736842
O	0.6139452214035085	-5.241684693929824	3.4847899747368425
O	4.013044311403509	-3.4717309539298244	3.551524564736842
O	6.097937141403508	-3.2016096639298244	6.605911224736842
O	9.053082051403507	-4.403717623929824	4.526397604736842
O	7.316006551403508	-7.812595253929824	3.9187265747368425
O	5.581584941403508	-8.057694643929825	7.271064174736842
O	8.818138621403508	-7.457454223929824	9.24522340473684
O	7.898093931403509	-12.556487823929825	7.631355074736843
O	10.630082391403509	7.173164956070176	2.541186984736842
O	11.436777691403508	3.437077746070176	2.5570958747368424
O	9.913785491403507	0.45323083207017567	4.430658204736842
O	8.409360211403508	-0.6776483669298243	1.1213513247368418
O	6.1401947414035085	2.404136946070176	1.2293976647368419
O	5.015122021403509	1.8581274660701756	4.845371054736842
O	1.9241799814035083	-0.2752402699298243	5.477324384736842
O	0.6664703814035083	-2.3757791039298244	8.373898764736841
O	-2.9115469185964917	-1.9587067739298245	9.48694150473684
O	0.8517849714035083	4.001390456070176	8.076103874736841
O	2.7948922214035083	5.874453436070176	5.390542264736842
O	1.1283571514035082	4.335388316070176	2.497982544736842
O	2.2601546014035083	5.942713756070176	-0.761734321263158
O	2.7601138214035084	9.558044996070175	-1.858870579263158
O	3.7475533614035084	9.185943146070175	-5.488884585263158
O	14.258500391403508	3.4384455060701757	7.181357474736843
