84

O	-2.2880411410714285	-2.877315436125	2.662350270434642
O	-2.7016181810714284	-2.5664530061249997	0.44119565243464204
O	-1.0155081868714284	-1.068229166125	2.1777155204346417
O	-2.7770520910714285	-0.9824708561250001	0.43469773043464205
O	-3.9863782510714283	0.49954417787500005	1.6394782304346422
O	-3.3310725210714285	-0.727485176125	1.7819179004346422
O	-1.8870571530714284	3.589199433875	1.6402460604346423
O	-4.514469601071428	-1.600689006125	2.268209850434642
O	-2.1850151210714284	1.575354248875	0.974150970434642
O	-2.1929053810714283	-1.504864746125	2.485448220434642
O	1.9439267889285716	3.299489083875	-0.04722459656535799
O	-1.1968572780714286	-3.402052376125	3.479463450434642
O	0.025974610928571562	4.985444603875	-0.467786769265358
O	-0.2896467110714285	-3.895300686125	2.4015258504346417
O	-3.4908601910714285	1.795897053875	1.2841825704346421
O	-3.9088071910714284	3.061190883875	1.0416780804346422
O	-2.9182557810714282	4.071180963875	1.0759757104346421
O	-1.1730580070714285	2.472308613875	1.211586720434642
O	0.21632250892857152	1.957073773875	0.948396500434642
O	1.5281424589285715	2.024627643875	0.6836035804346421
O	0.8644209989285715	3.928145453875	-0.193215251565358
O	0.3609502389285716	2.596671373875	-0.420795691155358
O	-0.8400787053714285	2.685872773875	-0.136297696565358
O	-1.8309503820714284	3.451573893875	-0.904825604565358
O	-1.2680097390714284	4.849404323875	-0.908816810565358
O	0.26899107892857155	-3.1229274661249997	1.462050790434642
O	-0.8687793760714285	-5.065967386125	1.9145232904346419
O	0.7978546089285715	-4.357894456125	3.156293720434642
O	0.30110815892857146	9.779314083874999	12.425405880434642
O	-4.540712461071428	7.2985138838750006	9.720325680434641
O	-4.317283411071428	3.542500023875	9.569282710434642
O	-4.1969187210714285	2.288098553875	5.983080370434642
O	-4.435203361071428	-1.458287366125	6.6350708504346425
O	-3.186638141071428	-4.734631496125	8.088139460434641
O	-1.9868304410714286	-7.908138736124999	6.204556060434642
O	0.5409447789285714	-10.786325886125	6.663871220434642
O	2.4212773489285717	-6.049489526125	8.804691460434642
O	0.5325954389285715	-2.822396166125	9.35595178043464
O	0.6757508589285716	0.37683374487500004	7.352145340434642
O	-0.04803771807142854	4.005264533875	8.330171970434641
O	-0.3731295880714285	7.327113553875	6.519258450434642
O	1.9820667389285718	9.723847323874999	8.196921830434642
O	4.416202518928571	9.001809533874999	3.3678074204346418
O	3.2979384089285717	5.3943595738750005	3.918256250434642
O	4.847853948928571	3.6942865238750002	6.960661980434642
O	4.904323998928571	-0.08179826912499999	7.431338700434642
O	5.574949658928571	-1.7369879961249999	10.808463880434642
O	13.070985088928571	-4.055140756125	3.392261090434642
O	10.881954088928572	0.284071029875	-11.315173119565358
O	6.916917408928571	-0.970196856125	-7.9269002495653575
O	6.148604488928571	1.2714333128750002	-4.894117459565358
O	9.180884488928571	3.449787953875	-3.999507469565358
O	9.73207578892857	0.996954771875	10.312329080434642
O	9.70893118892857	0.879697726875	6.459842380434642
O	7.531856438928571	4.359060113875	1.388192950434642
O	6.071287558928571	6.920889033875	-0.9999350905653579
O	2.3331173489285715	7.472380973875	-0.424142834905358
O	0.22506773892857146	6.642436133875	-3.567793339565358
O	-2.9639571010714283	8.770627703874998	-3.263354879565358
O	-5.542275741071429	6.514723573875	-4.960135939565358
O	-5.099282361071428	3.5346213138750002	-2.6208673195653582
O	-5.471366731071429	-0.12380368612500003	-3.739711979565358
O	-6.507950441071428	-1.1469024061250002	-7.115719589565358
O	-9.03832635107143	-3.497615556125	-5.5316452995653576
O	-10.892488081071429	-0.509024096125	-3.884896679565358
O	-10.296860141071429	1.965854013875	-6.677023039565357
O	-11.669358611071429	-0.39451733612499995	-9.363519059565359
O	-15.335504311071428	2.528242463875	-6.628455409565357
O	-0.16913244507142844	-11.361967586125001	-6.106341889565358
O	-3.7353536210714284	-10.076870186125001	-5.658601039565358
O	-5.4607946810714285	-6.752069696125	-6.6131954495653575
O	-5.448872661071428	-5.9511887061249995	-2.921258849565358
O	-1.6057853500714285	-5.6878895761249995	-3.107709839565358
O	-1.6053893490714284	-3.399539606125	-6.180060229565358
O	-1.7058994280714286	0.366307202875	-5.677418299565358
O	-2.8489175910714284	3.259229383875	-7.866041539565358
O	-0.5223634690714285	6.205298503875	-8.299022149565358
O	2.3921245189285716	-0.3304580061250001	-8.76507882956536
O	2.9730113389285715	-3.586333876125	-6.901361159565358
O	2.6896871289285715	-2.162099316125	-3.4592479595653582
O	3.4041693289285715	-4.800448076125	-0.826559695565358
O	6.216937198928571	-7.396305626125	-0.597146861565358
O	5.501709298928571	-9.042526766125	2.695117770434642
O	-5.469699991071429	-11.030603386125001	-10.691202019565358
