85

O	0.46286292090384595	-1.1960365669773074	1.9148695167500005
O	-0.8993400720961539	-0.5812321069773074	1.6933558867500005
O	-0.7779529100961539	-0.6008687069773073	0.1529103117500003
O	-1.8086779030961537	-1.7175063469773073	0.37439399475000035
O	-0.9285757550961539	-2.8744964369773074	0.7233791017500003
O	0.496420210903846	-2.5144269869773073	1.2165720367500001
O	-0.7141055080961538	0.5118571500226926	-0.7356225732499997
O	0.5967928609038462	-3.7290051669773074	2.0286180067500004
O	0.519680510903846	-2.9901314569773074	3.2563904967500004
O	1.7398942609038461	-2.4527139269773075	3.2206197267500003
O	-0.7360740080961539	-2.6649061769773077	3.8284524667500004
O	-1.8087881040961538	-2.1187354369773077	3.0873513967500004
O	-3.023923609096154	-2.971012696977308	3.7159559467500003
O	-2.632748271096154	-3.9372192969773074	4.66069351675
O	-1.141092545096154	-3.878623566977308	4.618274646750001
O	0.29968899090384626	1.0426287120226925	-1.6737117432499997
O	-0.04891339909615389	2.0744180430226926	-2.7035066032499997
O	-1.383095190096154	2.6292639430226927	-2.6366301932499994
O	-2.1995983820961538	2.0585663830226926	-1.6118695432499996
O	-1.8437587330961538	1.3310638080226926	-0.42601451324999967
O	-3.575052249096154	2.3412015430226925	-1.3642397832499995
O	-4.204158529096153	1.5642256330226925	-0.3784871012499997
O	-3.6462878290961536	1.0264286830226925	0.8352328437500003
O	-4.209680659096154	0.11593920702269256	1.8097690567500004
O	-5.696579189096154	0.1608785140226926	1.9646756567500003
O	-6.159528899096154	0.3591530910226926	0.5633561437500003
O	-5.656488729096154	1.5133080710226925	-0.2121422478499997
O	-6.297643409096154	-0.9226612469773074	2.6635567267500004
O	-5.853063939096153	-1.3115761669773074	3.92685856675
O	-6.735429849096154	-1.0489814369773074	5.10251201675
O	-8.085734559096153	-1.1984547869773075	4.850035856750001
O	-8.411606409096155	-0.3528263369773075	3.8055412467500003
O	-7.726465879096154	-0.8686457069773075	2.5809985567500004
O	-6.8422617790961535	-5.967375366977308	-11.72020422325
O	-8.950757419096153	-3.2822722569773077	-9.987385073250001
O	-9.042501789096153	-4.264855456977307	-6.35607591325
O	-7.290596349096154	-5.904858876977308	-3.4285466132499995
O	-5.511374609096154	-3.4284425569773074	-1.2719789032499995
O	-4.448052109096154	-5.632887906977308	1.54709385675
O	-2.556072668096154	-8.669326126977307	2.9269250367500006
O	0.40268153090384606	-8.699597316977307	5.48265949675
O	3.598536030903846	-10.657656496977308	6.2869428567500005
O	3.0031083909038463	-13.325480396977307	3.4956220067500006
O	2.608469950903846	-10.539493796977307	0.8369967667500003
O	-0.5469797990961538	-9.290492046977308	-0.9163676482499997
O	-1.0541156810961538	-5.9927149569773075	-2.7672556432499995
O	-3.454111709096154	-5.103857396977308	-5.62751926325
O	-4.466365349096154	-1.8551409069773073	-7.27595883325
O	-4.027857929096154	-2.460282576977307	-11.05986262325
O	-0.06303025909615378	1.2350836100226927	-10.04300594325
O	0.3277640309038461	-0.9280555769773073	-6.99974244325
O	1.3048520709038463	-4.538168876977307	-7.39006269325
O	2.723846540903846	-6.677172176977308	-4.57286061325
O	2.891796000903846	-10.494934296977307	-4.830512263249999
O	9.801682210903847	6.130237803022692	0.5976767787500004
O	7.289195020903847	4.671600153022693	-1.86287211325
O	8.580460710903846	4.552251073022693	-5.42835636325
O	5.509240240903846	-9.185248026977307	-8.835041473250001
O	6.757583740903845	-5.876717116977308	-7.31891868325
O	5.118418960903846	0.4438288470226926	-7.23895107325
O	3.5455473709038463	3.8891622030226927	-7.583653903249999
O	-0.059703749096153835	3.9673855430226928	-6.258842403249999
O	-0.5553544790961538	6.398327023022692	-3.3795904132499994
O	-4.180850559096154	7.525146103022692	-3.57024937325
O	-4.882017659096154	8.273036793022692	0.09568819375000032
O	-3.971580869096154	4.8038470130226925	1.3590624067500001
O	-2.426843391096154	4.059276143022693	4.82932940675
O	-1.8408070230961537	6.7176180930226925	7.3523508067500005
O	-3.5585701690961535	4.453079693022692	9.89339317675
O	-6.880598849096154	4.696454113022693	7.94708150675
O	-6.463208159096154	8.255336273022692	6.707209106750001
O	-11.018709189096153	9.021084343022693	8.821039526749999
O	3.756413610903846	1.0111039980226926	12.36518077675
O	1.199170000903846	3.567557333022693	11.00763907675
O	-0.30253962909615373	0.7005733952426926	9.02060413675
O	2.893752130903846	0.6203188776226926	6.92221687675
O	3.0181961109038458	4.450691573022692	6.26630727675
O	1.2105498609038463	5.787309733022693	3.1692544767500004
O	-0.3205431290961538	9.084376633022693	2.2451821467500004
O	0.5624172909038463	10.589818843022693	-1.1219799682499998
O	5.983262640903846	7.712095573022692	2.6979243067500005
O	7.181008920903846	4.429760953022693	4.2583894967500004
O	5.155299040903846	2.0928145130226925	2.0798923867500005
O	6.080603080903846	-1.5003854669773073	2.8359956967500004
O	4.211548810903846	5.136239733022692	15.79813687675
