20

O	18.824093102297713	13.820334224198309	112.11945273969502
O	17.735518544466697	13.314496991865997	111.47901814282565
O	16.901140516352392	12.31319162482849	111.99009577891852
O	17.094204967844114	12.022196501878032	113.2956953430272
O	18.27416096125986	12.296052224550461	113.87689990916915
O	19.190856384996504	13.001778288680176	113.18587585194035
O	17.57116218202416	13.427236465500156	110.07621049127191
O	18.646646300808975	13.29413872513969	109.06397370061397
O	18.222789016723304	14.253119013234219	108.28254406197733
O	19.11225042712756	15.501261416350687	108.22057999407953
O	18.5514768704015	15.56486056675821	109.59885262596215
O	17.463935788598484	14.945858089964267	110.11051846225648
O	16.11215378873596	11.557263602623607	114.12156909586942
O	16.212268729554598	15.431584276897215	109.43049674896945
O	15.559336175776043	16.660442259753186	109.68450461185672
O	14.73312391782763	17.285840066563395	108.7426733980042
O	15.574912363393334	17.940897959786167	107.65323795710202
O	18.424893027069803	17.043520475020387	109.10589571966646
O	15.221516254226195	14.598986857267862	109.32508144183488
O	17.50880970580999	15.084308350757865	106.9222441787043
