80

O	1.9598599212830186	6.175658644226415	2.140550994433963
O	2.9480879712830186	5.247580484226415	1.727215744433963
O	0.5852062412830186	-2.6500209857735846	0.30004652343396315
O	-0.6633409497169813	1.923775817226415	0.5753155954339632
O	-0.4128715007169814	2.261592379226415	2.6992553944339632
O	-0.2586106267169814	-1.5830744157735848	0.12088048223396315
O	1.8248209412830185	-2.236739435773585	0.6861408294339632
O	0.6671198012830186	2.2709556992264153	0.41458594543396315
O	-1.5767392287169815	2.892001934226415	0.12539257913396315
O	0.9325978312830185	1.8530129652264151	2.616355134433963
O	-1.0258401497169813	3.447943854226415	3.1552870944339633
O	0.0022202032830186402	-0.3181758457735848	0.6771954264339631
O	2.1107669912830187	-0.9483856457735849	1.165858214433963
O	0.7278107212830187	3.6283794742264153	0.7712810044339632
O	-1.3723240337169815	4.234814664226415	0.29032422443396316
O	1.5044292712830187	2.894931204226415	3.319431444433963
O	-0.22209308771698139	4.457476054226415	3.400690424433963
O	1.3169744912830186	0.1734775142264151	0.8224610264339631
O	-0.0784719597169814	4.620894514226415	0.15485791543396316
O	0.9268616912830185	4.0114551442264155	3.911821374433963
O	1.5517510112830184	1.4811601912264152	1.2969370544339631
O	4.118125981283018	5.614492024226415	2.615930844433963
O	5.1656660612830185	5.0678422842264155	2.230648364433963
O	2.7881543612830186	3.875883804226415	1.8844489844339631
O	3.0395916112830186	2.396078774226415	1.103848574433963
O	0.34858849728301866	-4.134624125773584	-0.5665669085660369
O	3.7754177912830187	5.350387244226415	3.908152454433963
O	16.774435761283016	3.006421884226415	-5.015980505566037
O	9.90565966128302	0.08150925422641508	-7.451701655566037
O	8.144653071283019	0.4858419062264151	-4.181632875566036
O	7.488912451283019	4.175539014226415	-5.003566525566036
O	5.660673341283019	3.227155214226415	-8.134949855566038
O	3.707445291283019	0.32134113422641497	-6.4434082655660365
O	2.7609429512830186	1.706052043226415	-3.240822895566037
O	3.9326683312830184	5.410439454226415	-3.528656625566037
O	4.535891111283019	7.4718041142264155	-0.4756761245660368
O	2.791175541283019	10.023743504226415	1.940443064433963
O	2.9613231912830185	13.793113344226414	1.4464152744339631
O	-0.0799526717169814	15.193917344226415	7.397340494433964
O	-4.697438478716982	8.545818764226414	2.082733604433963
O	-2.3975799987169815	11.818017944226415	-1.3647703555660369
O	-0.8449080197169814	12.764605844226415	-4.701796325566036
O	1.9976169712830187	10.505751394226415	-3.654360965566037
O	-0.0625683297169814	7.320584924226415	-3.470727825566037
O	1.1052793112830186	4.657188364226415	-6.0560608055660365
O	-0.6360625827169814	1.824367992226415	-7.769692825566037
O	-1.8248435087169814	-0.3998620757735849	-5.029552305566036
O	-3.739082728716981	2.238575581226415	-3.043650245566037
O	-5.127459758716982	4.087683954226415	-6.075068565566037
O	-6.310947118716982	0.7795760442264151	-7.484538085566037
O	-8.075122908716981	-0.40146724577358484	-4.317158195566036
O	-9.775375798716981	2.980361814226415	-3.929974265566037
O	-10.869106138716981	2.904270964226415	-7.586825955566036
O	0.08836706928301863	-10.114094755773586	0.28537643443396316
O	1.9222594112830187	-13.841302555773586	4.564788304433963
O	2.2347245912830185	-10.102084755773586	5.3738441444339635
O	-1.4839118247169814	-9.683501055773585	6.153216924433964
O	-2.311340188716981	-12.405814455773585	8.685901234433963
O	-13.021137638716981	1.8148588452264152	1.0486738384339631
O	-12.463646838716981	2.6943767942264154	4.733268584433963
O	-11.029386038716982	-0.814853655773585	5.174494724433964
O	-8.325512848716983	-0.5204125857735848	2.560195684433963
O	-6.196038278716982	1.7192092932264151	4.641526314433963
O	-6.048034578716981	-0.3748561357735849	7.811498984433963
O	-5.2586553587169815	-3.4723774657735853	5.742086554433963
O	-2.201788488716981	-1.8066763357735849	4.377876164433964
O	-1.4815621917169812	-0.437300215773585	7.987721524433963
O	-1.2214852797169815	-3.909753755773585	9.090661004433963
O	0.9260858212830185	-5.129659725773585	6.134962444433963
O	3.3258222812830187	-2.256695505773585	6.839624774433964
O	3.5468416012830186	-3.1634720957735847	10.475584284433962
O	4.343396361283019	-6.800777925773586	9.693075414433963
O	6.819229871283019	-5.730463405773586	7.038237534433963
O	8.78744903128302	-4.072012695773585	9.834833634433963
O	6.111369541283018	-9.072273055773586	-2.796883965566037
O	2.8569745812830187	-10.089124755773586	-4.425350915566036
O	-0.17187712571698138	-8.052229545773585	-3.450160615566037
O	0.9731125712830186	-6.202181405773585	-8.107048295566038
O	4.559553451283018	-7.3627773057735855	-7.919436195566036
O	7.392961551283019	-5.336102255773586	-6.454928905566036
