77

O	-5.29747981099434	-0.41001019764905694	-2.326435766262265
O	-4.1698733109943396	-1.0159891126490568	-2.892849156262265
O	-3.65931042099434	1.2699529703509431	-1.8204882862622647
O	-5.0213699009943396	0.9804562343509431	-2.0539236662622646
O	-2.58654699299434	0.46674838635094307	-2.0549379662622647
O	-0.52045413099434	0.9978269223509431	-1.6884411462622646
O	-2.95484127099434	-0.9519134226490569	-2.1663037662622644
O	-4.37277545099434	-5.492833912649057	-1.3018852502622646
O	-6.11112103099434	1.9626504173509431	-2.0704204162622646
O	-3.4896699009943397	2.700003417350943	-1.3924497802622646
O	-1.57460028599434	1.072745841350943	-1.0413872922622645
O	-2.00018082899434	0.19020229685094306	0.058212018737735405
O	-3.4049610709943403	0.36563472625094307	0.2763230407377354
O	-4.35455627099434	-0.704625646649057	0.5674566737377355
O	-4.04449454099434	-1.954964382649057	0.8818145737377355
O	-2.7170980929943402	-1.7968414526490568	1.3208156037377354
O	-1.75802815559434	-0.857119692649057	0.7442891137377353
O	-2.71922699299434	-2.1501978826490573	-1.6915388762622645
O	-3.5814086909943397	-3.2697391626490573	-2.0207196562622647
O	-3.64618699099434	-4.334918712649057	-1.1708337032622644
O	-2.61511252799434	-4.6135782726490575	-0.3128963972622646
O	-1.49428228499434	-3.8451867826490567	-0.6225610332622646
O	-1.52221483899434	-2.764994692649057	-1.4594715582622646
O	-6.75619250099434	-0.8039890926490569	-1.7707440962622645
O	4.42939004900566	-0.2609339286490569	-12.028217336262264
O	1.94351517900566	0.680808973350943	-9.302805226262263
O	0.32542946900566005	-2.763370222649057	-9.625558666262265
O	3.60332544900566	-4.500926342649057	-8.949754846262264
O	4.5744379390056595	-2.0942099426490572	-6.071881836262264
O	1.2510352390056598	-1.544238192649057	-4.229677726262264
O	-1.13388054599434	-3.8854248526490567	-5.942472036262264
O	-4.83244244099434	-3.437664052649057	-5.8251971762622645
O	-8.068555260994339	-4.681163652649057	-4.2257800462622646
O	-10.052340680994341	-7.747467922649057	-4.990348096262264
O	-14.93234304099434	-6.391881942649057	-0.42540011706226455
O	-13.94953464099434	-10.014994472649056	-0.8457383822622646
O	-5.90249299099434	-6.229370242649057	3.196514793737735
O	-3.7645901609943397	-9.151066192649056	4.668881193737736
O	-5.9029787609943405	-9.700647192649056	-0.7678449222622645
O	-4.25514372099434	-11.864092272649057	-3.4863658062622647
O	-3.99073642099434	-8.540341302649056	-5.363068366262264
O	-1.71923533129434	-6.878087512649057	-2.7841535462622646
O	1.7654648790056602	-5.9019927726490575	-4.239664036262265
O	5.26151826900566	-5.473249732649057	-2.7337122062622647
O	4.6288417890056595	-2.607106022649057	-0.3075012292622646
O	1.7536470490056602	-4.095629822649057	1.6521194537377353
O	3.05867010900566	-7.694169842649057	1.6310039937377354
O	6.375078979005659	-6.422493612649057	2.861370413737735
O	4.964582589005659	-4.360242002649057	5.720970583737736
O	2.7697828790056596	-7.236832252649057	6.838450213737736
O	5.679153489005659	-9.664092362649056	6.646733123737736
O	6.57460981900566	8.250037227350944	1.4188627337377353
O	8.58145025900566	10.775926727350944	-0.5241476935622645
O	5.5294774090056595	14.133938627350943	1.7795190037377355
O	2.4763106590056596	11.908907027350944	1.0975363237377356
O	2.15136861900566	10.795628127350943	4.739852513737736
O	0.3031044290056599	-4.656678722649057	11.734215663737736
O	-3.1140076309943403	-3.001416902649057	12.268135463737735
O	-1.37282746899434	0.36341775275094307	11.740948763737736
O	-0.025187310994339907	-0.4219698636490569	8.288100243737736
O	-3.40652273099434	-0.14482067364905693	6.636658593737736
O	-4.36274681099434	3.321649127350943	7.954889903737735
O	-0.95185192599434	4.666698237350943	7.015223863737735
O	-1.46768135099434	3.624697987350943	3.3426438637377354
O	-5.12781573099434	4.811647307350943	3.5635124437377352
O	-3.81964689099434	8.201464217350944	4.410398613737736
O	-1.08892493899434	8.226493287350943	1.7212741937377354
O	-3.7031692909943397	7.249522257350943	-0.8340836332622645
O	-5.98746743099434	9.999392067350945	0.2963111467377354
O	-3.23493018099434	12.621097227350944	-0.014943949262264555
O	-2.23995801199434	11.173353827350944	-3.3721710862622647
O	-5.71024323099434	12.148973027350944	-4.569288756262265
O	9.67623315900566	6.504536557350943	-2.6804325162622646
O	8.14201504900566	4.490846627350943	0.08741583573773537
O	10.386359459005659	0.8666743243509432	-2.8776793062622645
O	10.41016355900566	3.1223366673509427	-5.926543866262264
O	7.5022891590056595	3.4285276173509427	-8.367110526262264
