77

O	-2.972188551207547	-1.4233598619433963	2.493935600018868
O	-3.055850131207547	-0.9629572919433965	1.192744810018868
O	-1.9174163412075471	-0.7821415019433965	0.397278550018868
O	-0.667859421207547	-1.2813986219433966	0.7954755900188681
O	-0.5600493012075471	-1.2919477519433964	2.184761280018868
O	-1.676240429707547	-1.3967582019433964	3.0088927500188682
O	-2.220247548207547	-0.21739089194339656	-0.9081813699811319
O	-3.581718711207547	0.2560259370566035	-1.1397921119811318
O	-3.830658151207547	0.21664536705660353	-2.5315309999811317
O	-2.643813757207547	-0.2632320119433965	-3.1361168999811317
O	-1.907886316207547	-1.0068726619433965	-2.092886109981132
O	-1.943012174207547	0.8228246378566035	-3.801601249981132
O	-1.2358137272075471	0.6035129550566035	-4.951164159981132
O	-1.245628488207547	1.6483082600566035	-5.876362449981132
O	-1.8556601882075472	2.8333894180566035	-5.571560879981132
O	-1.9472358882075471	3.1225198480566037	-4.245723809981132
O	-1.652897211007547	2.0852225080566034	-3.360387579981132
O	-5.139767071207547	0.1811871960566035	-3.039783919981132
O	-5.960713701207547	1.3197390140566034	-3.328646979981132
O	-5.2950322012075475	2.5889673480566033	-3.388687909981132
O	-6.7701467212075475	1.0523917160566034	-4.524369549981132
O	-5.811366621207547	-0.7915018319433965	-2.5783023899811317
O	0.3672796087924528	-1.1081606519433964	-0.03577901598113198
O	-3.635078561207547	-2.619772751943396	2.711868350018868
O	1.6188030787924528	-12.182510611943396	-2.994442369981132
O	-0.4724814412075471	-9.040841131943397	-2.525934589981132
O	0.2915375687924531	-7.959345401943397	-6.0978028299811315
O	4.006278738792453	-8.100121491943396	-5.460639629981132
O	3.759206358792453	-6.4131434219433965	-2.011457909981132
O	1.1899312787924528	-3.740880321943396	-2.6174004099811317
O	0.4698556687924529	-3.864930691943396	-6.322945879981132
O	-2.667159294207547	-2.4658556819433963	-7.823704459981132
O	-3.958485731207547	0.6160104040566035	-9.723571879981131
O	-3.882967841207547	1.0023962620566036	-13.537089169981131
O	-7.629185911207546	6.680108838056603	-13.298503869981133
O	-0.11389922120754714	6.802863458056604	-7.098953189981132
O	3.5736783387924533	7.902691288056603	-7.530173889981132
O	1.346546218792453	3.8676402280566036	-11.266729969981132
O	3.4531229487924526	1.1966936480566035	-13.015118169981132
O	1.2590862387924528	-1.2608791319433963	-11.090666669981132
O	2.335346018792453	-0.05514576894339651	-7.611486499981132
O	4.096050008792453	-2.8079856319433962	-5.597728119981132
O	6.824550408792453	-2.8542767119433963	-2.931446419981132
O	5.020875968792453	-1.0974618619433967	-0.05988290298113197
O	3.904642768792453	2.0721723980566034	-1.945293419981132
O	7.124481208792453	2.3292962880566037	-3.9783119399811318
O	9.232561578792453	1.9341214480566036	-0.8459413609811319
O	7.390951228792453	4.606414758056603	1.145802840018868
O	7.610618158792452	7.011455028056604	-1.763708529981132
O	11.323184878792452	6.291952418056604	-2.141133289981132
O	0.11738436879245295	-2.6121881819433965	9.929297130018869
O	-0.251383381207547	-5.6638194819433965	12.091274630018868
O	-4.265315661207547	-3.0973737819433964	13.961352830018868
O	-5.385623061207547	-2.1192890519433965	10.433952930018869
O	-4.342459941207547	1.5361956680566036	10.791075130018868
O	4.883765138792453	11.784600588056604	0.7417765700188681
O	1.3376864887924529	13.173256288056603	0.41313977001886815
O	0.4495934387924527	11.320159688056604	3.5847962600188676
O	1.4230424987924528	7.872669378056604	2.319900100018868
O	-1.5466148152075472	7.431559698056604	0.12907924301886808
O	-4.230301871207548	8.308920628056603	2.710525360018868
O	-2.598881850207547	6.012544868056604	5.240756000018868
O	-2.940616081207547	3.1304547780566034	2.779824460018868
O	-6.4117687112075465	4.282092028056604	1.8312413900188682
O	-7.394943631207546	3.9521502680566036	5.540752530018868
O	-5.722407281207547	0.4932481130566035	5.886386780018868
O	-7.611101241207548	-0.5930848119433966	2.704994980018868
O	-10.824206731207548	0.6141849530566035	4.134924390018868
O	-10.399935131207547	-1.2312283519433964	7.470171400018868
O	-9.263172271207548	-4.309313301943396	5.548096960018868
O	-12.737492921207547	-4.355757871943396	3.990748830018868
O	-0.11431028120754716	-8.912004701943397	7.284405840018868
O	2.923988438792453	-7.1140584419433965	8.602563910018867
O	3.4336083587924526	-3.6082023519433966	7.365701190018868
O	6.979332268792453	-6.347593691943397	4.643696120018868
O	5.081697178792453	-9.587686211943396	5.144616720018868
O	2.3033074587924527	-10.830875311943396	2.869213080018868
