21

O	17.463472515065106	18.574577947594218	108.82147365072288
O	16.14691301081026	17.68701982824841	107.06846875097527
O	18.961609123828318	13.074954528649016	113.3527435189891
O	17.99775085424945	12.270001961620473	113.84328827579537
O	18.746155714733924	13.873275589843091	112.22949337235345
O	16.743317506781842	12.551076611242587	111.89139579208921
O	15.973484735182803	16.715779435205917	109.29318075904494
O	17.923769237795284	16.292833635303438	107.85617453841475
O	16.340038917791496	15.320702697852278	109.78760372516867
O	20.25274443278489	13.84603148365776	109.0471416640664
O	18.377264344121173	15.040723667948292	108.65466714362695
O	17.707864917186818	14.738411972881782	109.676370006372
O	16.78854816108017	12.26304481282098	113.22635615195524
O	17.792872126261543	13.270743622099001	111.40754204382759
O	18.081212832674687	13.348628766295537	109.98162546847638
O	16.95304141177413	17.26843141952778	108.30894151203775
O	19.82299121200648	15.082514288751181	108.5458088314239
O	19.337093678880006	12.913038838028477	109.51615319648577
O	15.608422031182359	14.266879635410959	109.58073483849333
O	15.737970623586897	11.797252186433107	113.95608517393282
O	21.71526776921354	13.379150274809776	108.32434564800475
