79

O	-0.23764039428301897	0.8464644178301886	5.00070696709849
O	0.28675222771698106	-1.4414400261698115	6.52004006709849
O	2.813824067716981	-3.563644176169811	0.9445275735984906
O	4.111482227716982	-3.961508526169811	1.2651649510984906
O	-0.823925825283019	0.7074126108301886	0.6740256270984906
O	2.365222887716981	-2.334398376169811	1.3464847730984906
O	-2.215693862283019	1.1097061818301885	0.5010021720984906
O	3.7186255977169806	-2.7327096661698116	3.2535783970984906
O	-0.891233625283019	2.3953738938301887	2.1395169770984905
O	0.361405969716981	-0.35632701616981133	4.362992897098491
O	1.0941128277169812	0.8596549738301886	2.2597839070984906
O	2.4667513077169807	-1.3779861761698113	5.19386243709849
O	1.2376576577169809	-0.2437999491698114	3.1982134670984905
O	4.4873018477169815	-3.533181906169811	2.5006176270984906
O	-0.32816404728301896	1.1042588698301885	1.9585911770984907
O	-2.8912455022830192	2.1213629938301883	1.0751668330984907
O	-2.042166842283019	2.9435725138301887	1.7071187880984906
O	2.786642127716981	-1.9424001861698115	2.5887199670984904
O	2.668972077716981	-0.5798894261698113	3.090615717098491
O	3.251261217716981	-0.4733429561698115	4.38483284709849
O	1.150969567716981	-0.9475240161698115	5.40706179709849
O	1.7523545877169808	0.45570866283018857	1.1123014190984906
O	5.743167657716981	-4.055765026169811	2.8199491670984904
O	2.993415527716981	-1.8072428061698116	6.71543260709849
O	-4.136407992283019	2.6069545838301886	1.0600911830984907
O	-2.895190342283019	3.4974172238301886	2.6565065670984906
O	7.993318697716981	9.688734513830187	-1.0992401729015095
O	5.756792687716981	7.311761983830189	0.8743997918784906
O	8.66526607771698	4.851313953830188	1.1879911470984905
O	9.09979362771698	4.682230313830189	-2.5588461929015094
O	5.311123947716982	4.471834313830189	-3.229637742901509
O	4.077180197716982	2.1414853438301886	-0.44040737290150933
O	7.212654067716981	1.0230175648301887	1.2530763940984906
O	7.292161197716982	-0.28940464116981146	4.74437021709849
O	7.539513797716981	-3.560733496169811	6.79670731709849
O	10.53042698771698	-5.599509526169811	7.63008691709849
O	6.936230547716981	-9.921630506169812	11.49736505709849
O	3.398187717716981	-8.834515696169811	2.5007776370984907
O	4.247808557716981	-10.626902906169812	-0.8354607129015094
O	8.609397427716981	-8.023479866169811	2.1645368470984905
O	11.74398068771698	-6.592051106169811	0.5301038560984905
O	10.53036058771698	-3.2577411361698116	1.9496772670984908
O	7.276057987716982	-3.1965981261698113	-0.050471010901509405
O	7.085294197716982	-0.2065732751698114	-2.428771712901509
O	5.420322197716981	0.46299328183018856	-5.82199030290151
O	1.7810919577169808	0.17389522283018854	-4.80869467290151
O	1.818383177716981	-3.2552016761698113	-3.186793082901509
O	4.321953017716981	-4.768190986169811	-5.62890172290151
O	2.204126367716981	-3.511250986169811	-8.49814894290151
O	-1.072854946283019	-4.901302036169811	-7.14576935290151
O	0.5503537977169811	-8.303776136169812	-6.526674112901509
O	2.0781179377169807	-8.314380406169812	-9.99421384290151
O	-7.507123592283019	6.142208133830189	-2.9951232629015094
O	-8.34410870228302	9.779768363830188	-3.5499901129015092
O	-12.03796431228302	8.788671773830188	-0.16645119290150945
O	-9.64272551228302	6.740281593830189	1.9959392770984907
O	-11.15967141228302	3.3682598738301888	1.0233726640984906
O	-4.339603202283019	-11.289848706169812	-4.4274606829015095
O	-5.4414523922830185	-12.093684506169811	-0.8338791529015094
O	-7.717801092283018	-9.027717046169812	-1.0101714929015095
O	-4.946490482283019	-6.534343746169811	-1.7162293929015093
O	-3.510813802283019	-6.507664836169811	1.7838285890984906
O	-6.8346920222830185	-5.775813726169811	3.550744187098491
O	-7.634550202283019	-2.9962708161698117	1.1520581090984905
O	-4.352082082283019	-1.1698952361698114	2.1160560170984906
O	-5.007550952283019	-2.128742196169812	5.71071971709849
O	-8.336364952283018	-0.3184057831698114	5.57348433709849
O	-6.786242842283019	2.7017057138301883	3.6898035070984907
O	-4.059341172283019	2.8791866838301887	6.129551057098491
O	-6.505444292283019	2.728445503830189	9.03618177709849
O	-8.645213612283019	5.569535353830188	7.64092553709849
O	-5.461746482283019	7.488128393830189	6.91314646709849
O	-4.904595602283019	7.473230603830189	10.69881456709849
O	-2.775439112283019	10.896220693830188	-2.294174582901509
O	-3.876873872283019	9.276395963830188	-5.510660512901509
O	-4.006398112283019	5.511061763830189	-5.30478017290151
O	0.269982922716981	6.405241583830189	-8.09073338290151
O	0.691788037716981	9.871566523830188	-6.6336530729015095
O	2.4654763477169808	10.578454093830189	-3.356390292901509
