22

O	19.65322200072802	13.840440081841406	106.12606961326802
O	20.96131975573907	14.307835500257413	110.05220389387681
O	19.784451526599053	15.04898487175655	109.69430079684356
O	19.143916243636703	14.371290887891677	108.63826506734351
O	20.018777630257073	14.889239236124272	107.4690758658476
O	21.383112807104954	14.987405644232823	107.66686364709882
O	21.787437783752978	14.745696529289813	108.92989324428581
O	17.846431103404722	14.929317088321934	108.44947701204559
O	16.539684120619054	15.186080038410118	108.33703076251084
O	15.998469275278927	15.472793427988616	109.6144117545879
O	16.192686276160956	14.211282082843239	110.17560060316734
O	17.467079646996456	13.770212502634884	109.29618882868708
O	16.990088343513285	13.871969050751403	111.35119361838406
O	15.069327472809196	16.428770252392972	110.02741692160359
O	13.710245637106263	16.774412500982702	109.3782891904094
O	14.746675990479371	16.34077686132499	111.28720965595353
O	18.174078622051155	14.207543412951443	111.90142731712396
O	18.947878177806516	13.360121581036976	112.71980319373779
O	18.161775895358563	12.679965484760077	113.58485868079202
O	16.997100782826383	12.171573082397584	113.09621935938435
O	16.60969079805461	12.584792180740102	111.85308828355585
O	16.514833486082573	11.248138459698662	113.98701496001027
