90

O	-1.7732902968113207	-1.913744559922264	-5.192858313264152
O	-2.859484462811321	-1.6002652099222643	-4.3197148032641515
O	-4.079394672811321	-1.7107251799222642	-5.212271443264152
O	0.6952523171886791	-1.0181527299222641	-0.8198468832641517
O	-0.3529448728113207	-0.828456989922264	-1.5631888742641515
O	0.31223043718867927	-0.23490597992226414	-2.8576066612641515
O	-1.8479654158113208	0.37405182807773596	-2.7712010512641516
O	-2.956166222811321	-0.21230284992226411	-3.7215544932641516
O	-2.231242533811321	1.792855840077736	-4.1438290532641515
O	-3.0668637128113208	2.126328700077736	-3.106061023264152
O	-3.5919465328113205	2.739159500077736	-1.8872606552741515
O	-4.844735192811321	2.087089984077736	-1.4390491492641515
O	-0.006056302811320746	-0.31548025992226414	0.06471175673584839
O	-0.29825433281132074	0.948975097077736	-0.5356277832641516
O	0.14263804718867923	1.0856367892777359	-1.9833636662641516
O	-0.46061534281132066	2.123019207077736	-2.2137397862641515
O	-1.4370249798113208	1.097794197677736	-1.9930926882641515
O	-1.4626785928113208	0.14321599907773597	-5.603420673264152
O	-3.9818536328113208	2.8427656300777358	-3.3319434632641514
O	-5.214838462811321	2.0505925820777358	-3.3474485832641516
O	-5.2308559628113205	1.133829839477736	-2.3964594902641516
O	-6.195902342811321	0.11034795007773601	-2.2782681682641517
O	-2.6515366828113205	0.5798284950777359	-4.8464641932641515
O	-0.8288968578113207	0.10652109007773602	-3.5511028432641516
O	-1.6728317031113207	2.5746898200777357	-4.774257543264151
O	-2.331592618811321	1.573659354077736	-0.9320327482641516
O	-1.7463759908113208	0.729294176077736	-6.872596123264152
O	-3.160683232811321	0.6260974690777359	-7.272123943264152
O	-3.128328402811321	-0.5507386699222641	-1.2432665392641515
O	-2.822113082811321	0.37674101107773594	-0.3663055532641515
O	-2.783599522811321	0.2485467760777359	0.9255681267358487
O	-3.883323242811321	-1.489409389922264	-0.7658761332641515
O	-2.972352852811321	-1.9509017499222643	0.14087894673584822
O	-2.6815101628113207	-1.0926959799222642	1.1758359567358485
O	-4.000585182811321	1.3176904400777358	-6.332815223264152
O	-0.42816467281132087	3.078195180077736	-1.2356559312641515
O	2.1447841771886793	-1.497062659922264	0.08215541673584847
O	8.489935157188679	9.090923250077736	-3.9359940932641515
O	5.804190017188679	6.463972780077736	-4.444421983264151
O	3.261829357188679	8.875223130077735	-2.943741293264152
O	5.2227165271886795	9.174020110077736	0.2445914367358486
O	6.084495797188679	5.439592980077736	0.42043344673584837
O	2.7177897471886796	3.840570560077736	-0.7589253432641516
O	0.36053840718867924	6.521487410077736	-1.0818895342641515
O	-2.5746426608113206	6.2537294900777365	-2.9748655832641515
O	-6.22536557281132	6.015477750077736	-2.5256842372641515
O	-8.863348502811322	8.615909320077735	-1.9882207802641516
O	-14.10600584281132	4.489508520077736	-3.0805891732641513
O	-14.501761242811321	6.953948050077736	-0.22614947326415158
O	-12.408037442811322	5.0158473800777355	2.3351918867358488
O	-11.158238212811321	1.638524451077736	3.416990146735848
O	-7.542311892811321	0.9864165780777359	3.2550447467358485
O	-7.14662443281132	1.425080524077736	6.992433176735847
O	-7.422523472811321	6.246391420077735	3.6352275767358484
O	-5.822540902811321	9.646987820077735	4.538822886735849
O	-3.8622483728113206	8.921747080077736	1.3077544767358482
O	-2.2991134918113207	5.510117650077737	2.184742266735848
O	1.5306216771886791	6.203164010077735	2.5888733067358483
O	4.252388527188679	4.722483970077736	4.789488306735848
O	4.12901956718868	1.138718628957736	3.787745566735848
O	0.15365245718867926	0.6193830440777359	4.257056616735849
O	0.1926529471886793	2.538272250077736	7.418546526735849
O	3.163298297188679	0.6951591150777359	8.816021896735847
O	1.846159417188679	-2.816748769922264	8.148721896735848
O	-1.4792713088113207	-1.925231689922264	9.736423596735849
O	0.24266192718867918	-0.4353742199222641	12.682778496735848
O	9.210829457188678	-6.900347069922265	-2.4832576372641517
O	6.861472987188679	-8.461735019922264	-7.267983433264151
O	4.98827806718868	-10.726369849922264	-4.841063503264151
O	-4.36118127281132	-7.217733259922264	8.926420596735849
O	-6.935961282811321	-8.433791989922264	6.374108896735848
O	-4.098468702811321	-10.039740749922265	4.397929566735849
O	-2.055181924811321	-6.9050122199222645	4.0118768467358485
O	-4.351530972811321	-5.555222689922264	1.3735848067358485
O	-4.428251342811321	-8.485816769922264	-1.0387278112641516
O	-0.6828070658113208	-8.704158749922264	-0.8037266932641516
O	-0.3702097628113208	-5.084400579922264	-2.0677337362641515
O	-3.0852072928113206	-5.5872414399222645	-4.522685073264151
O	-1.120213617811321	-8.394648249922264	-5.964964813264151
O	2.225136037188679	-6.505852719922265	-5.960809893264152
O	0.4705660171886794	-3.6635429199222638	-7.744350333264151
O	-0.9564329208113208	-6.106020239922264	-10.302037213264152
O	2.4572097271886797	-7.5741230799222645	-11.018757123264152
O	3.9499717471886795	-4.1268683699222635	-11.189460233264152
O	1.6292016571886794	-3.503550619922264	-14.111941903264151
O	12.747167557188678	-2.716651039922264	-1.7138515632641516
O	9.81144245718868	-3.718560799922264	0.4208796467358482
O	11.437413957188678	0.764986837077736	2.6975812867358484
O	13.143717757188679	1.899572178077736	-0.49378975326415153
O	11.47312225718868	3.881526820077736	-3.2736476932641514
