34

O	18.935438850369703	12.036135174192967	109.3735887793897
O	19.721293793088453	15.992337328615093	107.90902921243482
O	11.099377126620725	15.937789021063978	106.1004303024387
O	18.461503346777228	12.78676513101549	108.25362495540817
O	15.447327123605843	14.59540918685979	106.80069602181808
O	19.47955817964748	13.433810793150599	107.49264917301494
O	13.28522706408927	16.291800410098016	106.50267231281958
O	20.847904748553436	13.180169057302454	107.48699079041653
O	19.412070054675894	14.86426331318725	107.09987161415384
O	21.228464052211912	12.349852732341853	108.49746433755784
O	20.287356067325202	11.965376586808048	109.41173720643292
O	16.670233849445587	15.472235371649473	109.34063307326564
O	15.800289871822798	16.279492394135772	108.42882658282794
O	17.43592218595048	18.268561487828773	109.55129281201228
O	17.829986419541264	11.85316189121065	110.35061492184238
O	16.08211234335672	15.855790341938727	107.02155294840102
O	14.373044030877818	14.606788965766672	107.72211060976761
O	18.02620402426318	15.125542789921306	108.8506248657764
O	18.056690241619577	14.956300645137782	107.45737668355342
O	15.100497423446111	14.892913173624528	105.44708477421607
O	13.753345141760173	15.491326513568831	105.4121588792895
O	19.00954096997787	14.959967319747022	109.90690516057957
O	13.574979109646272	15.86384359274637	107.837935938789
O	20.31818952317776	14.909468932456408	110.12062605151678
O	20.939133511890173	14.271250945196867	111.15674485411951
O	20.200362466298856	13.563860488545759	112.0544652541898
O	18.919882508321518	13.958296719358657	112.16779603988604
O	18.384661288934122	14.557758728180575	111.0738446191105
O	18.640027488657513	16.47963299133827	108.3863937334629
O	11.980845639058629	16.857708145634547	106.20311974724817
O	11.577970035335888	17.996582843601754	107.0435741941113
O	17.938044772793056	17.87351063101488	108.00867561819514
O	16.654863562737905	18.232250468636586	107.80158881724763
O	21.494474174963507	13.208843271636894	106.29508185022242
