82

O	-1.8317269305462958	-3.316816748685186	-1.4005850557407398
O	-1.2009143060462957	0.24252207531481418	-2.8932471887407396
O	-1.898456715546296	-1.9295502086851857	-1.6749930247407396
O	-2.341488737546296	2.216220631314814	-7.35375110874074
O	-1.6911400335462958	-0.8021951286851858	-0.8035121307407397
O	-0.8651034495462957	-1.233904228685186	0.2321211812592603
O	-0.8506014265462958	-2.510072758685186	0.6849078212592605
O	-1.0859401395462958	-3.5348166786851865	-0.2209020687407397
O	-2.950788727546296	2.489866581314814	-4.37625957874074
O	-3.479434737546296	2.011749281314814	-5.46095352874074
O	-3.973579187546296	-0.5015047786851858	-7.91505667874074
O	-1.7866622675462958	0.34301397331481415	-1.6092641477407397
O	-3.698414767546296	2.2539748813148144	-6.890103638740739
O	-1.873410244546296	0.9177790833148142	-3.81026720874074
O	-2.593422207546296	2.018813571314814	-3.0419957987407398
O	-3.0196307675462957	1.070016180314814	-1.9759801827407397
O	-1.4646498645462958	2.709642551314814	-2.6321276787407397
O	-0.6706809605462958	3.2077726813148137	-3.7261602787407395
O	0.0012029824537043154	4.294418971314814	-3.1113724087407397
O	0.1865193924537043	4.323847941314814	-1.8031464367407397
O	0.17469730245370418	3.0405371413148146	-1.2298838747407397
O	-0.49113781654629574	2.051281341314814	-1.9477851547407397
O	-2.8268203275462955	0.15438861331481413	-4.38181494874074
O	-2.6226996675462955	-0.4896280886851858	-5.6746827387407395
O	-3.5806775375462956	-1.0241966586851858	-6.5945288387407395
O	-3.7483743075462956	-0.3352171486851858	-3.74099247874074
O	-0.6703593485462958	-0.19931879868518587	1.1046823312592604
O	-3.0434444375462957	-4.011300278685186	-1.2029567087407398
O	-11.054256367546296	0.6400687443148141	6.43580882125926
O	-8.982587137546295	0.3017908563148141	3.27078770125926
O	-9.000205937546296	4.104098311314814	2.8260646812592602
O	-7.498543857546295	4.585211701314814	6.2326754612592605
O	-4.935292727546296	1.7508951573148142	5.79946339125926
O	-3.8091848175462957	2.1260900113148145	2.19314456125926
O	-5.467480327546296	5.353329031314814	1.1471538212592605
O	-6.019292757546296	6.2882962113148135	-2.3395979967407396
O	-4.488703477546296	8.299832561314814	-5.266468908740739
O	-5.296137907546296	11.895318901314814	-6.04478221874074
O	-1.9288945755462956	11.731407401314815	-11.96547039874074
O	3.092803522453704	8.278848691314815	-4.419991868740739
O	5.352059382453705	10.128511651314815	-1.8426899427407397
O	-0.17329786754629573	11.976805001314816	-2.4108046597407395
O	-2.191044710546296	13.663337001314815	0.39904292125926033
O	-4.511878617546296	10.684592191314815	-0.028216798740739568
O	-1.9461810705462956	7.993559931314814	0.8470399312592605
O	-2.995942387546296	6.065019201314814	4.00735087125926
O	-1.0449292485462958	4.394520861314814	6.81579293125926
O	0.7584412724537044	1.6599109013148141	4.83932087125926
O	2.4424364724537044	3.7549870613148144	2.1966412112592604
O	3.1834534424537044	6.715021391314814	4.58019502125926
O	4.716968582453704	4.345126461314814	7.07952305125926
O	6.989966302453704	2.594819591314814	4.57391460125926
O	8.145388762453704	5.905044451314814	3.16408959125926
O	8.804090052453704	7.216696231314814	6.662996001259261
O	1.1662650524537042	-9.383168298685185	3.1276977812592603
O	-0.8137076135462957	-12.234831598685185	4.61490813125926
O	0.5768897624537042	-14.618939298685186	0.3258448912592604
O	-0.2373472775462957	-11.533074398685185	-1.7579409107407398
O	3.437691032453704	-10.660706498685185	-2.4177552157407396
O	5.000769692453705	-13.811112198685185	-3.8118236487407398
O	12.112944352453704	3.9161344313148145	-0.9759434527407397
O	11.793658552453703	3.462708901314814	-4.787431778740739
O	11.047611852453704	-0.1798098766851859	-4.11412237874074
O	8.036170912453704	0.43882619131481415	-1.8937738807407396
O	5.655823002453705	1.428228304314814	-4.66870078874074
O	6.406408302453704	-1.5941869086851856	-6.90767822874074
O	5.957853282453705	-3.9449701786851863	-3.9858064987407396
O	2.5120984224537044	-2.517963018685186	-3.3367564387407396
O	1.8779062624537044	-2.5122214286851863	-7.0608448287407395
O	2.560866812453704	-6.2778252086851865	-7.144019978740739
O	0.31694937245370425	-6.893912998685186	-4.09481057874074
O	-2.4270082475462957	-4.970365648685186	-5.76437995874074
O	-2.042281407546296	-6.964463168685186	-8.92064911874074
O	-2.333233247546296	-10.287128198685185	-7.0808304387407395
O	-5.291498307546295	-8.939819558685185	-5.12266945874074
O	-7.131142007546297	-8.655412878685185	-8.43261403874074
O	-5.275907937546295	-8.573357338685184	5.27192059125926
O	-2.1383708165462956	-8.343660908685186	7.32605986125926
O	0.6705217424537042	-6.243218168685186	6.02138317125926
O	-1.3509648800462957	-3.257304818685186	9.753228001259261
O	-4.661558207546296	-5.082908808685186	9.68397780125926
O	-7.569162457546296	-4.218675928685186	7.400548741259261
