37

O	17.74663265481348	18.20327423423023	107.87622679375133
O	17.460465437061313	17.962782903762125	109.25489967070135
O	16.284179874079108	18.87481033676843	109.54055316150149
O	21.277057989669938	14.706112216952178	109.02730068795567
O	20.121723946520582	15.243598271899465	109.27943384317183
O	19.407882338418396	15.062998629853887	107.89087619955646
O	17.866676070907793	15.30003694102296	109.50742738795297
O	16.986103460999388	16.591221736783776	109.68777761291646
O	16.03821309875845	14.846249670293876	108.80399716545239
O	15.984047159209798	14.42863570217244	110.11132038939614
O	16.061856692013016	13.59010605530572	111.30612648338415
O	15.964789673354671	14.391849756156489	112.54844394139386
O	21.004024354168475	13.999066149699306	110.11980462884009
O	19.77316620785282	13.311312521357154	109.88185973559823
O	19.092796080983486	13.655991382742146	108.56759390679456
O	18.027815400498227	13.111114724147633	108.81674379558713
O	18.163880977249647	14.219753235045237	109.7142704258102
O	16.536485658976098	16.55975485915887	107.30132146622083
O	14.91977830635917	14.260532617641264	110.60181449424644
O	14.636836891583915	15.369014454272316	111.51791618696292
O	15.703399155292939	15.730017403767269	112.20872191190917
O	15.784225779423839	16.876780961046425	113.02798944001282
O	16.05311878581532	16.303657491179802	108.67163812542071
O	18.143680190522083	15.48687513801114	108.23987840163855
O	15.551910052797854	14.264942124596725	107.94021594666236
O	18.00999280089445	13.69533939532103	111.07583410701582
O	15.291363576527559	16.716804185225744	106.62324722614731
O	14.291121881878617	17.4827730298881	107.38701767291496
O	18.5469761740605	15.877773520885157	111.51555161980988
O	18.728595221212107	14.624101066693566	111.85959645867487
O	19.589765703048908	14.165933526073877	112.71710597302635
O	18.915749458970577	16.72532182435529	112.42367587693239
O	20.240033697648396	16.393162580128685	112.39223519365028
O	20.545195635141802	15.13516308502452	112.85759106689011
O	13.976387494549755	16.81156611134072	108.61846419329062
O	18.095254822440886	11.890096227397951	109.42881239284955
O	22.92064547557236	14.196197949738735	108.59985115913375
