76

O	5.084878467727273	-3.3890725163709097	-0.030580613950908886
O	6.123024337727273	-2.4147467163709098	1.8580847640490912
O	-2.1063144022727274	-2.8382264663709096	0.9724106140490911
O	-2.7033941922727274	-3.25111204637091	2.108468174049091
O	-0.7332476422727274	-2.6004481763709095	0.9126047820490911
O	-0.7855139892727274	-2.7171261463709095	3.332839374049091
O	3.967243437727273	-3.5128018763709097	2.121926314049091
O	4.162382697727272	-1.3080309763709095	1.050298759049091
O	2.6108897877272725	-2.9343914663709096	2.5102577640490913
O	1.0793572477272728	0.3568521896290905	0.3070040390490911
O	2.6586669777272727	-0.9659443563709094	1.231526241049091
O	1.9276989177272728	-1.8495320863709093	1.7495253840490912
O	-1.9303757222727276	-3.45221749637091	3.206112854049091
O	-0.27249985727272735	-2.2201859163709097	2.173759194049091
O	0.7068685477272726	-1.1416664563709094	2.164936484049091
O	4.746359457727273	-2.6247191363709095	1.2065194820490912
O	2.355759967727273	-0.16701895437090952	0.05948174104909115
O	0.40109168772727266	0.05009776562909049	1.4794889860490912
O	2.281413417727273	-2.6234375263709095	3.7281879840490912
O	-2.4529793322727276	-4.248991436370909	4.178335634049091
O	0.8774384377272727	1.8466722536290905	-0.4797942989509089
O	0.7710171277272727	7.9889928736290905	11.76117282404909
O	1.5123284977272728	9.734941543629091	8.442400454049091
O	2.6653142777272727	6.58295061362909	6.621122844049091
O	0.07074146372727264	4.53859673362909	8.54261201404909
O	-2.7198897122727272	6.72377128362909	7.307614004049091
O	-1.3125361492727272	6.82632247362909	3.6972935240490914
O	-0.14264683927272737	3.2400050036290904	3.1046576640490913
O	-1.2641929632727273	1.4464463936290906	6.180233104049091
O	0.17923157172727266	-1.7554928463709094	7.189007694049091
O	-0.2521735222727274	-5.57109484637091	7.1298598640490916
O	-2.1763937722727276	-7.59076640637091	9.62559129404909
O	-0.37347747127272735	-13.511727996370908	6.920174434049091
O	-3.940651102272727	-13.253038896370908	8.14471892404909
O	-5.380242602272728	-11.379474196370909	5.125931244049092
O	-5.105889062272727	-10.644702096370908	1.4345283600490912
O	-4.063558432272727	-7.2157619063709095	0.47319835534909116
O	-7.591905272272728	-6.368134486370909	-0.6186500959509087
O	-9.073157882272728	-7.43018701637091	2.760243974049091
O	-6.444192772272728	-6.17764792637091	5.154287394049091
O	-8.272828222272727	-3.91586443637091	7.643233184049091
O	-4.844038182272727	-2.2888398663709095	8.083932244049091
O	-4.439282482272728	-1.1298448563709094	4.461503974049091
O	-4.281326252272727	2.7269243236290905	4.229458124049091
O	-5.316121552272727	5.3037471236290905	1.6149537640490912
O	-3.0260254522727275	4.428023993629091	-1.2597065159509089
O	-3.8363517622727272	0.6531951946290905	-1.4751105259509087
O	-7.533103932272727	1.1030741676290905	-0.7530582959509089
O	-7.780910582272727	3.8158772836290904	-3.3539540559509087
O	-6.0875413222727275	1.8651878736290906	-6.1409819859509085
O	-8.249322482272728	-1.1567983863709095	-5.418561295950909
O	-11.367303042272727	1.0040003166290905	-5.460715235950909
O	6.029526017727273	7.772357243629091	-6.930630005950909
O	10.752567357727273	4.95514232362909	-6.323520315950909
O	9.059671207727273	2.8997311736290903	-9.06827655595091
O	-6.0557337922727275	-4.90351455637091	-9.63180497595091
O	-3.577248312272727	-7.815246356370909	-9.40496124595091
O	-0.8764488122727274	-5.3919356963709095	-10.50867857595091
O	-1.3550806142727274	-2.9167542863709097	-7.683166115950908
O	0.28438478572727266	-5.04506662637091	-5.054776045950909
O	3.4844329877272724	-5.800258776370909	-7.025602915950909
O	3.859687487727273	-2.1194020963709095	-7.888177975950909
O	3.804044517727273	-1.2347204163709093	-4.1567303259509085
O	6.044838947727273	-4.24403358637091	-3.5739495259509084
O	8.639167627727273	-2.7626203163709095	-5.901986645950909
O	8.299546857727274	0.7694756656290904	-4.420589725950909
O	8.727883757727273	-0.6881231803709096	-0.9299873659509088
O	11.808866057727272	-2.5716068063709097	-2.0499973559509086
O	13.436217657727273	0.5357809856290905	-3.547596235950909
O	12.457247557727273	2.5223940236290905	-0.4710973089509089
O	14.686736557727272	0.14968529602909048	1.5017147940490911
O	4.274975487727272	11.90616480362909	-3.7833152659509084
O	2.3182417277272727	8.987720543629091	-5.109832805950909
O	-1.1747472392727274	11.464823703629092	-2.093892535950909
O	1.5389534477272728	13.199956903629092	-0.09986698295090884
O	3.2086986077272726	11.737369003629091	2.9897307640490913
