24

O	18.895955325714574	15.107252987600585	107.92262268834794
O	17.88692050962175	16.15972856513772	108.05396803926705
O	17.15727004586344	16.15539503427539	109.27722665733485
O	17.053945462561312	15.138858406347765	110.26586285152369
O	17.654571043697143	13.87245800820526	109.69901453521243
O	18.85803683365734	14.16599344922467	108.95928362431818
O	20.050178038319	13.697904191041685	109.43871198649708
O	20.861259717416043	13.400192433822857	108.41618883606196
O	21.170623276091735	14.638227166758869	107.65540727300554
O	20.09575563504489	15.390359054648124	107.23274013528064
O	17.976588205309767	13.10783220526793	110.94971453746952
O	16.955320332015802	13.048233159848088	111.90644445222904
O	17.29211608972675	12.180766218745218	112.90970735031898
O	18.418285961245076	12.59176588557093	113.63346652423901
O	19.35071906483886	13.171833929963448	112.82526848617911
O	19.172645358452748	13.568873176016387	111.52590709493616
O	16.54685200534231	11.350870919518844	113.68199023832084
O	22.376403683643968	14.67842548831935	106.81869014914223
O	19.90854177113941	15.944134092239398	105.9176448709612
O	15.831847657803491	16.641031356700253	108.90780765677833
O	15.139023568156286	17.570258381457283	109.68710859789617
O	13.73675694355834	17.147781617631463	109.81817720559236
O	15.699036943442472	17.881787460019943	110.97564981024107
O	15.354348976151414	15.763284781116987	108.17619280132989
