26

O	16.250072378499098	17.941168022054423	110.21041643054245
O	16.685229562897142	16.468862092690667	110.09410489037442
O	16.861509860126453	16.29893084263868	108.67020880499203
O	15.529069713688829	16.61844918651702	108.04330733629688
O	15.50297680210731	18.112412038217744	107.96007927692479
O	17.63708570362386	15.344268964755233	107.92780435512974
O	16.811478450470553	14.373644234149975	108.30489844421082
O	19.100014861625137	15.107694107057403	107.8359491255714
O	19.54243257859641	14.047351991650949	108.64750319407642
O	18.811272457232548	13.084367914063249	109.43871528484776
O	18.895831285728974	13.084532805139085	110.81927540596236
O	19.90095496572132	13.727548335588146	111.21635061168733
O	17.946373996988385	12.702968519525717	111.83709536906642
O	16.603668649025426	12.48583887888092	111.85277352592732
O	16.036320470928768	12.434722420870177	113.08585307585984
O	16.827333691194333	11.744511119299734	113.99799489022544
O	18.243613270921344	12.599389385212284	113.53882261939222
O	21.18850201504322	13.848849791075647	108.31959148310085
O	21.201615915646414	14.68329979898625	106.82492433010235
O	22.24965332142666	14.490752977827576	105.8174726891125
O	22.482826955029775	15.776538840541564	105.12553665468856
O	21.45318138601856	16.80803617870423	105.29602549822525
O	21.25516935712478	17.31077637783345	103.85625990032085
O	22.342181375768657	17.852320410672746	105.91342885887848
O	20.151888470652693	16.598877611050526	105.93348346005354
O	20.072933469673657	15.411268382652345	106.85660102491465
