75

O	-3.1985628974107145	-0.400609384842857	1.6381196393178568
O	-3.810703587410714	-0.504053435842857	2.834038919317857
O	-2.252182329410714	-1.328886053842857	1.2036780793178568
O	-2.078281916410714	-1.891676833842857	3.5674991793178568
O	-0.4754205214107142	-5.706418283842857	-0.604498992682143
O	-0.041882727410714304	-5.987238583842857	0.8039593943178569
O	-1.5015032144107143	-4.577356473842857	-0.18005383068214312
O	0.2198517525892858	-4.717492683842857	1.3703938793178567
O	1.002441312589286	-2.397322513842857	0.35807646931785686
O	-0.8065730604107142	-3.161996813842857	0.12168028831785689
O	-0.5208857134107142	-3.424520703842857	1.372768449317857
O	-3.232904977410714	-1.2266725808428571	3.804272199317857
O	-1.5793989544107143	-1.7889584338428568	2.3029736293178567
O	-0.21459235741071425	-2.227572893842857	2.188374149317857
O	0.010002112589285739	-2.3181768138428573	-0.714973088682143
O	0.6993304925892858	-1.5360774538428572	1.2417742493178567
O	0.8892216725892859	-4.698333333842857	2.459591939317857
O	-4.010822077410714	-1.5541539338428572	4.875226469317857
O	2.1907344125892854	-3.460572143842857	-0.34857332468214314
O	12.312555642589285	8.987512226157143	2.328599059317857
O	9.698728442589285	0.139409794157143	10.135189609317857
O	10.655863542589286	1.6340877561571432	6.751795579317857
O	8.191285222589284	-0.455663568842857	4.722851299317857
O	5.688097692589286	-0.252885600142857	7.604036369317857
O	5.732637902589286	3.4992652961571427	7.540742319317856
O	5.627694102589286	3.673667516157143	3.672199619317857
O	3.130035802589286	0.9739954661571429	2.779273519317857
O	1.8648137225892858	-0.29965045434285703	6.035417399317857
O	0.24565570258928582	-3.544909763842857	6.443732769317857
O	-3.038606227410714	-5.421796603842857	6.683712009317857
O	-5.031135687410714	-5.904008503842857	9.829252939317858
O	-9.623417387410715	-9.832001793842856	6.862415729317857
O	-10.965190047410715	-7.373142453842857	9.420378579317857
O	-10.925821167410716	-4.281422953842857	7.151756909317857
O	-11.183414187410715	-2.8677846838428573	3.668615759317857
O	-8.006918377410715	-1.433416273842857	2.250197469317857
O	-9.484545217410714	2.066090346157143	2.637796669317857
O	-10.261493857410715	1.5329333461571428	6.355623099317857
O	-7.272789037410714	-0.452579901842857	7.481347359317857
O	-5.757330607410714	1.451632106157143	10.438377809317856
O	-2.5189297874107144	-0.331884210842857	9.411586259317858
O	-2.291690607410714	1.2297920561571432	5.915351689317857
O	0.8701222525892855	3.393033056157143	5.499504669317857
O	1.7646699825892858	6.440584426157143	3.4058511193178567
O	1.4977537425892857	5.075508486157143	-0.1246199649821431
O	-2.0586985114107144	3.666988766157143	0.12130596931785691
O	-3.4181881874107143	6.429318996157143	2.274518769317857
O	-1.9922366394107143	8.965631486157143	-0.1133410881821431
O	-3.4125352174107144	7.382344046157143	-3.257848760682143
O	-6.831723037410714	7.105065756157143	-1.6427866406821432
O	-6.681445167410714	10.717505476157143	-0.5117085006821431
O	7.435212642589286	1.8698106961571428	-9.034615070682143
O	7.747134712589285	-3.498458293842857	-10.324139190682143
O	4.487083952589286	-2.553836523842857	-12.078903190682142
O	-9.831495337410715	4.614504196157143	-6.269668380682143
O	-10.854802177410715	0.9894144061571429	-6.9644523306821435
O	-7.764213957410714	0.696312080157143	-9.150084180682143
O	-5.262378537410714	1.6240629561571431	-6.470011800682143
O	-5.497899497410714	-1.637536073842857	-4.666855300682143
O	-4.938040027410715	-3.944058633842857	-7.682860460682143
O	-1.9787481214107143	-1.853751293842857	-8.761427930682142
O	-0.3144726804107142	-2.436718943842857	-5.391275650682143
O	-1.4406498194107142	-6.079646133842857	-5.494651230682143
O	0.45394355258928587	-6.4822902938428575	-8.770119670682144
O	3.547266502589286	-4.633726433842857	-7.437140020682143
O	3.486598312589286	-6.878651213842857	-4.376112600682143
O	3.2432374525892858	-9.944674073842856	-6.525071900682144
O	6.227505832589286	-8.935615793842857	-8.699992550682143
O	8.150946762589285	-7.9941849938428575	-5.571942280682143
O	7.861110312589285	-11.652189423842856	-4.550350130682143
O	10.705929842589285	4.599497306157143	-5.605810010682143
O	6.962857592589287	4.770415196157143	-5.900777090682143
O	7.972742602589286	7.945171216157143	-1.8760758106821431
O	11.310309942589285	6.283944406157143	-1.1903460506821433
O	11.767015342589286	3.218986026157143	1.0215574393178568
