26

O	14.829598399156614	13.939442947125242	110.88006269386135
O	15.201996224503855	13.499533169082104	109.6057564086872
O	17.186010583484084	15.941607320821168	111.70214503581138
O	22.68518414281378	13.941336826297299	109.11128478999889
O	18.731799774508886	13.288866903953664	112.44456591848586
O	18.48699687303784	16.161826721125927	111.63353810396474
O	16.531062205120538	16.243831154212007	110.5820873597143
O	21.742108166731036	13.023921699316604	108.81246300771335
O	22.031135255914617	14.812292681363546	109.9802815128496
O	17.726345639764602	12.767015037530541	111.63618302202077
O	19.907193993570036	13.247461035042559	111.77933540871514
O	19.034383765069858	15.927866520947106	110.37018145659728
O	17.13120848740431	15.829788637311323	109.42633771738835
O	20.870454336376863	13.711300594757876	107.88860028509086
O	20.886322026470015	15.289825088737352	109.30446449638866
O	17.800101291985417	13.401364115021469	110.36200899102265
O	19.73020746689282	13.850555064672157	110.56019940756106
O	18.43155842004284	15.663325448853076	109.12501945281991
O	20.222255576221823	14.823316720783408	108.1555303998952
O	18.881101276544886	13.543938917693565	109.55393031488552
O	18.814037606812157	14.458543465450164	108.37774937832708
O	13.932359765721479	13.779537456287622	108.8250868468494
O	13.71405217063528	14.993025121549161	108.70056444219426
O	16.185823213028126	14.071705864468024	108.79628618890789
O	17.475335901079156	13.648559995003266	107.74155461733892
O	14.112640117375324	12.835858863214668	107.84646651190242
