35

O	22.014774590782814	15.751001490459505	107.45854394854634
O	12.22745582378972	15.97120674160829	104.4140295189841
O	18.551130114703653	14.377118382576453	105.70484760692094
O	20.732382025439968	16.36200993174376	107.7029742589292
O	18.466795268497147	15.675956271438345	107.88361380961742
O	10.572872509378136	15.897163397446684	102.86739256175304
O	19.763166977492247	15.338742047277941	107.41581826329165
O	14.092024988142159	14.784140653578948	105.83241453095447
O	19.809734625647128	14.55418793906691	106.26286585918217
O	21.038392902120602	14.674694601804967	105.62566174295179
O	22.10489015384286	15.46669355678495	106.14031349992659
O	17.33162968791589	14.282502356302142	106.456388326706
O	17.172614602758056	16.654255556059596	109.31102921061105
O	16.32094367866059	18.157951972939205	111.10293700637091
O	15.269093212048997	15.779167576257493	108.69630723518762
O	14.991070408716713	16.505889219414563	107.41148311077123
O	13.955533626155344	16.062557576264233	106.46955466911918
O	18.35112568664134	16.1641007270471	109.23464065490117
O	16.584674434642597	15.30652441517817	108.79812338786694
O	17.191845566706032	15.354596334390406	107.43144732431591
O	12.76102430235192	14.188227542041288	105.87346663520869
O	14.427745328591659	14.849248151942632	104.43360511349282
O	17.31849718211445	14.418468475038834	109.74242835237114
O	11.791319034315679	15.35164869416403	105.67076650862944
O	16.650851056513833	17.998093032612942	109.61804523707993
O	13.169869849534821	15.136374616869935	103.6639333243935
O	11.16254240955468	16.625012560004507	103.69709865024582
O	10.242881372335422	17.493966292280017	104.50976681790567
O	15.727669641570156	18.564213621483596	108.94141622816275
O	17.068847081648777	14.664416404745563	111.1073551224378
O	17.523757831581438	13.604580608258638	111.90882083990795
O	18.918000657456616	13.47525732679146	111.83752429790691
O	19.423833041023098	13.52686037718332	110.56250996362284
O	18.610517214573477	14.005796232665869	109.57888414812577
O	23.078094251663885	15.633479866673987	108.30465981855211
