34

O	15.713498109472921	15.226556805912242	109.84685123616069
O	21.321710537381456	15.26953566479764	106.83722291369827
O	21.710622955845388	14.299508352909914	107.80135506750403
O	20.948897708018478	13.434315552219033	108.69346536872173
O	20.08222547925012	15.79710147958902	107.17739160180086
O	19.394540041972352	14.918310541172364	108.08988918556906
O	19.724037578115517	13.836640466158345	108.86208296012153
O	18.715041126846813	12.781565718709258	108.76838897529495
O	17.53044461564252	13.362370874596799	109.29429952367079
O	18.220637860983267	15.426318102915841	108.65095350098548
O	17.307323132102525	14.294321381998211	108.40162707050779
O	17.140069235835938	14.826967927921162	107.06826322316493
O	16.770769149299092	16.396616321621394	106.95148036802237
O	16.320642708238477	16.525767041719863	108.32336382252849
O	17.61388806722456	16.563235412400914	108.71895303435062
O	17.893291620517598	13.074659142583455	110.66166484500863
O	19.20279391651253	12.68783321584547	111.15060894907415
O	19.736269012378116	13.723951679327678	111.92588949115303
O	18.812502859261357	14.528584458488211	112.50715180573754
O	17.631146694852358	13.844928451935294	112.82778625773982
O	17.184892006675724	12.977639959290327	111.82164979857173
O	22.055645188689446	15.887269179278174	105.75492071712813
O	15.357999924012784	15.502682522751687	108.56047300509928
O	16.446471210866935	16.044900657737383	110.69744813651182
O	15.662890932048018	16.245781151388563	111.76620867067146
O	17.441363916719233	16.71928121899056	110.55412152947714
O	14.976139005823491	17.48072888378292	111.80896139267693
O	14.242053627417134	18.29509240663731	110.89515339699204
O	13.61469412864222	18.06953851501559	109.6774218271467
O	12.215474966103892	18.270139666912243	109.55368007269112
O	14.09651170015933	19.013813386842973	108.64768381018173
O	21.13385805081944	16.502902138146517	104.89225201889657
O	22.923542018585163	16.916744310912595	106.07888216954494
O	22.743943282358277	15.212020070607853	104.79421330544318
