24

O	15.650811497295955	14.821585353493166	109.76028724764134
O	16.210096464480255	13.561592412113113	109.51708135587015
O	17.455679354835404	15.47066265023431	108.31702402550752
O	16.170272542947664	15.779125647961404	108.81309495877622
O	18.132929229084983	14.296682702798062	108.43546945391886
O	20.098885161163224	13.897382197280686	107.62264694912628
O	17.62329628213001	13.45668152479283	109.52877482080413
O	16.46823550251223	11.586374302849395	113.83522360106993
O	15.358496994514937	16.93539121192753	108.41736084883784
O	17.976891251383726	16.59445208870064	107.46703896299317
O	19.591263878931294	14.81490142726945	108.28294593210876
O	19.756976441485563	15.060722278261343	109.72559350067836
O	18.73249236065733	15.961112491943002	110.1631849936858
O	17.99918675391449	15.85867171952369	111.42164273123304
O	18.30303246969744	15.060280339231843	112.43581978940439
O	19.65997315388161	14.799232982499081	112.17073045984831
O	20.2303620277666	14.644857747905409	110.83428003270707
O	17.959349589414177	12.820719914932978	110.62395628581325
O	16.950926824862577	12.285461398733723	111.51931754959558
O	17.258925404805403	12.09601081399698	112.83474720780309
O	18.557791671892005	11.924198300707998	113.2350583369995
O	19.392084614603533	11.734162113662189	112.13486761004727
O	19.0160369424651	11.984508688272388	110.84493383400002
O	14.710542742600087	15.562163276616898	110.83699255667639
