75

O	-2.5690971976981127	1.9394369122641508	1.3282545713962262
O	0.48183250430188695	0.1979078192641508	-0.9084870263037736
O	-0.3802539956981128	1.0972100282641508	-1.6229646326037737
O	-1.629658898998113	1.116460419264151	-0.9722858666037736
O	-1.279398322698113	2.1053720022641507	0.16790172139622628
O	-0.04410372569811294	1.9901827722641507	0.7769549413962263
O	0.7860784043018871	1.0976808772641509	0.2012955413962264
O	-2.575648924698113	1.7802922022641507	-1.8059117386037737
O	-3.599670545698113	2.1487718722641507	-2.581644618603774
O	-3.345493815698113	1.764351802264151	-3.921210098603774
O	-3.370702395698113	0.38533345626415083	-3.7169138186037736
O	-2.898429045698113	0.37962321626415085	-2.1777870586037738
O	-2.2959671826981127	-0.5720945977358491	-3.9644578986037735
O	-3.572656665698113	2.4269806522641506	-5.128309718603774
O	-4.857195905698113	3.1545757722641508	-5.584931108603774
O	-3.2807911756981127	1.7177845062641508	-6.182245158603774
O	-0.9600760696981129	-0.656562647735849	-3.804894938603774
O	-0.24912742569811286	-1.8581440577358492	-3.6115487986037738
O	-0.7255388266981129	-2.8326091177358492	-4.419224558603774
O	-2.0779077776981127	-2.9285756477358493	-4.5440764086037735
O	-2.824778595698113	-1.9017852777358493	-4.039996148603773
O	-2.380975858698113	-4.144617527735849	-5.099253798603773
O	-12.022344215698112	-4.528393957735849	5.800990581396226
O	-9.262110065698113	-3.014790937735849	7.978285151396227
O	-7.6995142056981125	-0.9793881877358492	5.208398331396226
O	-8.492453355698114	-3.772370297735849	2.702762811396226
O	-6.573704675698113	-6.27697104773585	4.757902421396226
O	-3.632691745698113	-3.842484777735849	5.436394431396226
O	-3.215119515698113	-2.162931907735849	2.080288441396226
O	-5.615193005698113	-3.919534317735849	-0.20226546660377365
O	-6.784696935698113	-2.352474817735849	-3.380474048603774
O	-6.361100785698112	-2.302383687735849	-7.201225048603773
O	-7.773304095698113	-4.683429327735849	-9.656057378603773
O	-5.3284518756981125	-1.3986587677358493	-15.049858658603775
O	-5.3380315356981125	-5.164316087735849	-15.231736558603775
O	1.4007452343018871	-3.5544013577358493	-8.318643238603773
O	3.6087851043018873	-6.726757077735849	-7.839559068603774
O	-2.298799321698113	-7.32732361773585	-8.084130118603774
O	-4.209681675698113	-10.17700834773585	-6.369922218603774
O	-5.923707015698112	-7.354438557735849	-4.451666218603774
O	-2.716258245698113	-5.8945300577358495	-2.8352180086037735
O	-2.836341685698113	-6.310569377735849	1.0463868913962262
O	-0.21224559569811285	-6.716362567735849	3.753400921396226
O	1.773702114301887	-3.536975357735849	3.4076292813962263
O	2.5521715343018876	-3.8261966377358494	-0.38298636560377364
O	3.0792881543018877	-7.558324837735849	-0.3471775716037736
O	5.398620544301887	-7.221835747735849	2.6288652613962262
O	7.546910384301887	-4.463313257735849	1.1376546213962264
O	7.869827574301887	-6.388160317735849	-2.1198838586037736
O	8.781266284301887	-9.54923924773585	-0.24671377060377364
O	3.8140265143018874	6.436044932264151	8.168097031396226
O	2.615996404301887	7.9622538422641504	11.385472541396226
O	1.960981284301887	11.04801265226415	5.773420821396226
O	5.263392254301888	10.573057552264151	3.899003411396226
O	11.446483784301888	-2.499791227735849	-5.0992225086037735
O	10.657749784301888	0.11172438026415088	-7.794131088603773
O	10.602959084301887	2.702048872264151	-5.032047018603774
O	7.883311384301887	1.0559334062641508	-2.9506312886037738
O	5.068373424301887	2.026748012264151	-5.209843988603773
O	5.884842064301887	5.763683692264151	-5.457061208603774
O	6.349010494301888	5.984080952264151	-1.7093299556037738
O	2.7971707243018873	4.713804912264151	-1.3004758486037735
O	1.5647448843018872	6.836906832264151	-4.102448388603774
O	2.864835174301887	9.861485602264151	-2.127717078603774
O	1.3246564043018874	8.675546642264152	1.1861115113962262
O	-1.977041988698113	8.16001883226415	-0.5830931856037735
O	-1.8133519776981128	11.621463852264151	-2.0720370786037736
O	-1.166889703698113	13.241321352264151	1.326314251396226
O	-3.9117666956981125	11.13717135226415	2.861938351396226
O	-6.310414075698112	12.89840305226415	0.4962223313962263
O	1.142755334301887	3.273632402264151	11.735751741396227
O	3.2002689643018876	2.2339389222641506	8.763494771396227
O	1.389907584301887	-2.303371737735849	10.557508741396227
O	-1.5041803346981129	-0.6313207977358493	12.334256941396227
O	-4.863388145698113	0.12076620026415086	10.729004641396227
