28

O	33.307107875689454	-2.8072864772756096	-28.648486103520398
O	32.240982810505834	-3.001657322665804	-27.867541880856955
O	32.00687325929365	-4.370297460116762	-27.50191146019229
O	34.479267696678725	-3.589797873119288	-28.264109203819856
O	32.64377132403866	-6.704935062293346	-28.09988461157428
O	33.49644456468876	-6.966008073150338	-28.976879088482097
O	34.171066216628915	-5.740574506265373	-29.28740261173934
O	34.17588572793936	-5.034848693855554	-28.180067217743627
O	32.824336872963585	-5.338992946092278	-27.811990308596773
O	35.33527063507391	-5.355882668823078	-30.198546471339608
O	36.20136948565646	-6.489581119737023	-29.899163668863096
O	36.170847221027614	-6.45455609384335	-28.455030897161134
O	35.6300870105296	-7.605721114557125	-27.917754821033967
O	36.433650541032996	-8.524361271967221	-28.611532394623143
O	36.0036750862777	-8.758297710787723	-29.991111786913667
O	35.361208942359845	-7.5663176088622315	-30.338962831518142
O	36.972555813109956	-9.802491409789658	-28.60750374792558
O	38.1861866699942	-10.487344551717765	-28.54644549522353
O	38.641345802821434	-11.72755804609622	-27.897515208551674
O	38.20617876810928	-11.991831854121951	-26.665782959298642
O	38.872141185138155	-12.978974062377892	-25.847838540386498
O	39.9017346253659	-13.765781623390819	-25.927315882630484
O	40.30110645245924	-13.484549400185157	-27.1810669376966
O	39.72420770495155	-12.499653176866564	-28.12550165715582
O	40.08452402024987	-14.410702553241293	-24.630843037909866
O	41.27524709923719	-14.42695791907272	-23.99546439521439
O	39.51269104258571	-13.8908663223805	-23.571684644669574
O	39.754612332623886	-15.729403211508073	-24.512969602935527
