81

O	1.0617484335881353	3.9095006067016946	-2.4916963482881345
O	5.261343913588136	1.444173379701695	-3.6104746582881346
O	-2.1873835764118645	0.018452166701694805	2.8844443317118653
O	-1.0656384814118645	-0.7915693932983052	2.794639401711865
O	-1.5668039984118645	1.1850245134016948	1.0322307017118653
O	1.2246819535881355	1.5285303437016948	-0.7072533518881348
O	2.1621224935881354	2.9164748267016947	-2.4399999782881348
O	3.9395605435881356	1.8900286077016948	-3.1483311682881348
O	-2.3545322664118644	1.1925882093016948	2.1781449017118653
O	-0.15172109841186454	-0.39695178329830516	1.8798951517118652
O	-0.2610471414118645	0.6310555897016948	1.0428052917118653
O	2.1657505135881356	1.7309569637016948	-1.7647621882881348
O	3.1297334435881354	2.9237764367016945	-3.6211778582881347
O	0.8579795335881354	0.6105589397016948	0.09761927571186524
O	1.6196242435881354	-0.5545100332983051	0.3248486517118654
O	3.4814565735881358	4.343039366701695	-4.053521828288135
O	3.2659236335881356	1.0875453319016948	-2.3275682682881347
O	0.7625080835881354	-1.214890573298305	1.2852298317118653
O	2.5913526635881357	5.330948756701695	-4.681493508288135
O	2.553105253588136	-0.8833282932983051	-0.4456899862881347
O	4.537946663588135	4.727922276701695	-4.718961278288134
O	-3.7132181764118646	1.331921873701695	2.249381471711865
O	10.598165843588134	4.305769766701695	7.085228841711865
O	9.731746743588134	5.902984306701695	3.813028281711865
O	6.310961023588136	7.453687236701695	3.0817924617118653
O	4.2856017835881355	5.300993136701695	0.8109735917118652
O	1.5089115935881354	7.922329356701695	0.03796023571186524
O	0.2172916855881355	11.065788246701695	1.4532519117118654
O	-3.1204901964118643	12.754108986701695	1.1325395117118653
O	-2.4173348064118647	11.938786986701695	6.640067551711866
O	-0.2547417134118645	9.278432266701694	5.041235701711866
O	0.8019320335881354	5.6364822567016954	4.8414359617118645
O	4.428667543588135	4.7548301467016945	5.6082428017118655
O	6.661036913588136	1.6908795567016948	5.262402271711865
O	7.752693203588136	0.49919838570169484	8.710143241711865
O	9.382795743588135	-2.388326593298305	10.512713851711865
O	7.5068869135881355	-3.984333013298305	13.388393951711866
O	7.846466693588135	-4.916414113298305	7.1024001817118645
O	4.390985383588135	-3.374270683298305	7.360414861711865
O	2.4849184535881355	-0.33635328329830516	6.224294111711865
O	1.3630076035881356	2.1444968367016948	8.865286411711866
O	-1.5962868064118645	4.498829246701695	8.372412721711864
O	-1.5622471174118644	7.773754776701695	10.325238151711865
O	-7.171574456411864	-10.995321413298306	-1.1884398172881347
O	-7.470273246411865	-7.862338413298304	0.9244970417118652
O	-4.8508505464118645	-5.729034463298305	2.633316281711865
O	-3.3076621164118643	1.490120270701695	12.018907951711865
O	-0.8486898074118645	-1.249183273298305	11.025138051711865
O	-1.5738593324118646	-3.187492963298305	7.820592631711865
O	2.8043449735881354	-3.9603866932983047	3.1214591617118654
O	5.885947143588136	-4.816779963298305	-1.9323286282881347
O	5.049375553588136	-4.526205163298305	-5.627092448288135
O	2.6890582835881354	-1.652923853298305	-5.063798448288134
O	-0.5214464991118646	-0.9387690832983051	-7.045999178288135
O	-1.7805852564118645	-3.175155103298305	-9.771119128288134
O	-2.3363251064118646	-0.4316454832983052	-12.339361048288135
O	1.3502772335881352	0.38564393270169484	-12.375911448288136
O	2.3542045235881357	-3.2776038932983047	-12.270031548288134
O	9.994539543588134	-4.638741163298305	-9.783019718288136
O	11.766191443588134	-5.295476633298305	-6.506977418288134
O	10.131143943588135	-9.687977113298306	-9.588069618288134
O	-12.745690156411865	-0.4311041132983051	-6.718781818288134
O	-10.182368406411864	0.07714384670169494	-9.471107498288136
O	-6.734600366411865	-1.199926143298305	-10.448786218288134
O	-5.174117536411864	1.871775197701695	-8.857681208288135
O	-6.541459866411865	0.7346538537016949	-5.499173168288134
O	-5.516258226411864	-2.9231714432983047	-5.694323288288135
O	-2.0500990064118647	-3.805335163298305	-4.429967878288135
O	0.2495849375881355	-6.725633063298305	-5.307376438288134
O	2.5581295935881356	-8.590304523298306	-2.9505936582881347
O	4.847182313588136	-11.674004613298306	-2.9028874682881347
O	-3.5524476264118645	-9.145602313298307	-5.304595768288134
O	-4.930423696411864	-7.406841753298305	-2.279866228288135
O	-7.832466296411864	-4.963429863298305	-2.3419560982881347
O	-6.737946306411865	-1.8352918732983052	-0.4984644532881347
O	-8.289831396411865	1.1612702943016948	1.1503347317118653
O	-5.990247016411865	3.7241647067016945	-0.5415232192881347
O	-7.985305566411864	6.810297916701695	0.42415020171186524
O	-5.665634266411865	8.120294946701694	3.1150825817118655
O	-2.6508461464118644	7.687379806701695	0.8029567017118653
O	-3.559939756411864	10.141280956701694	-1.9666590882881347
