114

O	2.9980751876090905	-3.5954121544194804	-2.1062103754077923
O	2.7601322476090906	-2.0438518844194804	-2.8433842854077924
O	4.19066041760909	-2.07810333441948	-2.1573514254077923
O	4.10363426760909	-1.9805665344194803	-0.6758800811077923
O	3.735424717609091	-3.2144278644194806	0.06454163759220766
O	2.3099505576090906	-3.04412273441948	-0.8026841264077923
O	2.920899337609091	-3.46890927441948	1.1877683845922076
O	1.7732642476090907	-2.9089716844194804	1.570538944592208
O	2.9138438076090902	-1.9657643744194804	1.4826838045922077
O	4.16486482760909	-2.16715010441948	2.000305304592208
O	4.577779597609091	-3.1274213444194805	2.8863497045922077
O	3.7586274476090904	-4.09750654441948	2.191143494592208
O	1.7490237776090907	-1.1076456244194803	1.0239898845922077
O	0.3660757776090906	-1.12390492441948	0.9235756745922076
O	-0.2711218323909095	-1.3587603544194802	-0.4748060834077923
O	-1.6454665763909095	-0.92737771441948	-0.8295733854077924
O	-2.7502648623909094	-1.07927197441948	0.1178757965922077
O	-2.2134206943909094	0.11868016658051983	0.8460493045922076
O	-0.8132434073909095	0.25049076158051986	0.5992285545922077
O	-1.1782659433909095	1.3642442975805198	1.2287429845922078
O	-2.1712731683909094	0.4209283395805199	-1.1089976644077923
O	-3.3132371223909094	0.19443374558051985	-1.8746394454077921
O	-3.7867739423909095	1.21659573258052	-0.9376752894077923
O	-4.73306485239091	1.2996517045805198	0.016462667592207714
O	-4.53396388239091	2.56499016558052	0.8499517145922076
O	-4.504321362390909	3.6541944955805197	-0.23813321440779234
O	-2.9607101323909095	3.62235914558052	-0.09699844140779235
O	-2.9944570823909094	2.38726922558052	-1.0061673474077923
O	-2.0267321643909093	0.6108904515805198	-2.3220240654077924
O	-4.599426162390909	3.4928229255805197	-1.5964961244077922
O	-4.191601302390909	3.1603417055805196	-2.875342685407792
O	-4.5805530523909095	4.49463127558052	-3.4349216254077923
O	-3.7904130823909092	4.6189642455805195	-4.675579395407793
O	-4.55452600239091	3.96848258558052	-5.617326055407792
O	-4.521802352390909	2.60810210558052	-5.189032145407793
O	-4.93891511239091	2.36142848558052	-3.773152785407792
O	-4.207614722390909	4.57993392558052	-6.790839315407792
O	-7.865983692390909	-3.4426836144194803	-10.644647765407793
O	-9.33027978239091	-0.19199065441948016	-9.365580245407793
O	-9.39991793239091	1.44502296758052	-5.9637504454077925
O	-7.01951896239091	3.97362097558052	-5.866948075407793
O	-7.17851983239091	6.64460679558052	-3.1448468654077923
O	-10.11653012239091	8.878370645580521	-3.356315475407792
O	6.315532457609091	-11.58637390441948	-3.3624932554077924
O	7.00430733760909	-7.91933175441948	-2.6095586354077924
O	5.539108607609091	-6.61415929441948	-5.911810665407793
O	3.3006271076090905	-7.92475092441948	-8.711880185407793
O	1.2045275576090906	-6.060102844419481	-11.289960265407792
O	-1.1103398013909094	-7.09934577441948	-14.048812865407793
O	0.33082216760909056	-8.87686038441948	-6.102052825407792
O	1.3553611076090903	-8.096553354419479	-2.5856086254077923
O	3.2460796376090904	-10.68816770441948	-0.5775944910077924
O	5.14301027760909	-10.930486204419479	2.687862364592208
O	3.3703441976090907	-13.32449800441948	5.108901324592208
O	2.569550327609091	-8.58417978441948	7.457511074592208
O	1.8525674176090905	-7.73115549441948	3.890550874592208
O	-1.1147045293909095	-9.43908040441948	2.1728282545922077
O	-2.7668966023909096	-7.98538107441948	-0.9532512944077923
O	-12.52936294239091	-2.8484655044194804	-5.7215541754077925
O	-10.53867102239091	-4.52449045441948	-3.011225125407792
O	-13.51823364239091	-4.2808632144194805	-0.6913061397077923
O	-13.849809042390909	-0.55962694441948	-1.4294528604077923
O	-10.20770978239091	-0.1630022244194801	-0.6830479281077924
O	-10.70287514239091	-1.8896910344194802	2.609101714592208
O	-11.48335278239091	3.55062652558052	2.632137994592208
O	-8.63572103239091	2.4073119255805198	4.855572114592207
O	-4.730720202390909	4.77423925558052	11.915041434592208
O	-1.6444280243909095	6.99641393558052	11.618539634592207
O	2.0582734176090907	6.24977980558052	12.242044334592208
O	3.139866347609091	7.708096755580519	8.911025934592207
O	0.9041858376090905	5.68949951558052	6.712580134592208
O	0.8999576076090907	1.9794092655805198	6.153879404592208
O	-2.0143981943909095	0.7899386545805198	8.372117404592208
O	-4.846804172390909	-1.7593120044194803	7.954062954592207
O	-4.389887952390909	-4.859270834419481	10.148435734592207
O	-7.189022222390909	-7.154268134419481	8.948906304592207
O	-8.98029304239091	-8.74135692441948	5.994162864592207
O	-6.34386612239091	-7.3190401044194795	2.593692424592208
O	-3.8068386023909095	-7.5894348944194805	5.466151854592208
O	-1.6619303713909095	-4.48705626441948	6.132163724592207
O	4.940001507609091	-4.877948904419481	6.443851924592208
O	10.90794135760909	-4.14766554441948	6.174350194592208
O	13.21384015760909	-1.7715272744194803	4.331407544592207
O	10.96610325760909	-1.4779289444194803	1.2734529145922076
O	10.52637025760909	1.72912330558052	-0.7457560204077923
O	12.18667625760909	4.98010878558052	0.09212505259220771
O	-5.00089003239091	12.10680899558052	4.646197234592207
O	-8.42602394239091	11.85598359558052	1.0156014145922079
O	-6.335538992390909	12.24674439558052	-2.118552445407792
O	-3.4442328623909093	9.978067105580521	-2.840581155407792
O	-2.8266812123909095	10.722065025580521	-6.563385975407793
O	0.7423795576090906	9.41919967558052	-6.920075235407793
O	2.864343107609091	10.80080742558052	-4.068305625407793
O	6.51359141760909	10.014915415580521	-4.800371295407793
O	9.48285085760909	8.32613925558052	-3.1147747854077923
O	8.754231457609091	5.08802807558052	-4.979695695407792
O	5.50446524760909	5.0065310755805195	-3.1272864954077924
O	6.729354197609091	5.75889352558052	0.4274126645922077
O	7.96333771760909	2.80234563558052	2.4584472945922076
O	10.35470815760909	2.53853634558052	5.332208774592208
O	10.14269415760909	0.34227920558051983	8.403971514592207
O	9.87240745760909	5.41307735558052	10.059277134592207
O	8.40541276760909	6.39213843558052	6.687190804592207
O	4.962694817609091	5.26133586558052	5.856646534592207
O	3.0251719976090903	6.80958928558052	2.952648884592208
O	1.7927076676090907	4.01872881558052	0.8923305645922076
O	-0.10838752239090943	3.24446683558052	-2.307210265407792
O	1.5488629576090904	0.8885660472805199	-4.365324535407792
O	-0.6276757593909095	0.37906578858051987	-7.479946385407793
O	-1.5217329822909094	-3.37625825441948	-7.095791505407792
O	2.1786305776090904	-4.14852378441948	-6.727097355407793
O	3.5173312376090906	-2.92703885441948	-10.069007095407793
O	2.580187037609091	-2.70155722441948	-13.629952265407793
O	3.3573622576090902	0.8889462001805198	-14.639577965407792
