81

O	-4.391450745355932	-0.4833519406271187	0.2064823250000009
O	-5.5450909053559325	-3.1807388806271186	1.170414279000001
O	0.6988198546440678	-2.505765590627119	1.107956069000001
O	-1.6634317243559322	-4.689549760627119	1.296046519000001
O	-1.4627923493559323	-2.5107390206271187	-0.03953762399999908
O	-4.307015475355932	-4.558522800627119	2.000267559000001
O	2.6980851546440676	2.870490239372881	0.9395737590000008
O	2.068313784644068	-0.6690740206271186	1.125121679000001
O	3.086310004644068	1.5485878893728813	1.073404189000001
O	0.47365668464406774	2.3216784693728814	0.6971120640000009
O	-1.3031147753559322	-0.10834491162711868	0.738566290000001
O	-3.301164285355932	-1.455812510627119	0.2904165490000009
O	-2.184038765355932	-3.5075054806271186	0.46585937600000094
O	1.4211710346440678	3.315059559372881	0.7576818840000009
O	2.024338754644068	0.6890902892728813	1.332957539000001
O	0.7472466546440677	1.0144538763728812	1.020142179000001
O	-1.9585381443559322	-1.3156458106271187	0.45134986100000096
O	-3.418484215355932	-2.8747280506271187	0.470204490000001
O	-0.019298325355932233	-0.2238182896271187	0.7991387130000009
O	0.8297685646440678	-1.2990676306271187	0.9805420290000009
O	-4.1059209453559316	-3.300421290627119	1.651461169000001
O	1.497089474644068	4.643329309372881	0.7014467490000009
O	-2.209633565355932	-4.276148970627119	12.615197599
O	-5.071035325355933	-3.8823824106271188	10.175753999
O	-5.899941295355932	-0.6536900306271187	8.284916029
O	-4.949846985355933	-0.6536038906271187	4.6702619090000015
O	-6.7047669353559325	2.4215904493728813	3.4565028090000007
O	-8.160298155355932	5.418639829372881	5.183747779000001
O	-8.898030205355932	8.833235279372882	3.8721871990000007
O	-5.471284875355932	9.701658589372881	8.227113669
O	-4.704354195355933	6.162081769372881	7.130300619000002
O	-2.126749565355932	3.533555549372881	6.2126691690000015
O	-1.8685150583559322	0.42230357937288127	8.355407579
O	-0.07155206535593228	-2.908757050627119	8.280046779000001
O	2.4694860646440677	-3.273961420627119	10.998586499
O	5.380946274644067	-5.378713470627119	12.189331999
O	8.673464174644069	-3.6399830406271185	12.832292099
O	5.953830264644068	-6.419180690627119	7.8128037190000015
O	5.6369594346440675	-2.802406770627119	6.765690609000001
O	3.0187720646440677	-0.18910193862711877	5.982036799000001
O	2.7233298446440677	2.7625989593728812	8.380754659
O	1.2319575346440677	6.096745569372881	7.329592239000001
O	-0.3269510653559322	8.298018689372881	10.038357399
O	9.95984377464407	0.35752646237288127	-8.663089951
O	8.667760614644068	2.746779759372881	-6.021653530999999
O	7.233515364644068	2.078033829372881	-2.5585076309999994
O	6.063106564644068	7.306549089372881	8.193642369
O	7.1070748446440675	3.6741340693728812	7.645787269000001
O	7.152925784644069	2.3013885893728814	4.112404969000001
O	4.032299834644068	-3.217896790627119	2.4700497190000013
O	1.5185469146440678	-7.690400340627119	-0.27103339099999907
O	-0.5578377903559322	-8.092399900627118	-3.482619970999999
O	-1.975035733355932	-4.598162770627119	-3.313708960999999
O	-2.9772719053559324	-2.261339210627119	-5.9934538009999985
O	-2.353054285355932	-3.1950558006271184	-9.637933021
O	-5.851248685355932	-2.2747766706271184	-10.840114001
O	-7.441371215355932	-4.872859190627119	-8.581822061
O	-4.704107335355932	-7.40649976062712	-9.435506601
O	-3.986647665355932	-13.523168970627118	-4.142867680999999
O	-2.0423450983559324	-14.263587870627118	-0.959176392999999
O	0.1620664346440679	-15.958710670627118	-5.792104190999999
O	-0.19728969835593224	8.050798159372881	-11.943068101
O	-2.7547797953559323	5.298440869372881	-12.516315801
O	-3.1228223753559323	1.5659705743728813	-11.932875501
O	-5.066908325355932	2.2180909893728815	-8.713527040999999
O	-1.9525737953559323	3.9092869593728814	-7.330510520999999
O	0.6157432746440679	1.2976014323728813	-8.313360901
O	1.174426114644068	-1.550563510627119	-5.884727680999998
O	2.520812124644068	-5.085975340627119	-6.511164880999999
O	4.7614930746440685	-7.071307490627119	-4.145472630999999
O	6.712211034644067	-10.373730770627118	-4.036600340999999
O	5.352974084644067	-3.0799616506271184	-9.333963641
O	5.934600494644068	-0.17554727662711878	-7.032347140999999
O	4.643540044644068	3.3386415493728814	-7.677490990999999
O	2.8829286246440677	4.510621059372881	-4.512032380999999
O	1.7230698646440676	7.758217629372881	-2.993543450999999
O	-1.7588947073559322	6.450490999372881	-2.112546990999999
O	-3.286513785355932	9.847228569372882	-1.3055033109999992
O	-3.467020175355932	9.439766509372882	2.448917949000001
O	-5.054853425355932	5.979760719372881	2.028973819000001
O	-8.294149435355932	6.990117589372881	0.2953152400000009
