17

O	-5.7270371944928895	5.799918221128025	35.61810833745679
O	-8.117959496881566	5.7424612269982545	38.41293772771395
O	-10.081911108220826	4.077879918397215	31.77187332843853
O	-8.158360890694883	5.482432515100226	35.737852449113646
O	-9.21132577771451	5.171444525389728	36.48996189705464
O	-13.026390608919964	5.22247655014982	34.76021366231133
O	-10.888905729960953	6.269386605482268	35.228491762731075
O	-5.959230931035475	6.223608918465597	38.24840680617059
O	-9.982176304604003	4.8608154692678704	32.93284511241219
O	-10.317850708519373	5.543079086383798	38.47093951398028
O	-6.969893495819525	5.6688328986131316	36.37608672045298
O	-10.51929811588949	4.106612563550283	34.960214819838626
O	-7.011643852388192	5.8632451278031255	37.71538293653141
O	-9.243372611956168	5.423416201324815	37.80475228229539
O	-11.84626797223208	5.74429692402537	34.203884230537
O	-10.506882185059233	5.029213914715184	35.914584301396644
O	-11.169341439102936	4.4744174266438375	33.81994339422187
