77

O	-1.0087147481500005	-1.0589111453666669	0.5036660784666666
O	-0.8534287591500005	2.078224114633333	2.418124410466666
O	1.9893329448499995	1.5191534596333334	-4.088627399533333
O	-0.25108990615000054	1.2088097086333334	-0.053036237533333475
O	0.15647493784999944	2.3944281146333335	0.39341319746666653
O	1.0555873548499994	5.405892344633333	-2.376430289533334
O	-0.4309895321500006	3.7068664046333333	-1.4889920295333334
O	-1.7126133931500005	0.07382813763333329	2.8217096904666663
O	1.0600508348499995	1.9138356046333334	-3.1132037195333337
O	-0.24702818615000055	4.126058034633333	1.8512969504666665
O	-0.7407644096500006	0.33147059163333337	0.8662231334666666
O	1.6377453348499993	2.9698406346333335	-1.2373912995333334
O	-1.0930149401500007	0.8337305696333333	2.0732475904666665
O	-0.25052023515000055	2.8877328646333336	1.5699317204666665
O	0.3935626948499995	4.194739934633334	-2.6397201795333336
O	0.6155672048499994	3.3985680946333336	-0.5069714535333334
O	1.5493825448499996	3.2582665646333333	-2.5666986995333336
O	10.282708084849999	-11.310028965366666	-4.420452689533334
O	7.198749094849999	-9.959858165366667	-6.225237649533334
O	4.331610554849999	-9.051208985366667	-3.9259133895333336
O	0.5772847548499995	-8.673513295366666	-3.412701609533334
O	-1.8572096251500005	-5.826796035366667	-2.8640367695333335
O	-2.2414686951500005	-2.5778783553666664	-4.807524809533334
O	-3.6415474151500007	-2.8964679653666665	-8.361736049533334
O	-2.1151479651500003	-6.377425565366667	-8.776565339533335
O	3.45650626485	-5.735925145366666	-9.253305049533333
O	10.41067058485	8.385202594633332	1.5234806704666666
O	11.224189584849999	11.102041534633333	4.049561080466667
O	8.536228864849999	13.658711634633333	3.1070413204666663
O	7.23087341485	12.126279234633333	7.950823550466667
O	4.43958770485	12.288339434633333	5.315622650466667
O	1.2182077448499995	13.814695834633334	6.732610460466667
O	0.10978969384999948	15.460880634633334	3.5055874304666665
O	6.775267384849999	6.745236284633333	-13.057026929533334
O	10.72700968485	-1.3606618553666667	-6.372397259533334
O	8.358558224849999	-0.2752846153666667	-3.5443678495333337
O	10.561948284849999	-2.1721614253666663	-1.0699015895333335
O	8.075275894849998	-1.7825537153666664	1.8260187304666666
O	9.222838474849999	1.8222874746333333	2.3512805504666665
O	8.85669349485	-5.686538915366667	-5.662925109533334
O	6.61105357485	-4.393873535366667	-2.8733624695333337
O	3.2881644948499993	-4.448912405366666	-0.9918332195333335
O	2.9463402848499998	-7.329371755366666	1.4820652304666666
O	0.3174893748499994	-5.608299805366666	3.6586314304666665
O	-0.23319351215000056	-2.1045502853666664	4.856862670466667
O	-3.9008186051500005	-0.7478251853666668	4.968688300466666
O	-4.368836845150001	-2.4430388453666665	8.324640200466666
O	-3.814639035150001	-5.827539725366667	6.660944820466666
O	-0.6008304631500005	-6.194293475366667	8.708546450466667
O	2.9360028048499993	-6.775900605366666	7.318365170466667
O	4.28984900485	-3.6728952853666668	5.582823120466666
O	7.611081394849999	-2.5726346453666666	7.087789620466666
O	8.662970364849999	-7.338916765366666	3.9838964104666665
O	-5.71458458515	-8.081636165366666	-7.7329319495333335
O	-9.497518745150002	-8.214391415366666	-8.334047169533333
O	-5.66775047515	-6.830712815366667	0.6293096584666665
O	-5.39398926515	-3.0513743553666663	0.12512792446666654
O	-8.28588861515	-1.1079952253666665	1.6576497904666665
O	-7.98474116515	2.5823816546333336	2.4519506704666663
O	-11.13615591515	4.676220254633334	2.4566399904666665
O	-9.53524841515	3.9860715146333336	7.668641460466667
O	-0.8458978311500005	6.666582694633333	9.272702660466667
O	0.9398961348499995	3.7730711946333333	7.499523920466666
O	2.3252856048499995	5.918744964633333	4.695961290466666
O	-0.32030217415000056	7.607438614633334	2.583738000466666
O	0.6780440648499995	8.081457994633332	-1.0286586495333334
O	-2.1335042951500007	7.879268564633334	-3.6042722995333336
O	-3.98155581515	5.622488924633333	-5.973880029533333
O	-7.71921196515	4.9206794546333334	-6.5353597995333335
O	-8.764694845150002	8.137370944633332	-4.760725289533334
O	-7.725397415150001	6.485685004633334	-1.4587945095333334
O	-7.35130676515	2.7817847146333334	-2.2199811895333337
O	-9.055395495150002	-0.30406323336666663	-3.5000325295333337
O	-8.04894965515	-3.9550775853666664	-3.7298949695333334
O	-10.258342855150001	-6.361604305366667	-1.7494587195333335
O	-10.460355955150002	-2.1419854453666667	9.853989080466667
O	-9.54569048515	-1.3297252853666666	-11.643189429533333
