30

O	26.136940534759592	36.904671523148664	83.42701038730132
O	26.434039670597745	37.85059948626322	84.35629801062947
O	25.318779986591395	38.35935313800545	84.87255857884179
O	24.23936037102186	37.65030837474308	84.45471173265354
O	24.770174341064198	36.77117326038446	83.52234858442708
O	25.213802432115834	39.32330085822353	85.82314790966007
O	23.955798500590955	39.43862443058046	86.41125072831119
O	22.814906660203604	38.94046715685575	85.84120016463523
O	23.027873635140168	37.99798525425595	84.90261671387913
O	21.564194410561157	39.75341418504662	85.95626424033294
O	26.325474469902634	40.12511674237576	86.24202070880432
O	26.572832741476518	41.381379716062206	85.59338222939837
O	27.48711969180641	42.30027240574574	86.34188564409037
O	27.489631724534	43.678436173545364	85.96522188992729
O	26.961731310412038	42.32003704150754	87.74843718545782
O	28.920898201026013	41.85734961623565	86.40185787738257
O	27.058971494448173	36.10787402715328	82.65844751592162
O	28.413098624370893	36.4829899841115	82.5759798232727
O	28.812688031821516	37.62154753797961	83.2021189493378
O	30.103815121717886	38.03723117558869	83.36090893289675
O	31.087044917268585	37.199638049266355	82.93836649143404
O	30.779442687526192	36.12083443629873	82.16502000933377
O	29.454716161125997	35.82533105473491	81.99610039482887
O	23.9829610948712	35.76982732289298	82.8338196988471
O	24.48796177944658	34.65310369086212	82.66570165261189
O	22.545287667359155	35.797082502725964	82.8735110835679
O	30.55508635143586	39.246257319623794	83.88347201728573
O	31.901215352314882	35.35590579903408	81.82708225222987
O	33.10534143434599	35.983301674873715	81.47099656097423
O	31.857009489762746	39.45319317126689	84.35784533723425
