44

O	29.247820735506696	43.39832034156453	86.34160186471719
O	25.46666356547505	35.85028092582585	82.36880919068493
O	16.782754089142916	38.5621501505268	86.35119108019431
O	28.487051802400206	45.69408235800274	87.34022669690354
O	28.49973883129516	44.59886699748795	86.44061221501777
O	21.18090302714073	39.49780828397408	85.27355864689491
O	27.287416286234166	43.95951888910364	86.56063477622129
O	17.95733672452103	40.2935351994992	86.35919097831922
O	26.71849976909542	42.651724756478636	86.29598695055421
O	26.738215941645105	36.61492711131279	84.0121073660293
O	26.519448079034852	38.720863974309474	82.98537318801998
O	27.525050230900035	41.61196938596795	85.48875231238964
O	28.622597730061624	42.03904879008323	86.25359408552436
O	23.30895733408356	37.97499468856137	84.91793977747382
O	17.864410140475908	39.14096716555055	85.60478309834326
O	26.666431530686506	37.73688466104036	82.02311713181665
O	22.10594775571263	38.4333528994059	85.22178678142687
O	21.08114020079603	39.66150291955596	88.41126910580978
O	20.33781959304363	40.75045619332566	87.5726964141992
O	19.265863500497915	39.94652803355817	86.87639929412836
O	20.169681127611405	39.950375326715566	85.68949701192885
O	21.35622885892778	39.032651065981675	86.21133949333621
O	18.816064757252644	38.1813946553769	85.54743403139544
O	18.94887903831556	37.635481692430425	86.87451033941562
O	19.941820090461388	37.887562894163004	84.34478085560636
O	18.94885296616507	38.38939501700468	83.43855592562657
O	18.212653643831658	37.38513325033549	84.33995288447203
O	18.83556320004972	36.86680749501198	85.6457157792972
O	17.487123968705276	39.101074094325334	83.41617278623075
O	21.601980730375598	38.57868446590156	87.52246979229977
O	23.140957028657716	38.29604233699148	87.5079201074935
O	24.74277563204313	36.86960418294397	82.97323476120745
O	24.079391717280394	36.928775649957565	84.42015185185119
O	25.461050104334774	36.947174337739376	83.95119250816126
O	26.826564173606453	36.34681984794848	82.51230936117906
O	20.49942587650963	36.46889135689071	84.62043136209589
O	27.125454657413577	39.074970907883355	85.20293898368259
O	26.77727431779627	40.46356662632063	85.25430141664144
O	25.42136471208252	40.33519657011167	84.72777667607528
O	25.514768556109093	39.6359433297563	83.41600579418214
O	27.690658035270573	38.72486160073898	83.86434746967517
O	16.098621997569534	38.91356335304718	83.60285506846131
O	16.68752907744023	39.177362461088045	82.19971522719021
O	17.06849139331181	40.42675977564866	83.5237509875462
