77

O	0.2074955310085107	0.37111949019148927	-0.5582927889361697
O	-0.7500475519914893	1.1741462973014893	-0.02454913693616978
O	-1.6644157669914892	0.4460300191914892	0.6102239470638302
O	-1.4652054359914892	-0.8750304268085107	0.3702203810638302
O	-0.2680539519914893	-0.9003512768085107	-0.3298726407361698
O	-2.7663548589914893	0.8930300041914893	1.2657823510638302
O	-3.7166788889914892	-0.08333245680851076	1.5579106210638303
O	-3.4334747189914894	-1.4228765368085108	1.5709322110638302
O	-2.314284438991489	-1.7612924268085106	0.9020123610638302
O	-4.070977348991489	-2.2612710668085105	2.6335180910638303
O	-2.974304478991489	2.2753902931914896	1.5820335810638302
O	-2.5303837889914895	2.783388383191489	2.84891440106383
O	-3.1279738689914893	4.0997714131914895	3.23693963106383
O	-3.0350026689914893	4.4871323131914895	4.608991071063831
O	-4.60469206899149	3.9438388531914894	3.0137822310638303
O	-2.6687277589914893	5.270845033191489	2.41646558106383
O	1.3538254810085109	0.7678295321914892	-1.3356376389361697
O	1.7679779010085106	2.1130490821914893	-1.3415807689361696
O	1.088344271008511	3.007010873191489	-0.5754439349361697
O	1.2503597210085107	4.362909853191489	-0.5929155609361698
O	2.0993709910085108	4.879510223191489	-1.5198185289361696
O	2.9330410010085104	4.05671803319149	-2.21588495893617
O	2.7477141010085107	2.7088497031914893	-2.0756659889361697
O	0.32729134100851076	-2.115360316808511	-0.8454183929361698
O	0.8470939610085106	-2.073096426808511	-1.9671937889361697
O	-0.14790849899148917	-3.409269656808511	-0.4340707699361698
O	0.6698198010085108	5.304737013191489	0.25230459906383024
O	3.730989061008511	4.7435992831914895	-3.13738628893617
O	4.30816114100851	5.97629990319149	-2.79436471893617
O	0.5794581410085107	6.67040101319149	-0.04711644393616979
O	-5.204935928991489	0.46287905319148925	-12.46798377893617
O	-2.6613679189914894	3.2802917831914895	-12.71313357893617
O	-2.524634038991489	5.381864283191489	-9.54897592893617
O	-4.852527288991489	5.63993285319149	-6.539429898936169
O	-3.039298588991489	5.13866277319149	-3.19597809893617
O	-6.235249678991488	5.67182207319149	-1.1318866839361699
O	-9.963995648991489	6.169432163191489	-1.1917309049361697
O	-10.243446048991489	2.3059764031914893	-2.96079677893617
O	-6.722901158991489	0.9917772481914893	-3.25465249893617
O	-4.75746448899149	1.5920030271914891	-6.40922725893617
O	-1.2682488783914891	0.9626099271914892	-7.71537330893617
O	-1.4469663649914892	-1.0054116868085108	-10.95995277893617
O	0.4927671810085108	-4.728914986808511	-7.867895568936169
O	-1.8050684219914892	-3.20482831680851	-5.27300044893617
O	-5.513539148991489	-3.39345024680851	-6.03882480893617
O	-8.082310768991489	-3.08761128680851	-3.25412707893617
O	-11.566752298991489	-2.5348789568085106	-4.78537129893617
O	2.1723644910085107	-8.76863822680851	2.31898842106383
O	-10.858692638991489	-6.850898796808511	-6.1751577589361695
O	-8.12802818899149	-8.289392016808511	-3.9793989689361697
O	-4.7376313389914895	-8.020642366808511	-5.64763638893617
O	-1.5998727789914893	-8.160281206808511	-3.53392062893617
O	2.171475411008511	-7.6857536968085105	-3.55487152893617
O	3.0174718710085107	-3.9612707868085106	-3.90252228893617
O	5.195404911008511	-2.124742686808511	-1.3708731789361697
O	6.908596671008512	0.8350635351914892	-2.96533803893617
O	7.324919631008511	2.9531846631914895	0.16841465006383022
O	3.8674320610085107	2.7687522431914893	1.6119333210638302
O	2.8167997310085107	2.750276773191489	5.180364721063831
O	5.512928471008511	2.8112897331914892	7.90550056106383
O	3.827313041008511	5.5951835531914895	9.81809782106383
O	4.044544151008511	7.716077133191489	6.658643121063831
O	7.504297551008511	6.60085986319149	5.50811717106383
O	9.17146870100851	7.59166515319149	8.78232485106383
O	8.060936251008512	11.187689263191489	8.11984415106383
O	9.571420501008511	11.47010246319149	4.629551311063831
O	2.6307254310085106	1.4223481881914892	12.27090732106383
O	-0.1515877089914892	2.4060915031914893	9.896675421063831
O	-0.6055980569914893	-1.258359726808511	9.07320930106383
O	3.042002041008511	-2.018575636808511	8.394527421063831
O	4.10326269100851	-1.5165666168085108	4.7630514710638305
O	7.608275351008512	-0.6609917868085107	3.54916562106383
O	9.359627101008511	-2.016894866808511	0.45564181306383017
O	5.798269251008511	-6.444073106808511	6.111256911063831
O	2.590815031008511	-6.89798186680851	8.13208893106383
O	-0.5401684899914893	-5.671267666808511	6.35551792106383
O	-4.28283164899149	-5.404409116808511	6.73423725106383
