105

O	-3.574785273070313	6.519902703109375	-3.4881950995
O	-3.867568713070313	3.4749965331093753	-1.7885502355
O	0.6122899889296873	-0.4698735568906247	1.5703561405
O	-3.5361888030703126	2.1363414631093756	-1.4740632155
O	-3.4055487630703127	5.440230273109375	-2.6225271195
O	2.1924019969296875	-0.5997737268906247	-3.3320617795
O	-2.2571383330703125	1.5114540311093752	-1.5411095005
O	2.2234485769296874	-1.2171949968906246	0.8350507705
O	-1.2577002330703126	2.0456306231093753	-2.3610845595
O	2.770153286929687	-1.3219428768906247	-1.3042431955
O	5.822928466929687	-4.466812866890625	-1.4294360954999998
O	-1.5544239730703127	3.378010823109375	-2.2152033395
O	-2.9177914630703126	4.169429933109376	-2.5879481095
O	5.013344326929687	-1.8918731668906246	-1.5949230965
O	-1.2238098850703127	0.3650057691093753	-0.7722307095000001
O	-0.3905842730703127	-0.4837424568906248	-1.7455776625000001
O	0.5555659759296873	0.24959504610937533	-0.9388954169
O	0.038750457929687315	1.3913481101093752	-1.6272735695
O	0.41560552692968733	-2.4887192068906243	0.6946414005
O	-0.7618846660703127	-1.4642159268906247	0.34983909050000006
O	-1.4450150630703127	-0.7758592968906246	-0.8425714546999999
O	1.1543892569296872	-1.8076102768906248	1.5990327105
O	1.4826898969296873	-1.569567516890625	-0.2941117865
O	2.714646086929687	-2.3048249568906245	0.5837572805000001
O	2.6863789469296875	-3.530280216890625	1.3824724305
O	2.948587626929687	-4.093585276890625	0.13172701050000002
O	2.314561486929687	-3.603789426890625	-1.2217018785
O	1.7863986869296875	-2.1093323868906246	-1.5573412785
O	2.9526861369296875	-3.6333876468906245	2.7371774805
O	-1.1595810730703127	-2.861175036890625	-1.3855218755
O	-0.020046329070312674	-3.3431013868906243	-0.28562215150000003
O	-2.1231354930703126	-1.8314690768906245	-1.5417283904999999
O	-2.2401544130703126	-1.4914298268906248	-3.0104868895
O	2.789498136929687	-0.1504873508906247	-2.1814146095
O	4.089900906929687	-1.1541294868906247	-2.3510337595
O	6.421236106929688	-1.6663363568906246	-1.5687648505
O	5.146051716929687	-3.2411120768906247	-1.4434386875
O	7.346648306929687	-2.839015576890625	-1.8732613805
O	2.1091898669296874	-4.418055076890625	3.4030485405
O	4.099191516929687	-4.205305296890625	3.2944781605
O	2.8158198969296873	-2.639476446890625	3.6982559605000005
O	-0.4231876970703127	4.652669113109375	-11.8686758295
O	1.4388795469296873	2.569189373109375	-14.4203619295
O	5.011600586929688	1.3291956301093752	-14.0846409295
O	-0.24698524657031268	-0.9364298168906247	-12.5308367295
O	-2.4091920430703126	0.36250448310937533	-9.6762676995
O	-5.992501413070313	1.0247772431093753	-10.4928964695
O	-8.978429493070312	2.4922445031093754	-8.7881245295
O	-10.861784143070313	-0.2819212318906247	-3.9211552595
O	-7.299857953070313	-0.022286290890624727	-5.0867863795
O	-5.998122553070313	-2.845974616890625	-7.2578312695000005
O	-2.292490283070313	-3.469453966890625	-7.651377059500001
O	-1.5800755430703126	-5.823870606890625	-10.5634090195
O	8.290212306929687	-10.820350446890624	-3.8638271795
O	5.108122236929687	-9.101018816890624	-4.9203673295
O	2.830732766929687	-11.129414046890624	-2.6361351395
O	5.333152446929687	-10.840498246890624	0.2361660204999999
O	4.006173616929687	-7.486230116890625	0.8625063605
O	0.41007872792968725	-8.459999796890624	1.0850065105
O	1.5082313369296874	-11.200774146890623	3.5183542305000004
O	3.1278984969296872	-8.560332146890625	5.664032510499999
O	-0.0019088440703126652	-6.379883166890625	5.4894193305
O	-2.000618203070313	-9.386420546890625	6.9812622105
O	-0.20791474607031268	-5.205399866890625	10.3190321705
O	-3.886602493070313	-4.175119806890625	10.6466467705
O	-2.504139873070313	1.9275031131093754	8.1287726305
O	-3.9660438630703125	1.3190361231093752	4.6613263205
O	-5.950084663070313	-1.9816967868906248	5.0643575704999995
O	-5.4030732130703125	-5.277006886890625	3.0900607105
O	-8.707191343070313	-6.223804186890625	1.4366977505
O	-5.683990943070313	-11.173722746890624	-3.0802124895
O	-3.6828943330703128	-8.800609236890624	-7.7043647195
O	-3.4868278930703127	-7.334898786890625	-4.1970886195
O	-6.771805433070313	-5.443549786890625	-3.3620419994999997
O	-6.804608193070313	-2.7581969768906243	-0.5871639735
O	-8.460700103070312	0.22618946110937532	0.9660058404999999
O	-8.750624073070313	3.208721793109375	-1.4272453125
O	-7.476013423070313	6.636270503109375	-0.5500248835
O	-9.334930993070312	9.320997353109377	-2.4729234995
O	-3.5824604430703126	10.012784863109376	-3.2778392194999997
O	-0.010572575070312673	10.344594353109375	-2.0664194195
O	0.6431870659296873	13.115164153109376	0.4834075805000001
O	3.5560146569296873	14.521490653109376	-1.4930330865
O	4.708190626929687	-0.5001199368906246	13.6991407705
O	10.325902156929688	-1.6194478668906245	10.4008157705
O	9.129466126929687	0.2687919381093753	7.3508486805
O	10.633429256929688	3.6786307631093758	3.1334381204999997
O	8.995348496929687	6.341355893109375	5.3310477305
O	8.514988636929687	9.497184473109376	3.2064975305000005
O	5.634524706929687	11.722373953109376	2.0717688205
O	5.363809176929688	9.763107213109375	-1.2007469634999999
O	4.410910826929688	6.8412671031093755	0.9985825105
O	1.6904454769296873	8.455814723109375	3.0859962805000003
O	-1.7262913530703128	8.153569863109375	1.3874508205000002
O	-4.515344163070313	10.667114553109377	1.9207320105
O	-8.196827043070313	10.030871593109376	2.2992861605000003
O	-2.420426363070313	6.524649323109375	6.5861562905
O	0.9614628569296872	4.787979313109375	6.3299944505
O	1.4319744769296874	2.979160343109375	3.0619955505000003
O	3.964688086929687	1.2786867331093754	1.0262467105000002
O	5.390374936929687	-1.4030129368906248	2.8907766505000003
O	7.300642296929687	-3.3735455468906244	0.7087430705000001
O	10.483156256929687	-2.681658946890625	2.1610693505
O	8.850659986929687	-3.3155171568906248	5.5197477605
O	10.560262756929687	-6.041725026890625	7.378407380500001
