32

O	23.284465164487983	38.28985513998131	84.4363433765426
O	23.197923929274115	39.53992775379545	85.00642027151044
O	24.602737109967375	39.6483951934063	84.46924316430133
O	25.54559745011857	38.74253309018225	84.4549116333753
O	25.230530667200743	37.91811851757609	85.48669333999747
O	24.12556719738343	37.41946479413135	85.12951587933709
O	23.300527830043286	36.28649893618301	84.47451951421002
O	24.56971298959773	36.59507744458925	83.61500968448226
O	23.81618010123553	37.537856987194	83.2852302840955
O	21.951887596055993	36.66865788155961	84.41039400582487
O	21.257700579650496	37.70181667329995	83.95830342029723
O	21.55755389845732	37.40173422894351	85.71926764988594
O	25.79665395650695	36.43061557847503	82.98761589013168
O	27.079303253426023	36.914722480553344	82.77796199380535
O	28.091247500848098	36.022186719049785	82.32583951341239
O	29.439374787099702	36.249262530829526	82.45782287519596
O	29.701153510519894	37.086545100791604	83.56858414705992
O	29.075140249071083	38.31905645589292	83.33736497130778
O	27.8428584589768	38.094709815973204	82.78707712246153
O	29.75659781892533	39.273437397150445	84.10977935521814
O	31.149708100226988	39.39432352530666	84.08377114658158
O	30.679486861749183	35.615710825636704	82.2452880239729
O	31.583690989824966	36.04498576201043	81.26781852175864
O	26.878441100928235	39.56430027520625	84.83180325858724
O	26.611103758937638	40.701980342328696	85.8588170775039
O	23.748556428608246	40.1004000047246	86.10094123234506
O	23.581879455554542	41.363352437314354	86.55833256772512
O	24.04839224306275	42.330937115527334	85.56346937996432
O	23.131176616381595	43.41766436772794	86.01283817909598
O	26.47073855842129	39.66558621097198	86.47663983855641
O	25.25835301525144	43.1749521359262	85.60297942607824
O	23.55392975744626	42.05415445686118	84.23669084639849
