31

O	19.123605526234112	38.32274966302419	87.3021991782812
O	23.32427268867556	36.7035589739736	84.68909667117707
O	24.50409709811744	37.311033823882184	84.80079138354404
O	25.20927331980657	36.817023694621064	83.72224152046842
O	24.10844201284863	36.11245060825243	83.19705295379265
O	22.999954846564027	36.84369844583675	83.47221018538609
O	24.448440404428577	35.380966235895215	82.23262988200965
O	26.603228729543456	36.90996148013118	83.74691076717642
O	27.39199196407722	37.97599833828312	83.31819574384407
O	28.688268048591176	38.13385614865834	82.86061555294287
O	29.481972374664178	37.06619307889311	82.79757214590406
O	28.93337529538104	35.89830881297131	83.0966952606983
O	27.576670947535025	35.99073893374306	83.17436642975755
O	30.852269577689214	37.19985464761736	83.07074195972088
O	31.017626292790915	37.789335291724065	84.33425095151898
O	30.208159788074873	39.07343282834389	84.26043049236503
O	31.036391219787077	40.09526884822408	83.88535575676015
O	30.984644537681287	41.15193400809264	84.79613039374333
O	29.792514832613016	41.644503039035136	85.23621960579943
O	28.723913412401245	40.78909167268811	84.97347401170059
O	29.19968818395181	39.48565735518204	85.14027886999727
O	25.48239281368239	38.138971212465975	86.07055134040648
O	25.674767378506303	39.682042159138504	85.21263731966971
O	24.241101338440725	40.117945443890726	85.49599784358082
O	24.224486026215676	40.96943641846608	86.44869781585203
O	23.101086869054107	39.2684006377561	85.65172037072986
O	22.943203757856434	38.64482738412018	86.82445508546091
O	21.73632621891949	37.99010306133807	86.98957945147421
O	20.60375472935837	38.241338049099085	86.30697662644427
O	20.762061485250303	39.318153046194254	85.48754682542491
O	21.99974752482958	39.53233514824948	84.94787703470803
