74

O	3.7852341063025534	-3.4154245883697874	-2.081463384127659
O	5.666947486302553	-5.423398588369787	-1.4651839481276592
O	1.6032906263025535	-4.421364728369788	-2.642216874127659
O	2.150539396302553	-3.1568639683697874	-2.406722444127659
O	0.23143816530255318	-4.369221058369788	-1.9795280841276592
O	-0.3387026122974468	-3.160027268369787	-2.409275444127659
O	0.5465774293025532	-4.158108908369788	-0.490433761127659
O	0.45072799730255325	-5.354685128369788	0.1992305658723409
O	-0.5451270416974467	-3.172545198369787	-0.08573664812765902
O	-1.5582736036974467	-3.9365684383697874	0.465810665872341
O	-1.0695742436974467	-2.621107998369787	-1.378420007127659
O	-3.8615298136974467	1.5455937316302126	-0.47900597012765905
O	4.547859576302553	-2.4702191183697875	-2.948234434127659
O	6.226671136302553	-6.651071308369787	-2.097273144127659
O	-4.215670313697447	0.26543127863021265	-0.49081506512765904
O	4.061791646302553	-2.919621418369787	-0.511562327127659
O	6.834097566302553	-4.2237935483697875	-1.508141586127659
O	-3.345040273697447	-0.7299764573697872	-0.636945360127659
O	5.327537396302553	-5.8086405283697875	0.1925210758723409
O	4.236028196302553	-5.015619128369788	-2.220250744127659
O	-2.094546803697447	-0.42996132836978734	-0.9740430211276591
O	-1.6965657036974466	0.8761255666302127	-0.913170969927659
O	-2.591280753697447	1.8742240116302127	-0.659460184127659
O	-2.227843003697447	3.226816651630213	-0.584499025127659
O	-0.4318494035974468	0.9296931716302128	-1.297908114127659
O	-0.014303993697446782	-0.36824615336978733	-1.419866807127659
O	-1.0537191686974468	-1.1917217283697872	-1.304858036127659
O	-7.736448623697447	-4.252764408369788	-9.45450983412766
O	-4.084400143697446	-5.224686978369788	-8.986005534127658
O	-2.929048433697447	-5.207419018369787	-5.35377981412766
O	0.6409809363025532	-6.259159538369787	-5.97276738412766
O	3.071753336302553	-7.136525838369788	-8.727526014127658
O	6.822884476302553	-7.129526608369788	-8.52979944412766
O	6.331050916302553	-2.7109171383697874	-11.17395605412766
O	2.787974556302553	-3.0670686883697873	-9.943214484127658
O	0.3165756363025532	-1.4218008283697872	-7.60569647412766
O	-3.340925083697447	-1.2641804083697872	-8.57571836412766
O	-6.588956883697447	-0.1024864553897873	-7.025635164127659
O	-3.782997973697447	3.4609265016302126	-5.325388174127659
O	-1.6197760536974468	3.470800011630213	-8.456380874127658
O	2.042893196302553	2.4509061716302125	-8.285424754127659
O	3.384959856302553	1.8674751516302128	-11.84030715412766
O	0.9207512163025533	9.380047681630213	6.49008942587234
O	-0.4124985119174468	7.970345961630213	3.224391865872341
O	-1.0040078576974467	11.064583921630213	1.0936410658723408
O	2.713991806302553	6.4054704616302125	-12.081350154127659
O	2.525549716302553	7.670628751630212	-8.515984514127659
O	-1.0629263286974469	8.001517081630213	-7.34176074412766
O	-1.8290551336974468	8.045965991630213	-3.638433004127659
O	-4.573506433697447	7.878809821630212	-1.028717657127659
O	-6.153932303697447	4.394826221630212	-0.927520977127659
O	-6.270189973697447	2.3090358716302126	2.272567675872341
O	-9.176741353697446	-0.1539566959697873	2.253901305872341
O	-7.569445443697447	-2.782860498369787	4.561573615872341
O	-4.019206353697447	-3.094626798369787	3.0414276058723413
O	-0.8305885566974468	-3.7683898483697873	4.951201145872341
O	-0.9488331716974467	-4.129116378369788	8.729439865872342
O	1.0962288763025532	-7.333809658369788	8.646138905872341
O	-1.5498658536974468	-8.825020208369788	6.338539425872341
O	-4.614049483697447	-7.314602228369788	8.067377955872342
O	-4.015797163697447	-12.225029278369787	9.966453445872341
O	11.973102526302553	0.7644429886302128	6.387756555872341
O	9.657983226302553	0.8992846416302127	9.392249645872342
O	7.8969134663025535	-2.435864518369787	9.756100845872341
O	4.318074436302553	-3.739019698369787	9.870044445872342
O	4.476035236302553	-4.522513418369788	6.14315290587234
O	4.890338386302553	-0.8121601383697873	5.509069175872341
O	1.9676555663025532	0.3463592246302127	7.649660175872341
O	-1.3752635216974467	0.5719809056302128	5.821938785872341
O	-4.833726143697447	0.20818624563021265	7.383785385872341
O	-0.7762137736974468	5.305131691630212	8.282452795872342
O	2.953597566302553	5.1464765416302125	7.47905304587234
O	3.727857786302553	3.9967497016302125	3.934851495872341
O	6.581247836302553	3.303553731630213	1.5430180058723413
