31

O	25.752288250099358	36.083531507512035	81.65581612150082
O	23.423191810536977	36.24741179980963	82.96471277745762
O	25.77355916515898	36.560015729878614	82.88168056682466
O	24.61563687431932	36.71864545809767	83.51701728373499
O	24.68803142510685	35.3709711665629	81.26409143342764
O	23.57297111287394	35.254041069061415	82.02957073968325
O	14.879773237074723	38.66202918485495	81.24612062892368
O	22.383797191913803	36.2080406595599	83.81150408630316
O	22.237684878739465	37.35952562264215	84.59240314942188
O	23.39550367116486	37.87754801451214	85.10099452305991
O	24.6288261716721	37.28960621394213	84.79005699413577
O	26.53033756469599	36.67319684827014	80.59090466162024
O	21.12068708467372	37.39461453447672	85.50545157291283
O	20.05539365955832	38.17275706135455	85.01635563537931
O	18.98769292342744	37.27296507603235	84.89819617688872
O	18.715916082559986	36.43072482106787	85.89382844354009
O	19.72131221921658	35.864872644162105	86.6930248518054
O	21.0011573113771	36.26385187802006	86.31145605866676
O	22.230536811014453	35.676187287130944	86.92075533104975
O	17.974774118184204	37.89323483629846	84.12106973273585
O	18.200281017071756	38.58042179641571	83.07830235690605
O	17.338497699351908	38.73672219357114	85.13481950255863
O	15.965075384700503	38.887370309822494	84.73922938897009
O	15.850919161408992	39.093493557505	83.3622472170065
O	14.71684091363074	38.89079256120227	82.65520803861652
O	13.629867169351698	38.56832876534622	83.37533786416608
O	13.769350501450463	38.5257439954612	84.7812533794868
O	14.964871151845216	38.16413702804389	85.3803113240985
O	16.077265360329406	38.11575924200515	81.02139593783356
O	14.083703940216095	37.81541331899639	80.60842633148175
O	14.779312209917116	39.80797818234516	80.58008858045268
