98

O	0.5567296476724134	1.895998184189656	1.868027632922413
O	1.0947963436724135	0.600811324689656	1.6077461829224131
O	-1.7343952203275865	-0.700326895810344	-1.4747281770775869
O	0.32304586967241344	-0.183208787810344	0.6997139649224132
O	-0.5895692063275866	2.314517924189656	1.164606512922413
O	-0.15337938532758658	0.624268514689656	-0.4251426310775868
O	0.5554830856724134	1.9024718241896559	3.314436812922413
O	-0.7609432793275867	1.9379127841896562	-0.2487593380775868
O	1.2509225996724134	-1.1687241558103438	0.2543114399224132
O	1.7935672496724133	1.526247293189656	3.899108852922413
O	0.07740603977241342	-1.238472435810344	-1.7101923470775868
O	2.2501262896724135	0.12150592118965603	3.7380763129224133
O	0.4580943176724134	-3.138713585810344	-0.1531678220775868
O	3.5845171796724133	-0.180658518810344	4.361922572922413
O	4.471946099672413	-0.343730691810344	6.702619902922414
O	3.3390726396724135	-0.298363323810344	5.832447122922414
O	6.092632439672413	-0.7418922158103439	8.929447622922412
O	2.2937100396724133	0.682227893189656	6.189463052922413
O	1.9716201396724133	1.8437129341896559	5.3434007129224135
O	0.6255065326724134	-1.9451409458103441	-0.7445962650775868
O	-0.6166666583275866	0.02232856018965601	-1.6859789770775868
O	1.9196260996724135	-2.025196075810344	1.145824392922413
O	1.6893988496724135	-3.356686065810344	0.6041222839224132
O	3.3765429896724135	-1.973066015810344	1.456384562922413
O	3.9028891296724133	-3.380657465810344	1.741364962922413
O	3.865431659672413	-4.278129445810344	0.5283292439224132
O	2.5361296696724134	-4.184886845810344	-0.2455334520775868
O	0.038176461672413425	-1.7198432958103442	-2.9774243570775867
O	1.3172668396724134	-2.350605615810344	-3.2683719770775865
O	1.6763431796724133	-3.757823965810344	-3.1393224770775867
O	0.5682024496724134	-4.617102225810344	-2.9777000870775865
O	-0.5576486543275866	-3.8622598158103445	-2.4554210170775868
O	-1.0724298203275866	-2.6785903958103443	-3.2004178570775865
O	-0.7157038593275866	-2.823693185810344	-4.642944797077587
O	2.3243429496724133	-1.811720945810344	-2.2471127070775867
O	5.0992924096724135	-1.629894785810344	6.839356022922414
O	6.328613709672413	-1.4522562458103443	7.7053470829224135
O	5.319400669672413	0.461768955989656	8.777296202922413
O	4.056789459672413	0.07361493618965603	8.017052182922413
O	5.660849139672413	-1.576798125810344	10.020102022922412
O	-10.006985510327585	-3.7976782858103437	7.794600882922413
O	-8.274607870327586	-2.094211245810344	10.714679422922412
O	-4.513309660327587	-2.7075678058103443	10.720004422922413
O	-2.3211611003275867	-5.208390505810344	8.864374382922412
O	0.5595407726724134	-3.6394681258103443	6.983582572922414
O	2.0026386796724136	-6.861005635810344	5.695553862922413
O	1.4871409896724135	-10.563755275810344	5.362024622922413
O	2.9017616396724133	-12.887327375810344	2.758360792922413
O	-2.0848301403275866	-9.744411175810344	3.149092852922413
O	-2.3835238003275867	-6.011128255810344	2.974568492922413
O	-4.325594390327587	-4.068802575810344	5.535556502922414
O	-4.999741500327587	-0.44650594381034403	6.345629402922413
O	-8.771594980327587	0.10621000818965604	6.495677692922413
O	-7.793598750327587	2.7820380041896557	2.1301236229224134
O	-5.265938890327587	0.020950549189655998	1.583905992922413
O	-6.702421710327586	-3.463960325810344	1.0975658329224132
O	-4.768438360327586	-6.205460005810344	-0.5973526950775868
O	-6.3955509503275865	-9.611074175810343	-0.05196016157758682
O	-4.071938520327587	-11.251392775810343	-9.066960967077588
O	0.7674097486724134	6.852114294189656	-9.186880987077588
O	-0.9974385203275866	4.9817798441896555	-6.343673077077587
O	-4.6393214703275865	5.044091884189656	-7.463410067077587
O	-6.7795445803275864	1.9301713641896558	-7.860320077077587
O	-9.879683710327585	2.407143774189656	-5.760943017077587
O	-12.067676910327586	-0.629845815810344	-6.186271837077586
O	-12.294301310327585	-4.380637775810344	-6.224366837077587
O	-14.326060610327586	-7.158756875810344	-4.610965397077587
O	-9.651448450327585	-7.673216145810344	-2.6814252770775866
O	-7.865036010327587	-4.828233925810344	-4.5404564270775865
O	-8.459039790327585	-1.558485775810344	-2.790169857077587
O	-6.244928380327587	1.4221866541896562	-3.4011917870775865
O	-5.281398840327586	4.888415784189656	-2.2757194170775867
O	-3.6214212803275867	4.870666894189656	1.152387812922413
O	-0.08201980332758657	6.264881894189656	1.638081592922413
O	0.45139702967241346	7.2398270441896555	5.259057832922413
O	4.269256539672414	6.858740834189656	5.344504312922413
O	4.737740279672414	3.468861554189656	3.6466228629224133
O	7.542502509672413	2.335497304189656	1.450526252922413
O	10.328183389672414	4.743245274189656	0.6261160389224132
O	13.021525689672414	2.204513794189656	1.505939442922413
O	11.551964289672414	2.031389524189656	4.998215012922413
O	10.647560589672414	5.703550064189656	5.422858502922414
O	14.216646689672414	6.8782208841896555	4.759823812922414
O	15.318053889672415	4.916106124189656	7.833157782922413
O	12.838851589672414	6.496675054189656	10.262438322922412
O	12.645911389672415	2.034136574189656	-3.4226160970775865
O	10.552038589672414	-0.741096935810344	-1.852493177077587
O	8.012388419672414	0.038153038189655986	-4.602690837077587
O	7.781842979672414	3.783250494189656	-4.067219677077587
O	5.205629549672413	4.834900864189656	-1.456314167077587
O	5.280015879672414	7.970256794189656	0.6338315099224132
O	2.3002225796724134	10.140577384189656	1.580215862922413
O	4.034549459672413	7.7373911341896555	-5.810982037077586
O	4.908788689672414	4.719018264189656	-7.966863187077586
O	3.477492179672413	1.492534826189656	-6.717976957077587
O	3.2827704796724135	-2.247578765810344	-7.457326237077587
O	2.3171809096724134	-2.815869885810344	-10.986584977077587
O	2.4275503796724136	-6.601636385810344	-10.935943077077587
