73

O	3.683467096122728	-3.0206147001704546	2.1456341636818186
O	2.608464506122728	-3.9371638801704547	2.5235187236818186
O	2.501357066122728	-4.700209360170454	1.188018393681819
O	1.8668765461227275	-3.8591556401704548	0.17627707968181888
O	1.8573073961227275	-2.3402860601704543	0.38734605368181885
O	3.190814936122728	-2.3092740801704545	1.0177687436818188
O	4.858084496122728	-2.9474588401704547	2.7336556336818187
O	6.021453076122727	-2.9121687601704545	2.0027410036818187
O	3.7258842561227277	-5.303187150170454	1.1713160836818188
O	4.1334058061227275	-5.633508990170454	2.447708253681819
O	1.3166544761227275	-1.3834371301704547	-0.3043421621181811
O	1.5318929861227275	-0.3427876981704543	-1.1741098893181812
O	2.6828440761227275	0.24129065982954567	-0.7112592983181811
O	1.8483913361227275	1.0141402538295456	0.07249511768181888
O	0.44481750212272747	0.9367786578295456	-0.059624438318181094
O	-0.3028356678772725	0.002244406829545631	-0.9404475543181812
O	0.6495089931227276	0.6643591151295457	-1.7473948163181812
O	0.3541207571227275	2.0641644798295458	-1.9752248563181811
O	-0.21753687987727247	2.5844247998295455	-2.9847396663181813
O	1.2288448761227275	3.2293893098295454	-1.5212992363181812
O	-1.3882306338772725	0.3726068438295457	-1.748927576318181
O	-1.5756579938772726	1.5389587898295458	-1.3058984043181812
O	-0.5535351128772724	1.8955827198295458	-0.4233481903181811
O	2.6251261561227275	0.8416419308295456	1.2319122836818188
O	3.8058676161227276	0.8714130958295456	1.8645659536818189
O	4.451152166122728	2.109075529829546	2.543817443681819
O	5.150407476122727	0.28114716982954563	1.435897723681819
O	3.9606209061227275	0.09875140582954567	3.213132773681819
O	4.798147236122727	3.1775722898295458	1.665701923681819
O	2.6600779261227276	-7.286902370170455	-11.716954826318181
O	4.260034746122727	-7.3549057001704545	-8.261852296318182
O	6.6553346661227275	-4.979509560170454	-6.441825986318181
O	5.519062206122727	-3.8090959101704547	-3.052163406318181
O	8.422824546122728	-1.5817602401704542	-2.1728990063181812
O	11.599857046122729	-0.1926051551704543	-3.452162336318181
O	9.301481576122729	1.8299846698295457	-6.457233206318181
O	5.715095526122727	0.9116799838295457	-5.900472326318181
O	4.115839176122727	-2.0161126301704546	-7.6111341463181805
O	0.7786602661227275	-3.8090154501704543	-7.624877356318181
O	-4.015214803877273	-0.5908877301704544	-8.889926716318183
O	-0.9962866208772725	0.6848801713295456	-6.9687608363181806
O	1.7223354561227275	2.1710614098295458	-9.210943556318181
O	4.276285616122728	4.571486329829546	-7.720522356318181
O	7.171648356122727	5.1259858398295455	-10.107930606318181
O	-6.700866853877272	6.428425559829545	-0.8291567403181811
O	3.834106606122728	7.223634509829545	-12.482434726318182
O	-1.6290338138772726	5.374898309829546	-10.065326386318182
O	-3.9594655438772723	5.017667869829546	-7.122811076318181
O	-6.516856653877273	2.8530705198295454	-5.472430766318181
O	-4.982981633877273	-0.35748213517045435	-4.233698176318181
O	-5.519506513877273	-1.6345970301704544	-0.728553883318181
O	-5.302309413877273	-5.436895210170454	-0.4417027473181811
O	-3.9908716838772724	-5.673953450170455	3.179020553681819
O	-1.2777322738772725	-3.2089313801704544	3.177912223681819
O	-0.037330003877272484	-0.8315328501704543	5.904112113681819
O	-1.7526841638772725	-0.8644162201704543	9.175278393681818
O	1.5416364461227274	-1.0964616401704546	11.092337573681819
O	2.291597036122728	-4.284753450170454	9.218223943681819
O	-1.2616279738772727	-5.753642340170455	9.114421553681819
O	-1.5994010038772726	-5.675318080170454	12.887791073681818
O	1.3835493061227275	-8.052103570170454	13.109952373681818
O	0.046283761722727516	-10.698739450170454	10.705622173681817
O	0.2575757891227275	3.6750364398295456	11.332859273681818
O	2.7489621861227276	3.1446392298295454	8.509459063681819
O	0.7146477131227276	5.6969662098295455	6.5830831536818195
O	-2.6585091438772723	4.057163089829546	7.039137333681819
O	-3.625615583877272	1.3941558918295458	4.451482093681819
O	-6.030358523877273	-1.5141668101704546	4.986473383681819
O	-8.560874253877271	-2.8608407801704545	2.4636129436818193
O	-7.756241313877273	4.805808139829545	4.595874493681819
O	-5.306184523877273	7.689774919829546	5.029199563681819
O	-2.3172170338772724	7.495664179829546	2.707529343681819
O	0.7802733781227276	9.412645869829545	1.7023908436818187
