37

O	33.62723607769362	40.21437556757856	83.32720869201762
O	33.90088947240376	37.95499145869874	82.36061382202665
O	35.22454953895543	38.10728762973476	82.25249506681004
O	33.44116532616428	38.73464258372959	83.46342557836458
O	30.4044260946793	37.433216884553836	83.85222224946422
O	31.388057751969775	39.15189189273899	85.24739252680476
O	32.04617653463685	38.4949435592572	83.25822001391137
O	24.59317197769655	35.007790916312935	82.08604836901961
O	22.078794095511114	40.04532955960475	88.50747351684727
O	31.753429821552622	37.04695622169128	83.74409248974773
O	25.010292622172873	36.404333689311315	83.70658185005188
O	32.14510741318145	36.3259103588553	82.55912364198007
O	25.98961486301188	36.89335356432719	84.35064599934589
O	33.61953791155149	36.57346908247165	82.53372767410252
O	24.0405795942833	38.0095940449384	84.63894399340926
O	34.52684590963254	35.795494912652906	81.67895520834169
O	34.11657989820577	36.25324506182819	83.91182155673994
O	30.483272767937173	38.490582071489335	84.860656887615
O	29.158481179886834	39.100672103977466	85.27213296982885
O	28.94880109304045	40.35214762913845	84.77386768312104
O	27.582491105187128	40.724566373833945	84.89038587642185
O	26.709902191178163	39.7648465604677	84.32501806607172
O	27.32416274967198	38.607990866496664	83.93922652822205
O	28.081585529978998	38.266001736681304	85.12106275792034
O	26.98275052782995	37.25801276235722	83.47707306389616
O	26.89144064915749	36.15971722911272	82.78292619966186
O	25.537920569353627	35.72890734484774	82.72262619745875
O	23.365417807290097	35.22065552243473	82.55756470542552
O	22.799528542662497	36.124241529757796	83.39341137137112
O	23.775317309707404	36.764448746239445	84.03585591718519
O	23.151766669755595	38.46399085278845	85.62633798496736
O	21.831583505942348	38.17319775771409	85.27212261146803
O	20.83516067793169	39.13476669675943	85.39824377891232
O	21.091416027154196	40.0147200335827	86.41092331043559
O	22.295494875130643	40.057443990020786	87.11413093681628
O	23.44987284516431	39.52494803788475	86.52054679603816
O	34.2173381101541	38.376543414187985	84.6723168930636
