35

O	25.74361523163301	37.75670298335994	86.82568224750138
O	22.772261969319274	34.96464084103914	82.5337512376736
O	24.41832499464684	37.218579995414835	86.89810914921982
O	23.913933158039733	39.9726679663105	85.53729619381073
O	24.094778122033173	36.384381555582124	85.89576540381637
O	26.417802499834693	38.88258799103441	84.85050260177931
O	25.422941058675242	35.94777139915831	85.01322496832071
O	26.465020844025688	43.53816237380313	84.584605786109
O	26.13870831669044	40.20718158059628	86.57594089480868
O	26.34577901839136	36.87274063692953	84.44448204485022
O	24.99140542561052	34.38200136155377	82.36522430556786
O	25.64065195399596	37.34651688847029	83.37904452693061
O	24.21271254049725	42.37150144096652	84.75679067259539
O	24.44210284023262	36.570037827266404	82.96251297318742
O	24.13834215410218	35.24590277564333	82.49986499611911
O	22.083310901561493	35.9322827373427	83.30355566481553
O	23.155127244173194	37.001766598895344	83.35369345033862
O	23.27678486117863	38.23091926132944	84.02394729874278
O	23.006260589925958	38.30185901693392	84.95389742790636
O	21.67750087892167	37.61683116304823	85.09008153772585
O	20.414971898663868	38.25896119807943	85.55035925921177
O	20.653509253058132	38.99377688722707	86.67476965760143
O	21.879849345210207	39.64118399894639	86.80404164612959
O	22.6458436447865	39.49035992582767	85.72217259679199
O	24.28577948283505	39.203974021610335	84.34300614362225
O	25.641284517000596	38.75846315434745	83.7724170416193
O	26.033489023010073	37.89378205098355	85.49099143047302
O	24.865492293163765	40.689704317429054	86.36667578756858
O	25.058578574166486	42.116191910070114	85.8162875287223
O	26.519970936818506	42.39765782398135	85.50319759641562
O	26.893742319918225	41.19702682854204	84.63877588169353
O	27.073570861340453	40.0304749396853	85.50660603426705
O	24.434803839495626	41.02232409308507	87.76677983996252
O	24.881977341530153	41.93490822727496	83.62780338759457
O	27.217564155721668	44.635319301064115	85.18739324108019
