28

O	22.412976154366806	37.50167397381648	84.09010976227337
O	32.036640671340166	35.707916107069245	82.27655888003004
O	30.713163535964007	39.511489692784906	84.04614285725907
O	26.79837588955417	38.30667291288622	84.1275584679006
O	26.322124503261612	40.1059332220836	85.70115323160547
O	23.31130782286978	39.343394273452745	84.64951884260567
O	24.703692161033494	37.16007838727732	84.96276311748984
O	27.077957423706774	36.56184036770583	82.70277349076883
O	31.06276683032171	37.74391309792396	82.59973494906816
O	25.66137529148876	41.1971511816676	87.81498165732643
O	28.890228263472313	37.94283371822405	83.28071622798815
O	26.170013861271045	37.46436337145822	83.35479423031386
O	23.52698092613172	38.11642093614883	83.8832983310973
O	25.145380412365476	38.183832020615256	85.56961942938324
O	29.500981369425173	36.004700426834745	82.29194492267175
O	24.69633390760494	37.25583328781911	83.52783844700458
O	28.466566576577968	36.781052329102494	82.72708975257635
O	30.830419759361593	36.424064715998895	82.33747797950821
O	25.342789513684533	40.793020698132075	86.45469367257103
O	32.73974756427368	35.78094206493176	81.06172326374195
O	26.071863712178207	39.04974800882672	84.74517330988698
O	30.16091905485166	38.41958527520788	83.41807766986402
O	24.92482155973505	41.9996453623644	85.66785408063139
O	26.405380577620036	42.53296381047637	87.7135949766347
O	25.248037391482622	43.51052415928512	87.51811658656847
O	32.04671246387285	39.640736182572674	84.44327709064234
O	24.183840960351333	42.886596429767785	86.66378515635888
O	26.230809260068444	42.63689806783738	85.41385059955907
