37

O	21.00763386322955	41.5255801636118	85.47323191972096
O	19.171005926151274	41.73883457655157	86.02208431734212
O	20.11602744303033	40.593341997592056	86.47337654696483
O	21.286081367201692	39.57049930833132	86.05523334667153
O	21.810566196828105	38.73345298093362	84.92190525934593
O	20.999636275418908	40.12689701863	84.72015430828355
O	22.42366175527903	37.81107173652946	84.28142903347145
O	22.46135325154591	38.53660488892808	82.9946617421544
O	21.9105046551864	37.31834928771845	82.50948766627383
O	23.036480037856126	36.62988009709548	81.82748915520018
O	24.055284332625497	36.491616993842705	82.72684664794892
O	22.9043229532678	36.633887767757024	83.79790194307967
O	20.629979476777187	37.25881949387716	83.25000920329822
O	19.7219784688792	37.439314838400136	84.17136220060237
O	18.68722707398457	38.78683204021644	84.1294614715499
O	17.675103179903896	39.18385779259129	84.9875598023794
O	17.841704579018216	38.612176974517176	86.41000342472417
O	17.34837967971518	37.470260984207115	85.72728966770487
O	18.094228443421333	37.55040214509206	84.36171501775988
O	16.88566610168698	37.43218883372914	83.61191803032885
O	16.269081857400806	39.39340789351455	84.94964925390296
O	15.999486571765765	39.52371645098484	86.46016475584386
O	15.290859677929452	38.523302205281105	85.80120309012534
O	14.410761405314338	38.30941441066365	84.70496982469258
O	14.104822229801313	39.50087890113159	83.76060260478307
O	13.90253218522804	40.80284324825805	84.53566277967568
O	14.686727966681005	40.59554785926679	85.65306673830648
O	14.281940933868038	39.367984651812336	86.3969932306762
O	17.03286966734314	40.31085274498108	86.583963208011
O	12.615880719816055	41.46929066073748	84.49854779752134
O	11.953623522287115	42.36668076516579	85.42984393570914
O	10.530049173258966	42.506715550712435	85.28439987127997
O	9.766943322970711	42.74342574398233	86.54906856865955
O	10.335727592612669	43.84825099103575	87.17635296871693
O	11.443584178203727	43.17477523391534	87.78350070232486
O	12.135552831767416	42.34011337606179	86.81114427800263
O	9.96890234663172	44.85293817574093	87.95245470961108
