22

O	25.145946638077103	36.06264233617749	82.820594775148
O	24.501446514918538	36.91056155504937	83.63540828692817
O	23.223646102135092	36.52867947384475	83.61304504789763
O	23.042525340508348	35.53329222098395	82.69072753157937
O	24.247670140668184	35.34717889052949	82.15651360057441
O	26.5038751966017	36.11362913494489	82.84594119200385
O	27.215898272018862	37.164681428909546	83.3100432276314
O	26.531402002697984	38.07552419223315	84.05238142299031
O	25.220047669817557	37.86412519047932	84.28264971071309
O	24.14964388680236	39.11352702424501	85.04831170118496
O	25.238312450056352	40.258317431340046	85.91496627150822
O	25.803258002942847	41.34636279474331	85.04834414006116
O	28.64926676363034	37.13182383270591	83.17143217090539
O	29.262370620449577	35.97528887474686	82.7996943939268
O	30.53745795356727	35.85591702542058	82.26564710969753
O	31.401735994968874	36.84985024359436	82.60036103094731
O	30.939582670605855	37.94934803746933	83.32079240047833
O	29.56405041101668	38.11325049318537	83.30693419109221
O	32.71104320763905	36.756066078442444	82.22442040138382
O	31.839584630959582	38.97795485467758	83.41469667478069
O	33.125198767271556	36.17371294640375	81.01374647528972
O	33.22302507307816	38.766894460885844	83.37683194776241
