83

O	-1.000452021392157	1.2597673186705884	-1.0123274322549014
O	-1.274314040392157	2.5815218224705885	-1.2827404822549013
O	-1.256924226392157	2.6719683724705883	0.22236466974509847
O	-1.735369349392157	1.8274342634705885	1.0985093877450987
O	-2.717416311392157	1.1726086423705884	0.4274750177450985
O	-2.087064957392157	0.5636274894705885	-0.48300544325490147
O	-1.393119056392157	-0.7050604175294115	-1.0327252922549015
O	-0.9964858493921569	-0.4788979075294115	0.46271492074509846
O	-0.26204026139215686	0.35414096647058846	-0.11351024825490151
O	-0.7914623083921569	-0.4105760775294116	-2.2657200822549015
O	0.05035067860784315	0.4940101144705885	-2.7419273022549016
O	-1.726645569392157	0.5101467974705884	-3.0926129822549018
O	-0.881394068392157	-0.6816288175294116	1.8308190377450986
O	-1.055972549392157	-0.17282315752941146	3.1091549177450983
O	-1.154054961392157	-1.0741342275294115	4.206006857745098
O	-1.710880956392157	-0.7575236775294116	5.420968907745098
O	-2.677042041392157	0.2670166474705885	5.278804617745099
O	-2.027259173392157	1.4085259774705885	4.789746517745098
O	-1.126332522392157	1.0304392404705884	3.832120217745098
O	-2.809864371392157	2.5135850824705885	5.161532557745098
O	-3.255993111392157	2.7014942024705886	6.473670297745098
O	-2.064141549392157	-1.3516517075294117	6.6484279177450984
O	-1.409179623792157	-1.0456868575294116	7.846225517745099
O	-2.407441621392157	2.7697828724705884	2.2183838277450985
O	-3.057271681392157	4.048134072470589	1.6149920177450985
O	-2.376035268392157	3.346038932470589	-1.1522592522549013
O	-2.5158037313921566	4.657330942470589	-1.4572427522549014
O	-1.5959459923921568	5.467258602470588	-0.6563145542549015
O	-1.494625740092157	6.564250172470588	-1.6615690722549015
O	-3.757683401392157	3.1243007724705887	1.2523963677450987
O	-1.910681452392157	6.368379192470589	0.4692300877450985
O	-0.250725861392157	4.945948562470589	-0.6484590912549015
O	-10.262915501392158	-4.801381137529411	5.516828517745099
O	-10.520315581392158	-1.3791559475294115	3.8586918077450982
O	-7.419700501392157	0.6504736424705885	4.149263747745098
O	-8.848327301392157	3.6594920224705882	2.2769660277450985
O	-11.821028861392158	5.013488232470588	0.3653547957450985
O	-11.081397631392157	1.9790502174705886	-2.5368916922549016
O	-8.021224411392158	0.0961437124705884	-1.3521321122549015
O	-8.493295381392157	-2.9613309875294114	0.7695085127450985
O	-6.373555291392157	-5.523230117529411	2.5570488277450982
O	-2.446271938392157	-8.570870467529412	-0.7538872032549016
O	-3.578698801392157	-5.056270687529412	-1.3256976122549013
O	-6.541794391392157	-4.515429437529411	-3.6061941822549017
O	-7.054719221392157	-1.1477593575294114	-5.340843292254902
O	-10.586975431392156	-1.0509463275294115	-6.847801932254901
O	9.309816838607842	-0.9688397575294114	-5.257086072254902
O	5.822785708607843	-2.1722699175294116	-4.284415202254902
O	5.342641978607843	-5.169016677529411	-6.6148197822549015
O	2.446328858607843	-5.617399547529411	-9.017065482254901
O	0.6662250786078432	-8.844491797529411	-8.2650989222549
O	-2.233571133392157	-9.143258897529412	-10.682263782254902
O	-8.880356441392156	-8.05656706752941	-12.8730842822549
O	-8.753925491392156	-4.221037667529411	-9.5580182722549
O	-5.005720491392157	-3.8477561175294115	-9.2985314422549
O	-3.572667581392157	-6.2867504175294115	-6.788210622254901
O	-0.16136219139215702	-5.638601427529411	-5.314135362254902
O	2.316101518607843	-6.6035470175294115	-2.6378267122549017
O	1.011571778607843	-5.622383037529412	0.8543411457450985
O	2.999065478607843	-3.3704794175294115	3.2397502077450984
O	2.194042918607843	-4.171454957529411	6.798433337745099
O	2.928365408607843	-0.7143050375294115	8.2576541877451
O	1.3283213786078432	1.5707205004705884	5.805065527745098
O	2.548553528607843	4.9488232324705885	4.616273537745099
O	5.723882838607843	6.384781182470589	5.862966137745098
O	4.1309533986078435	9.724117452470589	6.680386627745098
O	1.693964378607843	7.867437152470589	8.9547684077451
O	4.104949378607843	5.286158632470588	10.3927725177451
O	6.562924208607843	7.915602042470589	11.6758320177451
O	3.7934301386078433	9.214219082470589	13.944728917745099
O	7.760925438607844	11.348861402470588	-4.644874852254902
O	6.537034388607843	10.383049102470588	2.3353118777450983
O	2.8680765886078428	9.683489812470588	1.7191952677450986
O	4.003256368607843	7.614758882470588	-1.2850260122549013
O	6.492654578607843	5.486151952470589	0.5390620807450984
O	5.165856928607843	2.3326152924705887	2.1709431677450985
O	6.638272128607843	0.5266968014705885	5.181951637745098
O	6.938971408607843	-3.2322910875294113	5.648574947745098
O	6.447320088607843	-5.332623567529411	8.742269367745099
O	9.356951638607843	0.7856965644705884	-0.8321174302549015
O	8.274705888607842	3.3344433924705887	-3.4804462722549014
O	4.490353318607843	3.3493215224705883	-4.1281591122549015
O	1.7595199986078431	4.863856052470588	-6.189315512254901
