73

O	-2.835479439595556	1.4963217817333343	-0.514347148311111
O	6.645228170404445	-0.3824436662666658	1.8747690956888892
O	4.919966350404445	-1.7926373282666657	-1.917989358311111
O	1.3141202004044443	-0.012384371266665806	-1.135463165211111
O	0.7375543444044443	-0.24264641026666578	-3.4923477043111113
O	-2.2050050495955555	0.29568640283333425	-2.149232067311111
O	-0.42843607859555566	1.8160743917333342	-0.9934001443111109
O	1.7080147404044443	0.3142310088333342	1.0760494756888892
O	5.383448600404445	-1.4778723882666658	0.3236066256888892
O	0.1713377225044444	0.4350982068333342	-5.797923064311111
O	3.3131105304044444	-0.7281904082666657	-0.28868900931111086
O	0.7478761024044444	0.2541190857333342	0.009015885688889114
O	-1.8795567195955556	0.6713166517333342	-0.7737112093111109
O	-0.09685321259555561	1.3493303017333342	-2.1263773523111107
O	4.119049440404445	-0.05145868426666578	1.7111973256888893
O	-0.6337673115955557	0.8333245617333342	0.036295835688889166
O	3.0296948504044443	-0.1291127952666658	0.8930508356888891
O	5.351072640404444	-0.6170122602666658	1.3831514656888892
O	-0.24229206059555564	-0.06323358026666576	-4.495702814311111
O	7.165679410404445	-1.3598832582666658	2.7403671656888893
O	0.5543720824044445	-0.01494211326666578	-2.075784860311111
O	4.489466060404445	-1.2652885682666657	-0.722887735311111
O	-0.9584064795955556	-1.3691558782666657	-4.673196264311111
O	0.6547351024044444	-0.7782551382666658	-6.599371214311111
O	-0.6692421785955556	-1.3802009782666658	-7.066302314311111
O	6.250575830404445	-1.920248188266666	-2.3253796843111108
O	-1.7092347295955557	-1.2344552082666658	-5.994455444311111
O	0.17519366360444438	-2.2818519982666654	-4.914337634311111
O	8.381728710404444	11.002086351733334	1.476595495688889
O	8.759213460404444	7.786308481733334	-0.5072978403111109
O	7.1218493004044445	6.519685321733334	-3.7082258243111106
O	5.463062530404445	3.0760753617333343	-3.359501364311111
O	4.291832750404445	2.886493021733334	-6.987270514311111
O	3.9174764204044443	4.717671041733334	-10.24817394431111
O	1.4852590704044444	7.5391837817333345	-8.22743566431111
O	1.2418890004044443	6.378984111733335	-4.676760294311111
O	3.6058222504044446	7.669189771733334	-2.035888118311111
O	4.359466690404445	7.028011841733335	1.637837725688889
O	-0.1530651125955556	7.989530541733335	5.480928955688889
O	-0.46260669159555556	6.737373021733334	1.991504295688889
O	-1.0491353695955556	9.250556021733335	-0.7850352843111109
O	-2.6002882995955554	8.198146311733334	-4.123995684311111
O	-2.1642687395955558	11.069680051733334	-6.654685664311111
O	-7.972063859595555	0.18219483673333423	4.546386525688889
O	-5.108177789595556	13.108235051733335	-3.807254874311111
O	-6.777357139595555	10.348332651733335	-1.8234213573111109
O	-5.089232229595555	9.906143691733334	1.551816755688889
O	-5.528247169595555	6.626736921733334	3.3927674156888896
O	-4.360755409595555	4.536362131733334	6.32537278568889
O	-0.8304722295955557	3.2552390717333344	5.71857647568889
O	0.1147473821044444	-0.4615444112666658	5.8729937356888895
O	3.6854005304044444	-0.9782661482666657	6.6402035156888894
O	4.174677600404445	-4.2942347982666655	4.844317905688889
O	2.6186693704044446	-3.6495533182666655	1.5550447456888892
O	0.7119872474044444	-5.9803986182666655	-0.6596036953111108
O	0.1064474645044444	-9.546267598266665	0.46796508568888906
O	1.2567156404044444	-10.999448848266665	-2.837913834311111
O	4.580366670404445	-9.209316378266665	-2.304139124311111
O	4.902959570404445	-9.802475048266665	1.466106675688889
O	4.601713550404445	-13.573745648266666	1.162549155688889
O	7.756568330404445	-13.543581848266665	-0.983530572311111
O	9.932927120404443	-11.604692748266666	1.4809383856888891
O	-3.7412514195955557	-11.142042548266666	-2.984260634311111
O	-2.4184171495955558	-8.071373608266665	-4.800077924311111
O	-5.280637169595555	-6.095611168266665	-3.357308804311111
O	-4.8163339195955555	-7.199264868266665	0.2317128756888891
O	-2.4781202995955556	-5.063606588266666	2.376169095688889
O	-0.40696572959555566	-6.181389588266666	5.39633694568889
O	0.2681032544044444	-4.166807618266666	8.56550232568889
O	-6.996933429595555	-5.444985268266666	5.199974525688889
O	-8.976906729595557	-5.215503228266665	1.9195355456888892
O	-7.698389999595555	-2.554109458266666	-0.5235230983111109
O	-8.429258029595555	-1.0340000382666659	-3.905832834311111
