69

O	0.6440300778510635	0.06503961141276587	-1.4801237622872339
O	0.3233605228510634	1.3435620324127657	-1.2335068022872338
O	-0.10785093014893657	1.8361881244127658	-2.395610132287234
O	-0.18309458534893658	0.8415520014127659	-3.333324102287234
O	0.20173800085106341	-0.2577236075872341	-2.688425892287234
O	1.3145795258510633	-0.5910352355872341	-0.4966903392872338
O	1.3380389858510635	-0.20083386658723412	0.7972459147127662
O	0.9144096258510633	1.065924899412766	1.0523852347127662
O	0.5226903778510634	1.8350313744127658	0.01682042771276615
O	-0.28265753384893655	3.4449080444127658	0.24642733761276617
O	0.12666803185106346	3.988495964412766	1.9148994577127663
O	-0.7780583701489365	3.4405550944127663	2.980390447712766
O	1.9940721458510637	-1.053700855587234	1.7548869077127662
O	2.7596907758510634	-2.090442755587234	1.3182488777127663
O	3.1401683958510636	-3.200218045587234	2.059153347712766
O	3.1935617058510637	-3.0093518655872344	3.403635567712766
O	2.7560624558510636	-1.8021566455872342	3.9447238777127662
O	1.9558473858510634	-1.0471901255872342	3.1028055577127662
O	3.6749123658510636	-4.004929095587235	4.204597317712766
O	2.6562780158510635	-1.802409205587234	5.3110680977127664
O	3.4737411058510634	-5.3710753755872345	3.940843987712766
O	3.4562286458510636	-2.6191325455872345	6.119108727712766
O	13.021598095851063	2.1717757044127657	-5.002131962287233
O	13.582302595851063	-0.756491295587234	-2.657283342287234
O	11.679812195851063	-0.3172880065872341	0.6085669527127662
O	9.907270495851064	2.655727294412766	2.2214327077127662
O	6.266655105851063	1.9882117844127658	3.194578907712766
O	5.5402458458510635	5.453342744412765	4.5821687577127665
O	7.062520945851063	8.850076004412765	5.1437524477127665
O	7.1943069258510635	9.241897804412766	0.9138100847127661
O	5.771238915851063	6.022617424412766	-0.4812142182872338
O	8.148889365851064	3.220510324412766	-1.3836913322872337
O	7.898236045851062	-0.34293015658723414	-2.618323022287234
O	9.966280595851064	-0.7426043655872341	-5.794162822287234
O	5.208734235851063	-1.0999453355872342	-7.932922332287234
O	4.306664795851063	1.505339016412766	-5.300743972287234
O	6.071121625851063	4.8464598944127655	-5.686411052287234
O	4.604084475851063	7.991229234412765	-4.115965082287233
O	-5.691198034148937	0.7819130564127659	-7.1839010922872335
O	6.499579065851063	10.451112684412765	-8.673511822287233
O	3.6271464858510636	5.006284314412766	-9.695342832287233
O	0.7702812858510634	2.6305040044127654	-9.027393532287233
O	-0.22822222214893656	-1.0180425755872342	-8.729414962287233
O	1.3096972458510634	-2.5734630555872338	-5.564020652287233
O	-0.8535904551489366	-4.189173775587235	-2.879578902287234
O	1.0435595058510634	-6.940947335587234	-1.0899776222872337
O	-0.8909218871489366	-6.670322225587235	2.2496673277127663
O	-1.0756524971489365	-2.909777565587234	2.850393497712766
O	-3.8875354741489363	-0.9182985455872341	4.409489947712767
O	-6.991938824148937	-2.7439537955872337	5.556948267712767
O	-6.949559224148937	-1.0312282655872342	8.948766207712767
O	-3.4402415441489365	-2.4389129155872338	9.465697127712767
O	-4.013693174148937	-5.872277775587234	7.889340627712767
O	-6.976980564148937	-6.7159693755872345	10.135136717712767
O	-4.632190644148937	-6.446936985587234	13.127655757712766
O	-2.0225990541489365	-8.914225315587235	11.832046857712767
O	-10.350481204148936	1.4382986904127657	6.269168627712767
O	-7.018727834148937	3.271623894412766	6.210968247712766
O	-7.625913974148937	4.027964704412766	2.564486297712766
O	-8.517474144148936	0.5217181790127658	1.4773588677127663
O	-5.571168224148937	-1.586827885587234	0.32302670921276616
O	-5.304315944148937	-5.375255355587234	0.4717296377127662
O	-3.7772708241489363	-7.670023745587235	-2.148308262287234
O	-1.7322513641489365	-10.830684865587234	-1.7704330522872336
O	-9.552662234148936	-5.158586675587235	-1.5429733822872338
O	-9.199769244148937	-1.976459535587234	-3.590163492287234
O	-10.088459654148936	1.6911584544127658	-3.026893602287234
O	-7.041008464148937	3.932308894412766	-2.573072162287234
O	-6.046399144148937	7.540552624412766	-1.978356072287234
