116

O	-6.109713856684932	-7.151832897419179	1.8736509765643836
O	0.5069402233150675	-5.542008967419179	-3.0356749134356162
O	-0.7761629046849324	-1.3204021674191782	3.5757567865643836
O	-7.457190766684933	-8.564446917419177	3.0556801865643837
O	-6.713053746684933	-8.383494487419178	1.9131396665643834
O	-0.7198299676849323	-2.814101347419178	0.9447292865643835
O	-5.792509436684933	-8.879433347419177	0.9595647365643836
O	-1.5697642050849323	0.8110720605808218	4.193458236564384
O	-4.428975636684932	-8.274676687419177	0.7505701325643835
O	0.8614696133150677	-3.9181010974191786	-4.507757253435616
O	-1.8261283686849323	-5.299664757419178	-2.9400723434356166
O	-4.1221882466849324	-6.977076467419178	0.2848198645643836
O	-4.728825786684933	-6.665786677419178	1.6688858365643835
O	0.2681710033150677	-2.4043765874191783	-0.9793363234356164
O	1.4367641833150677	-1.099893277419178	2.8919557365643835
O	-1.3011795876849324	-5.032536937419178	-4.214820223435616
O	-0.19844405668493237	-1.7431287074191781	0.11731122956438358
O	1.0398273933150675	0.3570315175808218	3.3389557365643836
O	-0.1714758366849325	1.0361620175808217	3.0345088865643834
O	-0.6379592586849324	-0.1211937074191782	4.090747296564383
O	-0.06976201668493243	0.4146834105808218	1.5998618665643836
O	0.5414067533150675	-0.7092046264191781	0.9720046365643835
O	-1.7572234466849324	0.6856383245808219	2.6799230265643836
O	-2.3475003446849323	-0.7057758214191782	2.1273183765643835
O	-1.7858125166849323	2.2024022225808215	2.1509062665643834
O	-2.0679659366849323	3.1803282025808217	3.3382963565643835
O	-3.0644824766849323	2.128140402580822	3.6631827065643834
O	-3.1031037766849323	0.6106725555808218	2.7852503965643836
O	-2.5615529386849323	4.524053652580822	3.009886256564384
O	1.0896379333150676	-1.9450639174191784	1.6854035865643835
O	1.8602534333150675	-2.9348398774191784	0.8865807965643835
O	0.16998917331506758	-4.216736737419178	-2.7601312134356166
O	0.8315418333150677	-3.409060477419178	-1.7525440334356164
O	0.9015648233150677	-3.211997187419178	-3.3726606834356163
O	0.18027912331506757	-5.178675627419178	-4.4553152034356165
O	-2.7433144366849325	-4.846333357419178	-0.4706574194356164
O	-3.1407267566849324	-6.2458106174191785	-0.3005889734356164
O	-1.8199837766849325	-6.508586257419179	-0.9045105964356164
O	-2.1464807226849323	-6.633415847419179	-2.4328672534356164
O	-2.412512360684932	-4.426108237419179	-1.9212008834356165
O	-3.7138386066849325	5.190228082580822	2.7770846665643836
O	-1.8100789596849325	5.368897592580821	3.7823567265643834
O	-1.9935010746849324	4.929922582580821	1.7797890565643837
O	10.895662373315067	-11.699288107419177	-3.8523195934356163
O	7.220987723315067	-12.685237107419178	-3.7391512934356164
O	4.853461613315067	-12.723406607419177	-0.8524762794356164
O	1.6041865733150678	-10.863960007419177	-1.6017706734356165
O	0.45659204331506764	-11.930166007419178	1.7454732865643836
O	1.2681672833150675	-13.403964907419178	5.230501026564384
O	3.8198756133150673	-10.079678507419178	5.871253196564384
O	3.6231450233150677	-8.023638597419177	2.6869150765643837
O	5.881505373315068	-8.898661907419177	-0.05146207943561641
O	6.6198986933150685	-7.8056632474191785	-3.4856928134356164
O	10.450071773315068	-7.017872527419178	-3.7628169634356166
O	8.350299073315067	-2.286629567419178	-4.1332994034356165
O	5.907985233315067	-3.543674527419178	-1.6573107434356165
O	7.399958403315068	-4.418057827419179	1.7599011765643835
O	5.110685913315068	-4.546462857419178	4.797802286564384
O	6.987892113315068	-6.304479657419178	7.688743196564384
O	2.5393062933150676	0.05827113188082181	13.109027536564383
O	4.804424903315068	3.0356147725808222	12.271637336564382
O	1.9087526833150674	5.450290272580822	12.865155336564385
O	0.5315778733150678	4.700910682580822	9.481309336564383
O	3.7942624333150676	5.400484342580822	7.715744496564383
O	3.962867723315068	8.730589652580823	9.641062806564385
O	0.4835521333150674	9.554928812580822	8.338049916564383
O	1.4824213333150675	8.585619382580823	4.845938726564383
O	4.3781075633150675	11.166421292580823	5.119628256564384
O	-0.42356535668493245	12.494302992580822	2.5385626565643835
O	1.6526420933150674	12.481707592580822	-0.6354991944356164
O	-0.15852369668493238	12.632075292580822	-3.9775110934356164
O	-2.2893038926849325	7.779885332580822	-3.1680602734356165
O	0.07300092331506769	4.772481982580822	-2.874635673435616
O	3.2935584433150678	6.501847912580821	-1.8721389334356164
O	5.402672513315068	5.924793622580822	1.1919029765643836
O	8.827333973315069	4.866803382580821	0.08104050356438358
O	10.943361573315068	4.342620762580822	3.1806169965643836
O	11.123702073315068	2.714156532580822	6.5696559165643835
O	13.454952673315068	0.4309990175808218	8.491115626564383
O	9.494130373315068	-2.4675631274191785	7.583795856564383
O	7.406303783315067	0.11075911838082181	5.757640366564384
O	8.237432993315068	0.1842929110808218	2.0430983365643836
O	5.736801793315067	1.6169865525808218	-0.4174395134356164
O	5.024026113315067	1.995327652580822	-4.118596063435616
O	4.053807643315068	-1.3625986974191782	-5.748544243435616
O	0.9279681533150677	-1.7747467574191782	-7.6713852434356165
O	1.1926276333150678	-4.536408457419179	-10.123237553435615
O	-2.4039580536849323	-5.325588487419179	-10.520937063435618
O	-3.2892095066849323	-5.497640827419178	-6.841549533435616
O	-6.623700176684933	-4.596636867419178	-5.374836613435616
O	-9.393967036684932	-3.1449906974191784	-7.548916183435616
O	-12.036156626684932	-5.453469597419178	-6.265293243435616
O	-9.749234666684933	-8.403355737419178	-7.440931403435616
O	-8.573322276684932	-6.883195267419178	-10.697467363435617
O	-12.155730726684933	-6.465871737419178	-11.835099863435616
O	-12.638180626684932	-10.283877507419177	-11.561783463435617
O	-10.383146036684932	11.254144592580822	-1.6827632034356164
O	-7.728955466684932	13.682865192580822	1.5507657965643835
O	-10.485522536684933	10.990607992580822	6.845632576564384
O	-9.820872116684932	7.435332852580822	5.708413716564384
O	-12.704346426684932	-1.0687798374191781	-3.7669334634356164
O	-10.706672096684931	-3.3198501774191778	-1.7632448534356164
O	-8.311229376684933	-0.6286795994191782	-0.3835558894356164
O	-7.864861896684932	0.7130718895808218	-3.8760541434356166
O	-4.810079806684932	-0.5430946804191782	-5.7729985934356165
O	-4.293277736684932	-0.8826540954191782	-9.468856873435616
O	-1.1309886456849325	-0.1771872684191782	-11.400436963435617
O	0.3367668733150677	-1.9675332374191783	-14.389564463435615
O	-4.615564916684932	4.737008922580822	-5.996351543435616
O	-5.984510606684932	4.987807862580822	-2.3876237734356165
O	-4.634790356684933	2.612229552580822	-0.11581106063561641
O	-5.053227776684933	1.1004733125808217	3.8065229765643838
O	-4.427581236684933	4.229858242580821	6.233467086564383
O	-4.326558156684932	2.3494783725808217	9.293660286564382
O	-7.5639449466849324	4.056146942580821	10.254013136564385
O	-6.935754606684933	7.333367902580822	8.536309376564382
