88

O	2.1474998122830184	-3.682199872962264	0.7001728604735846
O	-0.19092538751698163	-0.030930238262264004	-3.3303631645264153
O	2.8073723822830186	-2.6121756929622637	0.014000386473584647
O	1.3589234222830182	-1.095886622962264	2.314888615473585
O	2.1443192722830187	-2.134902892962264	-1.0526925625264154
O	-0.07714378071698164	-3.360631722962264	1.4558414154735848
O	0.8902543822830183	-3.122660582962264	-1.4830166645264153
O	-1.0243845177169817	-2.340188762962264	5.906541885473585
O	1.4052947922830183	-3.443493162962264	3.0698701954735848
O	-0.12191805671698164	-3.569103752962264	-0.5847617155264153
O	-1.1198830007169818	-2.1146784529622638	-3.626165294526415
O	-0.8872271607169816	-2.449433912962264	-0.4526002885264154
O	0.17892590128301838	-0.591619775962264	4.507188965473585
O	-0.6861717827169816	-1.370835592962264	-1.4571602145264153
O	-0.7936715637169817	-1.205280972962264	-2.8786674445264153
O	0.6340334052830183	0.524879814037736	-2.3233371245264154
O	0.10565540528301837	-0.247088229962264	-1.1317072205264154
O	0.48672693128301836	-0.34020486396226396	0.21772630847358465
O	1.4272260422830185	-0.409242188962264	0.4494984874735847
O	2.1681216122830183	0.610718885037736	-0.36546458152641537
O	2.9822617622830183	1.731436427037736	0.18164966247358466
O	3.8040261422830186	1.267587987037736	1.1668911754735847
O	3.3499217322830184	0.238838013037736	1.9886088354735847
O	2.0906394222830187	-0.10631709796226399	1.7147259754735846
O	0.24159559828301835	-1.170519322962264	1.3654165054735845
O	-0.7380052357169816	-2.295857932962264	0.9973934454735846
O	0.8006172122830183	-3.443726982962264	0.5850424764735846
O	1.6380878222830182	-2.108423092962264	3.3170430754735847
O	0.8519459922830183	-1.791964832962264	4.604253855473584
O	-0.04181553371698163	-2.9539541529622637	5.009083645473584
O	-0.7960838397169816	-3.2374210629622637	3.713255505473585
O	0.09566641628301836	-3.9523801929622637	2.7967808954735847
O	3.0298339422830183	-2.1440411729622637	3.881129865473585
O	-1.0434882847169815	-0.891367148962264	3.933606915473585
O	-0.9301622167169816	-3.011749982962264	7.200201485473585
O	3.1053621922830184	-12.126420582962263	-4.520006054526415
O	4.415073822283018	-10.784955982962263	-1.1904288045264155
O	1.9422343822830186	-8.612382332962264	0.6707998564735846
O	4.099057152283018	-7.803532112962264	3.711923515473585
O	7.503650812283018	-8.364806282962263	5.167441705473585
O	9.249570832283018	-6.3620344629622645	7.799002405473585
O	9.132164952283018	-6.163066302962265	1.880253285473585
O	6.164020242283018	-5.132694592962264	-0.24759139762641535
O	5.1386055522830185	-7.354897422962265	-3.2398875545264154
O	2.3143735522830187	-7.376172972962264	-5.778954164526415
O	1.7883492922830184	-2.623556492962264	-9.391280834526416
O	2.8613455622830184	-2.565445832962264	-5.752775664526415
O	6.615462602283018	-2.903150072962264	-5.132515604526415
O	8.105519182283018	-1.7189649329622638	-1.8264345845264152
O	11.775061872283018	-3.085882472962264	-1.5649375245264152
O	-3.6728611577169814	9.482771887037737	-2.888247784526415
O	-1.8297683977169816	6.271699647037735	-3.810298534526415
O	0.18983618728301838	7.282845667037735	-6.856865254526415
O	3.9413511022830185	6.978275647037735	-7.214033104526416
O	4.747893382283018	4.970738807037735	-10.310341364526415
O	11.715091772283017	3.910557957037736	-8.664586924526414
O	12.352445672283018	-0.217557300962264	-5.050760454526415
O	9.489356092283018	2.219347707037736	-5.000708424526415
O	6.7310237522830185	1.1933260970377362	-7.396412204526415
O	3.2254760022830187	2.521866547037736	-6.856586864526415
O	-0.40082413871698164	2.2117122670377363	-7.965967874526415
O	-1.8916989777169815	-1.106607492962264	-6.751700924526415
O	-4.815651417716982	-1.243675032962264	-4.345490484526415
O	-6.740674627716982	-4.553557452962265	-4.806017974526415
O	-7.983216947716982	-4.644083162962264	-1.2411646145264155
O	-5.038670697716982	-3.531245952962264	0.9153977754735846
O	-5.583436477716981	-1.714828622962264	4.153468755473585
O	-8.853977317716982	-0.351841996962264	5.323609985473585
O	-8.363680297716982	-1.6737004229622638	8.860830565473584
O	-7.975389537716982	-5.174220562962264	7.366233985473585
O	-10.544835727716983	-4.875794652962265	4.6079372154735845
O	-13.387968427716983	-3.964386852962264	7.067401955473585
O	0.5610698332830184	8.754042107037737	10.404881235473585
O	-3.1290536177169814	9.042899147037737	9.571456395473584
O	-4.923995087716982	5.879128027037735	10.680807635473585
O	-7.122594477716982	3.161626527037736	9.112987685473584
O	-3.9993219077169817	0.963995601037736	8.698012305473585
O	-2.6658038577169814	3.657235607037736	6.325886565473585
O	-5.7602291577169815	3.968679087037736	4.135847755473585
O	-5.770323987716981	1.5706484570377361	1.1400860254735847
O	-8.778245447716982	0.167376018037736	-0.5985858745264154
O	-9.243219237716982	-0.336966918962264	-4.2888669945264155
O	-6.7482640077169815	6.4365860670377355	-0.8792870925264153
O	-4.214456177716982	7.881779967037736	1.5925427054735848
O	-1.0349510237169817	5.729933567037736	1.8733837254735848
O	2.3049657322830184	5.453663007037735	3.657391705473585
O	3.9997487122830186	8.746735727037736	3.397464905473585
O	7.005001892283018	7.908958137037736	5.455685285473585
