35

O	22.782928365212424	41.62723457686433	86.40869156305345
O	23.922552610262873	37.935391139588276	86.39240319447572
O	29.808937270181758	40.253186646492516	84.67965410129072
O	21.94618516807043	40.491326412967446	85.76127208270863
O	27.5007183407443	36.109326686092444	81.98083334501925
O	30.96149865355979	38.772774195992326	83.22325512792614
O	23.0079377178865	39.59225028288542	85.46972686955107
O	25.59614211592998	35.015428379147785	81.9486812118998
O	27.562851859750907	40.42214121514979	84.16116642372727
O	24.272360631708466	39.57129425760272	84.75599406115319
O	24.354386535102304	36.630006082320634	82.7166070982589
O	24.793632598805353	40.90569460291002	84.88153174073139
O	26.139777757358466	36.70178588719672	83.76616323138813
O	24.0027365600494	41.89169550666982	85.6255226522946
O	22.478027212577395	38.357944440611575	84.79958772597902
O	24.252495612269175	35.321259282927315	82.26425618342464
O	24.87257108971796	38.39216006447967	84.52037749689255
O	25.08178829583564	37.49739075269942	83.47863864683825
O	29.787355212922193	40.61666039305574	85.98509082378217
O	26.406081053108373	35.73285856226006	82.76274233874521
O	29.564035433375302	37.064534450080416	82.89664065299857
O	23.720021777101003	37.603440331585944	85.00943448470433
O	28.124960700141706	37.01847080109132	82.90602408387915
O	27.676253932987503	38.38717556323192	83.02508045091527
O	27.912207452048982	39.169844652338504	84.2201815687952
O	29.235769727878903	38.93786160999912	84.74197977394482
O	29.95227699298815	38.01490396679552	83.88905380066448
O	31.442266643520277	38.81248829299837	84.54293151842484
O	27.832197395701954	41.47849811943312	84.93064321228029
O	26.850316595189945	40.06647669727134	87.38651739249875
O	26.18218960579608	41.35086305817905	87.76175056358422
O	25.022268170441702	40.835431523042175	88.56839727616396
O	24.440074919392703	39.79379795470644	87.785553344884
O	24.845716347627814	38.892432350220226	86.79128436961942
O	26.278464429073253	38.94435153488445	86.61885412497291
