29

O	29.963498413636735	40.503290350502375	84.47422569380234
O	30.58961424321169	40.06078363458222	83.2289721120476
O	31.043036891602384	38.66573812057552	83.70386942248221
O	29.892012321960543	37.77403449984118	83.82033602494768
O	28.494724304609107	38.393796172703745	83.94316984310537
O	28.95444972773877	39.54057154082933	84.7495169523554
O	30.331005111239197	41.55438867834205	85.17492405818322
O	30.498401899996054	41.48141502363989	86.53711391274057
O	31.955404085967412	39.03276226651607	84.65055173476286
O	32.607353737229964	40.19350192706494	84.28722213786739
O	27.317570165124447	37.8477683710691	83.992766358703
O	26.244150332758274	37.52154613844792	84.7846777642366
O	26.10124162374283	38.607028845932696	85.61012976289206
O	25.27452914460687	39.11213690022906	84.62560389468706
O	24.926531971645808	38.33830715455099	83.49708921006054
O	25.440341656912263	36.98258222889807	83.17120821357119
O	24.943654147870223	36.93391856500483	84.49312102843827
O	23.500226855965934	37.0196637372382	84.58133222138459
O	22.669796717261818	36.06410465957727	84.6991288255289
O	22.72965768162386	38.14264738532217	85.26986002110732
O	24.641134784940338	35.917487116928	82.72879292090812
O	23.56668137623413	36.54725564637783	82.52699550692125
O	23.675714216924433	37.85958464904565	82.99252221931455
O	25.861667055824707	40.38943760278365	84.65866150074102
O	26.279678098983744	41.468052750975744	85.33478539003978
O	25.415565405690863	42.69696712342503	85.72550492647024
O	27.141403160438497	41.547529696780174	86.5961620520576
O	27.28973309844764	42.44400400709122	84.6514881050247
O	24.351747954267317	42.43201358642557	86.63724492475805
