86

O	1.8050750185882347	0.2096293745098028	-5.0444969053921564
O	-3.0918351814117653	-0.3443295024901972	-0.017913665392156553
O	0.9568677925882346	0.9264176425098027	-5.843268685392157
O	2.3058955985882346	-2.3923878854901974	-0.6193869473921565
O	-0.14240620541176532	1.2594251385098028	-5.0469611553921565
O	1.9181117885882348	-0.7311304454901971	-2.9110415053921566
O	-0.9188811514117653	0.5478078875098028	-4.213008555392157
O	6.0426113685882346	-0.028038318490197223	-1.5179763563921564
O	3.2516588085882345	-2.4887974954901972	-2.8485122753921566
O	-0.13346245241176533	-0.40234836149019726	-3.4924576553921565
O	-3.3571664914117654	0.3631979624598028	-2.1291902053921565
O	-0.31418371641176535	-0.7196508754901972	-2.1986878763921567
O	4.350325738588235	-1.1807240754901973	0.20404006460784352
O	-1.3480887914117652	-0.9452159354901971	-1.2723689460921566
O	-2.5883277514117653	-0.1138823224901972	-1.3311587306921566
O	-2.0679768014117657	-0.6894016554901973	0.5255887546078435
O	-0.6638453524117653	-0.5216995794901972	-0.27535875639215657
O	0.1578025441882347	-1.7176143254901972	0.04770735460784348
O	0.6986894725882347	-2.7003689954901975	0.7785189146078433
O	0.1711666167882347	-3.1252480754901972	1.9574242546078433
O	1.1420940525882346	-3.715977845490197	2.8112518346078432
O	2.4674480585882343	-4.008045295490197	2.4077349646078434
O	2.9590417085882343	-3.645212155490197	1.1590051146078433
O	1.9863423485882348	-3.0266627854901973	0.47929513460784356
O	1.1953515615882346	-1.7637227254901973	-0.9320829773921565
O	0.9676089495882346	-1.2462953654901971	-2.0998544113921565
O	1.1777850955882347	-0.3978543984901972	-3.9676200453921564
O	3.4655244585882343	-2.5108461954901973	-1.4998548783921566
O	4.077690488588234	-1.2196848154901971	-1.1174413363921565
O	5.104044068588235	-0.8668312354901971	-2.1381232163921564
O	4.148080818588235	-0.17441508849019727	-3.1469284453921564
O	3.2079864085882344	-1.2845854554901974	-3.3709835353921567
O	4.169174918588235	-3.765141315490197	-1.3350634937921566
O	3.4579245185882344	-0.30215013849019723	0.8198375746078437
O	7.199341668588234	-0.7702807454901973	-1.1020848893921564
O	-4.0220030114117655	-5.353057095490197	-11.352950315392157
O	-0.6630937474117653	-6.303958955490197	-9.714018845392156
O	1.0332066285882346	-3.682380375490197	-7.635343995392157
O	4.061666518588234	-5.3715877654901965	-6.461998035392156
O	5.651529328588235	-8.764715865490198	-6.716440175392156
O	8.221427838588234	-10.264239525490197	-4.4420344553921565
O	2.3182871285882345	-10.269341825490196	-4.508708955392157
O	0.06320745658823468	-7.278638025490197	-3.9031520953921564
O	-2.8107475114117655	-6.645780705490197	-6.3086531653921565
O	-5.560075301411765	-4.0953678454901965	-6.754923455392156
O	-9.205091901411766	-3.0380123454901975	-2.2884670253921566
O	-5.508058391411765	-3.9779162854901977	-1.9442079723921566
O	-4.908556171411766	-7.720201005490196	-1.9218801063921567
O	-1.7489420414117653	-9.056414805490197	-0.5681299443921566
O	-1.2718309714117653	-12.762002925490197	-1.5015615033921565
O	-3.6148039114117654	3.7378660245098025	9.519580884607844
O	-4.330629131411765	1.5665694745098029	6.477373644607843
O	-7.385075201411765	-0.4269699414901972	7.530366884607844
O	-7.701625801411765	-4.170160535490197	7.532080114607844
O	-10.616398771411765	-5.280960655490197	5.4342514646078435
O	-4.896322661411766	-13.174775725490196	1.2497842446078433
O	-5.094029541411765	-10.103161825490197	3.3995233346078435
O	-7.404700951411765	-7.492852425490197	2.0228079046078435
O	-6.994279831411766	-3.9086683154901976	3.071892814607844
O	-8.140821571411765	-0.3942674574901972	2.3586400846078437
O	-6.733008221411765	0.7521902085098028	-0.8861399373921566
O	-4.683691491411765	3.8948227745098025	-1.1002884803921564
O	-5.1729302114117655	5.535891974509803	-4.473153165392157
O	-1.6338812514117653	7.1659396545098035	-4.648168435392156
O	0.6657594795882347	4.543757194509803	-3.1569057553921565
O	3.9143688085882347	4.786918424509803	-1.4384567583921566
O	4.897727358588234	8.305131044509803	-0.3664799473921565
O	8.480079858588235	7.824897944509803	-1.5375847273921566
O	7.159692978588234	7.197053584509803	-5.016606845392157
O	4.332745348588235	9.700443174509804	-4.977833155392156
O	6.638505548588235	12.680506574509803	-4.165358475392157
O	8.533373188588234	12.027008374509803	-7.393604295392157
O	9.911325778588235	0.15323204450980277	9.770451184607843
O	8.870764158588235	3.7753961845098027	9.590578584607844
O	10.107089398588235	5.150069464509803	6.284688954607843
O	8.562169298588234	6.976592044509803	3.3391513046078436
O	8.322194558588235	3.6754601945098027	1.4359215146078435
O	5.911886988588234	2.605751814509803	4.145625124607843
O	3.5986686385882347	5.520709374509803	4.089701744607844
O	0.7229011625882347	5.240921744509803	1.6464743046078434
O	-1.0826437114117653	8.219448824509803	0.10685816460784348
O	-4.828586941411765	8.479014984509803	-0.5569280413921566
O	-1.5599813314117652	6.601451374509803	6.334052504607843
O	0.9152166835882346	4.312541734509803	8.020385704607843
O	1.3256890585882348	1.0875727885098028	6.092452984607844
O	3.3523263885882346	-1.9817267654901976	6.287334614607843
