92

O	-4.567509767385965	-0.14689996138596417	-3.470648223491229
O	-4.676025267385965	-1.5359844613859641	-1.4263845244912285
O	1.448099452614035	-0.28698873138596415	1.9276317765087714
O	2.2592990326140354	-0.08606252038596418	0.7898944065087714
O	3.5471815626140346	0.4959188096140358	1.0373799465087714
O	1.675874182614035	0.18317057461403574	-0.4661174054912286
O	0.26404622461403504	0.2234191286140358	-0.5519405614912286
O	0.567040130614035	0.5117045806140358	-2.9371064734912284
O	-0.284178070385965	0.6430326186140358	-1.7858347654912285
O	-1.634733717385965	0.31950020861403583	-2.0678936914912285
O	-2.086247067385965	1.0963612226140358	-3.107729553491229
O	-2.5088870073859653	0.03536112161403582	-1.0334341514912286
O	-1.997081507385965	-0.11770355138596422	0.3210490265087713
O	-0.563691266385965	-0.40599704138596426	0.46300437650877146
O	0.038607744614035044	-0.3634067013859642	1.8080560865087714
O	4.433554612614035	0.4888368886140358	-0.07275566349122853
O	3.788358252614035	0.2511364456140358	-1.4098702624912287
O	4.029513852614035	1.4947098226140358	-2.2080076234912287
O	5.534790352614035	1.508446282614036	-2.4852903634912287
O	5.622359582614036	0.5668720276140358	-3.5385178534912285
O	6.383699792614035	1.1404031466140359	-1.3181531494912286
O	5.538636952614035	1.4915251876140356	-0.09872894349122863
O	5.149324202614035	1.4005583436140356	-4.583964733491229
O	6.4075930026140355	2.221317408614036	-4.892213713491229
O	7.672935862614035	1.7006557726140357	-4.5884128834912286
O	8.634595972614035	2.622979348614036	-4.052508033491229
O	9.315197722614034	2.137597348614036	-2.805570753491229
O	8.223454732614034	1.1595458796140359	-5.798901563491229
O	7.163808332614035	1.0898125566140358	-6.861597553491229
O	-3.801288737385965	0.6082386616140358	-0.9062125214912287
O	-4.608365677385965	0.8835362984140358	-2.0946102964912288
O	-6.041582367385964	1.0478759986140358	-1.7896327864912287
O	-6.759134497385965	-0.0020931213859641806	-1.0128346624912286
O	-5.959096377385965	-0.07420896138596422	0.2901682565087713
O	-4.573122077385965	-0.3842231913859643	-0.12527140349122856
O	0.731416112614035	12.633245028614036	3.998070506508771
O	4.511159902614035	12.259795528614035	4.0916161365087715
O	5.811257352614035	10.351256608614035	1.0758933765087715
O	4.213160652614035	9.398165898614035	-2.2676634634912287
O	4.452606282614036	5.762653398614036	-3.0999162434912284
O	2.571054202614035	5.829459348614036	-6.419806123491228
O	0.8204603126140351	8.123120108614035	-8.785388853491229
O	-1.6249863173859649	7.127210028614036	-11.459004763491228
O	-2.1525954773859652	8.506244278614036	-5.748468993491229
O	-0.997374976385965	6.404096048614036	-2.8281084134912287
O	1.081158992614035	8.037529488614036	-0.09001155349122869
O	2.8615088226140353	6.901791398614036	3.0582310265087713
O	1.6483058026140351	8.946594758614035	6.013761256508771
O	-0.528590122385965	4.397876568614036	7.275291796508771
O	-1.0166227183859649	4.055461118614036	3.4825937765087716
O	-3.327713147385965	6.667731898614036	1.9583255465087714
O	-4.998524327385965	6.105751988614036	-1.3835489264912286
O	-6.487789457385965	9.364528978614036	-2.7495630634912285
O	-5.001259587385965	-9.405418071385965	4.282678996508771
O	-4.031767667385965	-5.701618411385964	4.219774986508772
O	-6.418677247385965	-4.138127081385964	6.727896426508772
O	-8.803647047385965	-1.2865303813859645	5.9842590865087715
O	-8.137946267385965	1.4951798836140358	8.438248586508772
O	-10.538368527385966	4.300839278614036	7.655314726508772
O	-12.086485327385965	6.442999928614036	4.968064866508771
O	-12.651063727385965	10.137167868614036	4.287467336508771
O	-9.274852837385966	8.713296858614036	0.8249153365087714
O	-9.030520467385966	5.043485718614036	1.7660952665087715
O	-6.570278907385965	4.546424958614036	4.595585046508772
O	-5.0345606173859645	1.1598553676140357	5.249009866508771
O	-2.3994723373859648	-0.7749344413859641	7.177146876508772
O	1.104719212614035	0.12111845361403573	5.903316396508772
O	3.4643094226140354	-2.5499786913859643	4.586446816508771
O	7.094987772614036	-1.4379191413859642	4.968920426508771
O	8.536832652614034	-3.479909981385964	2.0538250265087714
O	6.074056112614035	-2.7145865713859645	-0.7420746244912286
O	4.943916312614035	-4.9896668113859635	-3.5267665534912287
O	6.248762062614035	-8.557951211385964	-3.6652207834912285
O	7.135595212614035	-8.276924461385965	-7.350343243491229
O	9.392889952614034	-5.425286771385964	-6.425115223491229
O	10.748319772614034	-6.739310601385964	-3.0966578134912286
O	12.073281172614035	-9.914619671385966	-4.709920533491228
O	14.346557872614035	-7.734416961385963	-6.877162163491229
O	15.959941472614036	-5.781419881385964	-4.031830263491228
O	2.7875795626140354	-10.630262571385964	-7.276536993491229
O	2.223791542614035	-6.895944291385964	-7.864710683491229
O	-0.802012545385965	-7.133874861385963	-5.609070813491229
O	0.914808042614035	-8.915155201385964	-2.7290996734912287
O	2.453663392614035	-6.557614211385964	-0.15696747349122853
O	5.403330912614035	-7.316981321385964	2.1238522765087713
O	5.822562412614035	-6.263600291385964	5.760468876508772
O	-0.547370903385965	-9.990738871385965	2.680886406508771
O	-3.129990147385965	-9.891618671385965	-0.1319296434912287
O	-3.8178130473859646	-6.444123661385964	-1.5029234204912285
O	-5.871202997385965	-4.599287021385964	-4.139359223491228
O	-9.437007927385965	-5.698965821385964	-3.840990503491229
O	-10.713498627385965	-3.586094851385964	-6.699797023491229
