79

O	-1.2787187887387756	-0.4330969047224488	-1.258002206426327
O	4.116233756261225	-4.949489659722449	3.3414518535736732
O	3.3574735762612242	-3.0714985197224487	4.804714013573673
O	-1.8686365617387757	0.3218210802775511	-0.412617217426327
O	-1.8886097827387758	-0.055066616722448836	0.886485454573673
O	-0.9578427431387756	-0.7688852231624489	1.717826723573673
O	0.06639991626122432	-0.9585222607224488	0.895142710573673
O	-0.4165348197387756	-1.2548677317224488	-0.349493495426327
O	1.9586183962612242	-4.375477939722449	3.6387664435736733
O	-2.6782898537387756	-1.282728463722449	0.650517758573673
O	-1.9426679917387757	-2.463388429722449	0.566106246573673
O	-1.2217547597387757	-2.2006543797224487	1.616102203573673
O	4.417329626261225	-3.712377419722449	3.9611166235736732
O	0.9732296962612246	-1.6818112987224487	1.682763903573673
O	2.111786696261224	-2.3920271597224487	1.438340323573673
O	2.809873206261224	-2.3595437297224486	2.723385213573673
O	2.937409726261224	-4.782533999722449	2.5341172235736726
O	2.2383789562612244	-3.0100108497224487	3.8403206935736733
O	-0.2854347807387756	-3.4698593697224487	1.383439503573673
O	-0.6726664617387756	-4.661054169722449	1.815370333573673
O	-0.04059950373877563	-5.817109899722449	1.347249933573673
O	0.7194427062612243	-5.918684969722449	0.252586549573673
O	0.8098899262612245	-4.796048789722449	-0.472277394426327
O	0.24955481626122444	-3.7157400397224487	0.07092639894367297
O	-2.2020467337387757	-3.500577899722449	-0.520350393426327
O	-2.2883388037387755	-4.817894829722449	-0.39594846242632703
O	-2.1624544037387756	-5.860301379722449	-1.312385316426327
O	-1.7814543807387757	-5.459527909722449	-2.5629528464263274
O	-2.2538857737387756	-4.215434519722449	-2.8773633664263274
O	-2.329063313738776	-3.3057060597224486	-1.8346668864263271
O	-11.619740313738777	-5.379170969722448	0.49483966457367295
O	-8.896103593738776	-6.578903479722449	2.8734164935736732
O	-5.454996083738775	-6.137354719722449	1.540808083573673
O	-3.5517243037387756	-7.635161459722449	4.410541543573673
O	-3.8474729737387756	-9.008757879722449	7.879485863573673
O	-5.282282693738775	-5.187067839722449	8.992045673573672
O	-5.168137593738775	-3.015416729722449	5.8832729235736725
O	-8.262180523738776	-2.699313479722449	3.760910833573673
O	-9.306154983738775	-1.0269444487224488	0.519777558573673
O	-8.611067173738775	4.788021880277551	0.28427386357367296
O	-6.450644103738775	2.494692720277551	2.217025333573673
O	-7.418222033738775	1.8327238102775514	5.8200641335736725
O	-4.782225403738776	0.5261136702775512	8.265969323573673
O	-6.559027773738776	-0.6911290452224489	11.462443683573673
O	5.187881526261225	9.72522897027755	-0.774781829426327
O	1.9534941862612243	7.929769300277552	0.07498664446367297
O	-0.22018522173877564	10.70375247027755	1.504639653573673
O	-5.5743793637387755	11.15599967027755	4.530025413573672
O	-7.408853143738775	3.7566412602775516	11.864762083573673
O	-4.920258023738775	5.5541981802775515	9.670582903573672
O	-6.4609610337387755	6.403072150277551	6.301448493573672
O	-4.093548213738776	7.031068510277551	3.409324863573673
O	-3.9407207837387754	7.536120080277551	-0.350946779426327
O	-4.671441633738775	4.265234200277551	-2.2173839764263272
O	-2.2482459737387757	2.7740936802775513	-4.717028006426327
O	-4.018990993738775	0.6228654302775513	-7.264857706426327
O	-1.1030970595387757	-1.750922361722449	-8.015913646426327
O	0.20615497626122448	-2.490870809722449	-4.589352996426327
O	3.7552457462612248	-3.174121609722449	-3.544527246426327
O	6.502693026261224	-3.0411418197224487	-5.972739246426327
O	7.933500646261224	-6.392423429722449	-4.8577371064263275
O	4.548162616261225	-7.987818779722449	-5.602885246426327
O	3.6943837562612245	-6.012055219722448	-8.731468176426327
O	6.927108916261225	-6.963111589722449	-10.524373416426327
O	5.838159316261224	-10.61465312972245	-10.266917116426328
O	2.4439065262612245	-10.106533389722449	-11.929707116426327
O	12.935084386261224	0.5255233402775511	6.0984964935736725
O	13.628735486261224	1.109746840277551	2.4288151035736734
O	10.757172686261224	-2.9698321797224487	-2.6095307064263267
O	8.041287516261225	-4.277337249722449	-0.29240535642632703
O	7.723421056261224	-0.7189108368224488	0.964693534573673
O	7.380470176261224	1.0046198902775512	-2.388663496426327
O	3.7960010662612245	1.2650387002775512	-3.6988968864263274
O	2.6657273862612243	1.3473199602775514	-7.286555386426327
O	-0.16081709673877564	3.415494600277551	-8.665272426426327
O	5.706436976261224	6.195847470277552	-3.914997706426327
O	7.543973316261224	5.563665880277552	-0.6005997234263271
O	5.3876568262612246	3.741233390277551	2.015690053573673
O	5.474819976261224	2.590866400277551	5.5492010835736725
