30

O	25.864487971447588	37.15464144825061	82.2638511973637
O	24.991890124148657	44.598873961995224	86.06914611477363
O	23.03668842423889	43.21800426422566	86.78614616499102
O	25.04260180480297	36.38583793351092	82.86885054232731
O	24.649718449453218	36.71691174548434	84.12030722085004
O	24.428745363227538	37.974342350153506	84.78139099772967
O	24.64981456974099	38.847618541943426	83.80652622999031
O	25.709880433965466	38.41493105230032	83.05872426254436
O	25.154520329538116	42.49166382834311	86.84786707298713
O	25.999444391434928	36.599100033389384	84.71258187057296
O	26.693386918020888	37.797434628749265	84.86961928612973
O	25.67849495124849	38.42751046439413	85.38365752978063
O	23.603729041427016	44.33829453647415	85.9681658400651
O	24.46781954485201	40.08336163135215	84.44343380094767
O	24.742126666808826	41.38172696981421	84.12805379421127
O	23.787722932401934	42.13368684225213	84.94254147366198
O	25.708853846375487	43.39514102081086	85.74314071876461
O	23.897187019214645	42.09708776904108	86.35106415363747
O	26.44844120214353	39.82353616256625	85.38182382793104
O	27.273036574352872	40.12133217907959	86.37521079830127
O	28.188475780254574	41.169243606650674	86.23750495448428
O	28.57960099952937	41.73657150218534	85.09232824240314
O	28.06830415773636	41.17793296683973	83.98760250451099
O	27.1459494037018	40.23838917550499	84.19407759703071
O	28.160847100980966	37.937651286658635	84.48189869169093
O	29.139567190124875	38.51779208921124	85.16291975756613
O	30.384561043063236	39.01551987168844	84.78269329121783
O	30.605672980073262	38.99139166503106	83.43353545025654
O	29.981741170551356	37.93916793667814	82.82251328881058
O	28.753911429489207	37.565752972953256	83.34545580447403
