94

O	-1.5127117573508477	0.6193717824067798	0.1609798803559337
O	-2.086483163350848	-0.6694989365932202	-1.9655806816440664
O	2.6059447466491523	1.5980337054067797	-2.3250152246440665
O	-1.6502626563508478	1.0090667774067799	1.4981230903559335
O	-0.9277817093508478	-0.9484710565932202	-2.9769238396440665
O	-3.2411190333508477	-0.7571747065932202	0.43974378035593364
O	1.3187764966491522	-0.12957349659322026	-2.2616628646440664
O	-1.673600973350848	-1.01211100659322	-4.168734619644066
O	4.412880516649152	3.0608694134067798	-3.509175159644067
O	-1.3351274003508478	-1.6665024465932203	-5.257983229644067
O	5.076231326649152	1.5381374924067799	-5.001813289644066
O	-0.8081537623508478	-2.9202095165932205	-5.029831279644066
O	-1.7836939533508476	1.8665298864067799	-0.7498036896440665
O	-0.10720188535084774	-3.03803397659322	-3.8959240696440665
O	-0.29323319735084774	-2.1118292965932204	-2.934752059644066
O	-2.2108372233508478	-0.8945449365932203	-0.5451097796440665
O	-0.021437188350847736	-0.11009955659322013	0.017009590355933524
O	0.7685790766491521	0.9519587934067798	-0.5761494896440664
O	1.8678484566491522	0.6331459284067799	-1.5576399426440664
O	3.4349333866491523	1.1333627984067798	-3.3651058896440667
O	3.0132049366491525	-0.12080420659322022	-3.8073307696440666
O	1.9269490366491522	-0.03505073659322022	-4.797510609644066
O	2.5174085466491523	0.6999409154067798	-5.856638139644066
O	1.9704719666491521	0.6734123404067798	-7.142293919644066
O	0.9745021866491522	-0.2656245465932201	-7.395675739644067
O	1.4072861266491525	-1.4280757265932202	-6.747053089644067
O	1.6459701966491522	-1.17146455659322	-5.396183189644066
O	4.649213426649152	1.8280389814067797	-3.6990149596440665
O	0.11710885564915219	1.9407002544067797	-1.5447733106440664
O	0.41507256664915226	1.83768026640678	-2.973997089644066
O	-0.7230094164508478	1.6972846174067797	-3.7668258196440663
O	-0.6423532657508477	1.6012303874067797	-5.117892959644067
O	0.1288958506491522	2.54787614340678	-5.6876818796440665
O	1.1061924766491522	3.02927099340678	-4.927827699644066
O	0.9214875866491522	2.91221312340678	-3.6155716396440667
O	4.410220936649152	-11.96546115659322	10.849874580355934
O	0.8356403266491522	-11.785073156593219	9.591938180355934
O	-0.6751204236508478	-9.75500175659322	6.761572450355933
O	-5.601239193350848	-7.673444566593221	4.196394110355934
O	-7.538150313350848	-8.36419437659322	2.267731820355934
O	-8.166822913350847	-7.4856781065932205	8.230035980355934
O	10.052688626649152	-2.2839420865932203	10.976543680355933
O	7.2697041266491516	-7.650226866593221	4.015649260355934
O	4.929914286649152	-7.291648706593221	0.9235131803559335
O	4.059137716649152	-3.7597038465932204	1.4759106303559335
O	5.388469176649152	-0.2731241365932202	2.224230070355934
O	3.0966986466491524	-0.1742896865932202	5.215314670355934
O	0.11753387764915224	-1.8342370765932203	6.918680470355934
O	-2.065363033350848	0.38435805040677984	9.151701880355933
O	3.9823937666491527	-2.2140256165932204	10.044095180355933
O	6.546799056649152	-0.7745320665932203	7.624841760355933
O	9.050854096649152	-2.16468538659322	5.067333370355933
O	11.938627226649151	3.07394967340678	3.723703060355933
O	5.200382826649152	10.04671204340678	3.0518404203559335
O	4.578275036649152	6.40619872340678	3.7688673703559337
O	4.423539616649152	7.04781763340678	7.448102750355934
O	2.077909246649152	10.02180611340678	6.932936380355933
O	-0.21160951835084774	4.89262365340678	7.613058070355933
O	-0.9665542083508478	7.49522344340678	10.164475080355933
O	-3.8636649433508476	8.73616122340678	8.042041320355933
O	-9.520743523350848	3.0037342434067797	6.615790690355933
O	-13.438969773350848	-4.58610688659322	-1.1133345656440665
O	-11.557175273350849	-0.1254662365932202	-1.4685252346440665
O	-9.970706743350847	3.65090329340678	2.186967450355933
O	-8.282229773350847	7.59674152340678	-1.9829636106440665
O	-5.8085738833508485	8.24619397340678	2.9349611803559332
O	-3.6462884133508475	9.45588106340678	0.10151925035593345
O	-5.564533793350848	12.75414534340678	0.2743997603559336
O	-4.830844083350848	13.13406774340678	4.030157120355933
O	-1.2484322913508477	11.970207543406781	3.537362740355934
O	0.49817800664915224	9.88942632340678	-8.363000789644065
O	-1.278770128350848	10.76186563340678	-11.616123649644067
O	1.4374280366491523	6.21905907340678	-11.469172239644067
O	-4.514560343350848	-9.54046695659322	-4.312172399644067
O	-4.611131153350848	-9.83651025659322	-8.121368759644067
O	-6.645619323350848	-6.69291444659322	-8.703025859644066
O	-4.620269973350847	-4.704998046593221	-6.384870459644066
O	-2.8618544533508476	-1.6242871365932203	-7.8933864396440665
O	-2.507782363350848	1.9994792824067797	-7.541506109644066
O	-5.821468483350848	2.67464771340678	-9.249099939644067
O	-7.785996223350848	2.9214044434067796	-6.091526319644067
O	-5.205520113350848	5.15697984340678	-4.486236109644066
O	-4.623528763350848	7.445204703406779	-7.365879079644066
O	-7.953357833350848	7.560854643406779	-9.196536659644067
O	11.710658226649151	4.0771068634067795	-5.104420279644066
O	12.970705926649153	0.7020251564067799	-8.708958389644067
O	8.003066506649152	-5.21612178659322	-1.3612219386440665
O	5.744790176649152	-6.322741916593221	-4.160228499644067
O	5.476630056649152	-2.7963956465932203	-5.532408669644067
O	9.040778556649151	-3.2227196165932206	-6.473100059644066
O	6.958111816649152	-7.83109066659322	-9.213641729644067
O	4.321309146649152	-12.60115265659322	-3.2078284696440664
O	1.8666945066491523	-13.30750105659322	-7.691508869644067
O	5.399741696649152	-13.46703705659322	-9.149498789644067
