90

O	-2.1830487740426237	2.079405209557377	-3.5244057350393434
O	1.4966845479573765	0.5020743765573774	-3.5610450150393436
O	-1.6741667220426235	2.5020426195573773	-2.3012974050393433
O	-0.5065791200426236	1.8973543795573775	1.5964551049606568
O	-2.879116262042624	-0.7415421304426227	1.7791406249606565
O	-0.3722663200426236	3.0496188695573774	-2.2829424450393434
O	-1.9150996160426237	-1.1382654604426223	2.6668754049606567
O	-2.8579075220426233	-3.1343688604426223	2.9446470149606565
O	0.4515652079573764	2.523037359557377	-3.2235381250393433
O	-3.4942091920426237	-6.944391510442623	2.6063870949606565
O	-0.08873503204262367	2.5280228195573775	-4.473176235039344
O	-5.433304612042624	-5.756387480442623	2.3532554249606568
O	-1.4798331410426235	2.625335109557377	-4.591859825039344
O	1.6788104779573763	1.7428212025573773	-2.997223505039343
O	0.9445828279573765	-0.5063198904426226	-2.8152526350393434
O	1.3991088579573763	-0.9070556804426227	-1.5646143660393435
O	0.5209368379573764	-0.9761394804426226	-0.4692993020393435
O	-0.7708941730426235	-0.5151820204426226	-0.7702484110393435
O	-1.2486016673426237	-0.9766725304426226	-1.9580151950393434
O	-0.39365419204262364	-0.8198690504426226	-3.0592839850393436
O	-1.6685320150426235	0.2058848735573774	0.15837861496065642
O	-0.7790816250426236	0.5512432095573774	1.2769445849606567
O	-0.6919563650426236	-0.43941790044262274	2.4016257349606565
O	-1.7663214130426237	-2.5908347304426225	2.5886058349606564
O	-1.5100059070426237	-3.0084404304426227	1.1636138049606566
O	-2.720901952042624	-3.0079688904426227	0.32384566496065637
O	-3.8338989020426237	-3.8446471004426224	0.9430863349606565
O	-3.4847140020426237	-5.320786610442623	0.8736144349606564
O	-4.129486362042623	-6.054014450442622	1.9907887449606565
O	11.493460277957377	-0.5778541904426228	-6.337093625039344
O	13.837983877957377	-3.324155600442623	-5.146069555039344
O	14.286161577957376	-4.459490760442622	0.3279299549606566
O	12.628372877957377	-1.4477379904426226	-1.2580017960393435
O	8.955584277957376	-0.6786047704426227	-1.8451802080393436
O	8.630844637957377	2.8277513295573775	-3.2733777150393433
O	4.992565857957377	3.5216528195573775	-3.1981344750393434
O	3.560408067957376	4.605263339557378	-5.389506145039344
O	3.360046897957376	12.882440429557377	-2.7078389250393435
O	6.681877047957377	12.243183129557378	0.8448548649606565
O	9.377047477957376	10.286288879557377	-0.9585198593393436
O	7.320275967957377	7.122368899557378	-1.3061990950393434
O	7.945325807957376	6.681784909557377	2.4093563249606564
O	6.994074527957377	-8.866190120442623	0.2934663449606564
O	4.122751647957376	-7.632093350442622	-1.9688392050393437
O	1.9027566279573764	-6.276883620442622	0.7448466649606565
O	0.45340135795737635	-6.981494820442623	4.213717374960656
O	2.1555147379573762	-3.8218842904426227	5.422796244960656
O	4.088399167957377	-0.6725682704426227	4.509785224960656
O	3.870807257957376	2.3394928195573774	6.877239854960656
O	7.251897527957377	-3.378274910442623	7.070078074960656
O	4.942831607957377	-6.376989860442623	7.373121144960656
O	4.440806667957377	-9.656708070442622	5.506597894960656
O	-2.8526184220426236	-5.084709630442623	10.031273424960656
O	-0.5441112650426236	-3.708308240442623	12.694093224960657
O	0.0811411979573764	0.5009852785573774	9.854313924960657
O	0.19421684795737648	2.3019661195573775	13.179256424960656
O	-2.711180692042624	4.5109528995573775	12.086667024960656
O	-1.2186445424426235	10.099781759557377	11.249807524960657
O	-3.4408498720426235	9.440463049557378	8.235108004960656
O	-1.0059464320426237	8.990113959557377	5.358643614960656
O	2.3617985279573763	9.900215029557378	6.824966214960656
O	-2.4545683520426236	9.545862889557377	-6.091708435039344
O	-5.313007362042624	8.040383889557377	-2.4465812450393436
O	-8.629659032042623	7.292525529557378	-0.7253969680393435
O	-4.749631392042623	7.957558539557377	2.9840740049606564
O	-10.088008682042624	5.398521249557377	3.8769025649606568
O	-6.465236542042623	4.7034127095573774	8.016155784960656
O	-9.016930892042623	1.9038647195573772	7.830615794960655
O	-0.8778742040426236	3.1441560895573772	-10.343179915039343
O	0.06287098795737633	-0.41842692044262264	-9.347975695039343
O	-2.561939262042624	-1.5860198804426227	-11.880819375039344
O	-5.406410482042624	0.48085179455737737	-10.453079345039344
O	-4.6607017220426235	-0.7376698904426228	-6.935310595039343
O	-7.528544872042623	-2.4687651904426224	-5.146832595039344
O	-9.691102362042622	-2.4526412704426224	-2.0131659650393434
O	-11.891862722042623	0.2807462525573774	-3.4601173850393434
O	-10.059261432042623	3.2388104995573777	-1.9301363650393437
O	-9.844637582042623	1.3955376765573773	1.4165422449606564
O	-13.442119222042622	0.22723307255737735	1.6046889449606567
O	-15.373764522042624	2.8132208995573773	-0.3702965110393436
O	-14.146624122042622	3.7244791495573772	4.902959854960656
O	1.6670354379573764	-11.093704570442622	-0.8914035803393435
O	-0.21500958204262366	-9.911135870442623	-3.9750497650393433
O	-3.522585202042624	-9.992768470442623	-2.1322626150393433
O	-3.1285898820426237	-13.787996570442623	-2.0358442750393437
O	-2.7287598320426234	-12.788173870442623	-7.799760875039344
O	5.917044827957376	-5.4906961704426225	-9.517726655039343
O	4.322036237957377	-8.804213280442623	-8.563269535039343
O	4.606569437957376	-7.951631540442623	-13.842917075039344
O	1.0642711979573765	-7.974077620442623	-12.448263175039344
