23

O	10.170949859449486	37.699315502831595	75.58314548920977
O	11.214772321575284	40.6087271754892	71.09588627216431
O	12.034555058777752	40.559065376974424	70.13807973090864
O	11.283014173560417	39.292962275721315	71.76781322104642
O	12.150990333648064	41.43489128784366	69.0159522922314
O	10.72235004612834	38.385168304227875	71.02805579649207
O	9.287173730049785	40.14937800198623	70.47290154519271
O	8.593490028891535	40.08945606834452	71.54467804307117
O	12.568515528845493	41.83859289440346	67.86164851109619
O	10.008984894354423	37.487784931852794	74.13653520743121
O	9.755224536684914	38.78101075854696	70.00977796786137
O	7.794783079797659	38.92562386885511	71.57955240812925
O	8.734480473207913	37.828442240083774	73.50492419262008
O	8.542933900019829	37.84586906074877	72.06065870406673
O	12.84871641964315	40.510563929218236	65.63000025006477
O	14.195593418778316	40.40243597375529	66.11654534848343
O	11.397792884217118	40.27581044423903	65.94372221112928
O	15.198067693263784	41.377388854938076	65.69819139021821
O	11.650712101924135	42.36963430847974	66.91961731655567
O	10.521560942421718	41.29115405929542	66.7252600282365
O	15.97184654822025	41.06692836981628	64.74292109384186
O	15.578722128943342	42.348102215068636	66.59738417150844
O	11.035512194702019	42.352732457480194	65.75814669408545
