89

O	0.5893694042246156	2.8559856527230765	4.778143012386461
O	-0.7595000089753844	3.248259592723077	5.141621202386461
O	-1.6162701067753842	3.364696032723076	3.9609872223864606
O	0.8790055842246156	3.1801059627230766	2.6739775923864615
O	1.7443879642246156	1.8981632157230766	2.627003132386461
O	1.4573495842246158	0.7934118567230766	1.728300432386461
O	2.2457657742246155	-1.0781168772769234	0.9785810423864612
O	1.0975459942246157	-1.7916135172769236	0.921468292386461
O	1.1266839542246156	-2.6018415272769237	-0.22625029961353893
O	1.8777456542246156	-2.123239437276924	-1.1875521516135388
O	1.1281533042246157	-0.9326720772769235	-1.898901567613539
O	2.0036268142246154	-1.2928720872769233	-2.982641017613539
O	3.175426304224616	-0.5943158572769234	-2.905436327613539
O	3.480879594224616	-0.28074757727692345	-4.238433127613539
O	3.2064134942246154	-1.1605696672769235	-5.2404281776135395
O	2.8858871742246155	-2.3628620672769234	-4.823024797613539
O	2.2681529642246154	-2.486160857276923	-3.6136935976135387
O	3.1976702042246155	-1.9695592872769236	-0.8445370896135389
O	3.380074734224616	-1.4933472072769234	0.47440861238646104
O	0.5146002442246156	5.119203942723077	4.295062382386461
O	-2.640057045775384	2.685855462723077	4.291189922386461
O	-1.9807634557753844	4.665214872723077	3.592897532386461
O	1.9790367342246158	0.25216201772307656	0.6233747023864611
O	1.0027673742246157	3.8909603327230764	3.906521512386461
O	6.269223134224616	-9.697888107276924	10.861729942386463
O	2.9103232542246156	-8.184986407276924	11.856509042386461
O	0.08221777622461568	-4.871189647276923	14.830982742386462
O	0.6261603242246156	-3.571483547276923	11.311012642386462
O	-0.9788585037753843	-5.889047967276923	8.778532402386462
O	-0.7459190713753844	-3.8776486372769234	5.517972162386461
O	0.12247122922461562	-5.062927087276924	3.0706492823864613
O	0.1979570232246156	-8.813989187276924	3.5663551723864613
O	0.9615085742246157	-9.461220407276924	7.274561642386461
O	-2.4567463957753843	-10.420387807276924	8.669447622386462
O	-5.905344425775384	-10.482105107276924	0.13304712838646104
O	-7.839060545775384	-7.191581907276924	-0.16471202661353895
O	-10.240668015775386	-8.846656147276924	-2.612573197613539
O	-5.197176175775384	-5.780091247276923	6.323980572386461
O	4.506332454224616	4.7497009027230765	9.126505782386461
O	3.067711504224616	8.268176392723076	9.472488942386462
O	-0.4075249347753843	6.799100012723077	9.853072042386462
O	-2.4991897457753844	3.5857738927230765	9.443476642386461
O	-6.127020985775384	3.9955992727230765	8.423495722386463
O	-2.7788734857753843	4.811994812723077	14.179946142386461
O	-0.27528674277538434	7.677774482723077	13.933223542386461
O	-6.033384045775384	8.982198562723076	7.3321640023864605
O	-11.026734425775386	5.819929402723076	-0.46434730661353896
O	-9.312337435775385	2.6603219327230763	0.795078032386461
O	-13.677850025775385	1.3592216657230765	-1.8149550676135389
O	-10.715256225775384	-1.0199573772769235	-1.757237677613539
O	-7.979812085775384	-2.0895712772769235	-4.180263207613539
O	-8.785193675775385	-5.676320877276924	-5.234004547613539
O	-5.059669855775384	-6.574252687276923	-5.409168887613539
O	-2.048069505775384	-4.741792227276923	-4.307375787613539
O	-1.1706496347753843	-4.186276337276923	-7.926568887613539
O	-3.931270925775384	-1.4981129972769234	-7.969926857613539
O	-2.511936585775384	0.037274125723076534	-4.6920331476135395
O	-2.6199624357753843	3.444458892723077	-6.451830007613539
O	-6.385665045775384	3.4954062127230765	-6.209193247613539
O	-6.2407605857753845	3.545303352723076	-2.456930957613539
O	-3.8387942857753847	8.301999362723077	-5.179101647613539
O	-7.459503955775384	9.128157292723076	-4.369389407613539
O	-6.794185925775384	9.527577072723076	-0.665510709733539
O	7.600075174224616	11.889984092723076	-7.103864867613539
O	4.824571314224616	2.3676477427230767	-12.894948557613539
O	1.4084618542246157	3.4317004327230762	-11.594988457613539
O	0.055220778224615685	-0.10528437727692341	-11.841799657613539
O	2.6441975542246157	-2.6499884872769233	-10.778614557613539
O	2.9986590142246152	-6.450451757276923	-10.920457557613538
O	3.9171572042246154	-7.661070067276923	-7.427278077613539
O	7.747060894224616	-9.075363967276925	-5.104640907613539
O	7.4754286942246155	-8.476905317276923	-1.386992319613539
O	5.059815134224616	-5.6026959272769234	-1.233881830613539
O	7.002108614224616	-3.8943077072769237	1.490056162386461
O	9.976258174224615	-3.7120150772769236	-0.930036702613539
O	8.090565174224615	-2.092671017276923	-3.7680509276135385
O	6.554133904224616	0.4144387697230766	-1.4243226686135388
O	7.144425834224616	3.9624712227230763	-2.173996017613539
O	5.579192964224616	7.322554162723077	-2.814822417613539
O	4.987882894224616	6.428237322723077	-6.463815317613539
O	1.4558703642246156	5.160048862723077	-5.951667247613539
O	0.6477966242246156	8.201607052723077	-3.737812627613539
O	2.1307386842246157	10.911130822723075	-5.973940107613539
O	1.8692776642246158	9.509170352723077	-9.484799937613538
O	-1.6939160917753844	8.560556982723076	-8.560871587613539
O	10.556855174224616	4.212777152723077	7.678615392386461
O	10.113687974224614	7.362922762723077	5.656692212386461
O	9.752325674224615	-5.040474187276923	8.763074522386463
O	14.400949174224616	-3.2265004972769233	5.094055432386461
