75

O	-0.43802580094833327	-2.034577562763334	2.9066050131
O	0.1014506720516668	-1.8088369327633333	1.5846912531000004
O	-0.7079409436483333	-2.0534719427633337	0.48093145910000035
O	-0.04040763794833324	-1.8293227527633336	-0.6820795038999996
O	1.0403990030516668	-1.0289914927633335	-0.8754414378999996
O	1.1261135630516668	-0.20259563176333345	0.26701330210000035
O	0.8388294530516667	-0.6209947327633334	1.5474706731000003
O	1.8253019430516666	-0.7327041127633334	2.5566712631
O	2.791726833051667	-1.7695980027633336	2.2922599231
O	3.232567443051667	-1.2116923027633333	0.9759113931000003
O	4.121066613051667	-1.8995914227633335	0.15008343010000036
O	5.268723863051667	-1.3993596427633335	-0.41194761289999965
O	5.177360933051666	-0.16186606876333348	-0.8942197098999997
O	4.231647363051667	0.6402989472366666	-0.3129821498999996
O	3.6445022830516667	0.14394946423666655	0.8535572351000004
O	-6.5061640169483335	1.6851290672366666	9.7035351231
O	-6.777095826948333	-2.0958074827633335	9.7809388031
O	-2.991995306948333	-2.4205960127633337	9.3054786131
O	12.684031323051666	-2.6634206427633336	8.5108754631
O	12.678180123051666	0.44860587903666654	4.3838743931
O	9.619764123051667	1.3190761472366666	6.4560654231
O	6.823089673051666	1.3128434012366665	4.0095371731
O	4.401538013051667	0.041636047236666585	4.6924089131
O	4.128202703051667	-0.9047662527633333	8.1525438831
O	7.749799463051668	-1.4542659527633335	9.2228323531
O	8.445570353051666	1.8522196772366666	11.0168163131
O	10.118239223051667	-2.242283402763334	13.6799313131
O	2.3796642630516667	3.2682882472366663	12.2860292131
O	-0.33284534194833326	4.516198727236667	9.9307413031
O	-0.2609804019483332	6.885062117236667	6.9076946531
O	-3.2485112669483334	8.662710987236666	8.3840500831
O	12.508048723051667	-1.8860957427633334	-4.6967189569
O	13.290066923051667	0.21163820923666657	-7.7490541469
O	12.886677823051667	3.2960879772366662	-5.6343179568999995
O	11.596007123051667	4.639515967236667	-2.3402576769
O	1.4540723630516665	12.536003087236667	-5.1189978669
O	2.2910274330516667	10.429958477236667	-2.1046841569
O	-1.0221329989483332	10.767952887236667	1.1474421631000005
O	-3.2363058769483333	7.677114537236667	1.2029789131000004
O	-5.037934366948333	7.638513677236666	4.5612341831
O	-4.951562036948333	3.8600953372366664	4.8152310931
O	-3.234476126948333	1.4699959072366666	2.7114751831
O	-6.423937186948333	0.20829079723666657	1.2201408131000004
O	-6.276226316948334	3.3939200572366666	-0.8668977668999996
O	-2.7749307269483334	3.024283557236666	-1.9413871868999997
O	-3.730647626948333	3.2924698272366664	-5.5452472769
O	-3.982168296948333	7.057314477236667	-4.9014239568999995
O	-0.2710906829483332	7.263080017236667	-4.1902910369
O	-1.7250998369483332	5.5939743172366665	-9.7399477169
O	-0.6594986240483333	-9.159941252763334	-12.8803551869
O	-5.709058086948334	-8.328437172763334	-5.0003333968999994
O	-6.699317286948333	-7.192905912763333	-8.5176612869
O	-9.318196056948333	-4.725199932763333	-7.2689615569
O	-8.200537166948333	-1.0841363727633333	-7.3465939169
O	-9.417107936948334	-0.45369701276333346	-3.7838765769
O	-8.558015626948333	-3.4210690027633337	-1.5514349768999995
O	-9.219209296948334	-4.575989412763334	2.0174906231
O	-5.981112146948333	-5.403341372763333	3.8345340631
O	-7.691269616948333	-6.6503362027633335	6.9969810131
O	-3.349441796948333	-9.160439202763333	4.9203880831
O	0.3454759730516668	-8.485670252763333	5.278270683100001
O	0.7834177430516667	-5.678255792763333	2.9407685631000002
O	3.998354473051667	-6.791430192763333	1.5560876431000004
O	2.1347452730516667	-9.877124112763333	0.2822033371000004
O	-0.6126660009483332	-8.004983192763333	-1.5537862568999996
O	1.9095004030516667	-5.843541222763333	-3.3090188969
O	1.8856284130516667	-5.803456512763333	-7.0942167169
O	1.641786103051667	-3.5756435527633337	-10.1363419869
O	-2.1762716769483332	-3.509687252763334	-9.8703316469
O	-2.401362326948333	-0.2771275757633334	-7.8640656969
O	0.2078447890516668	1.3311640852366666	-10.1708910869
O	-4.967556876948334	-0.11633934976333343	-12.809558686899999
O	-4.703426166948333	3.2574093072366663	-11.0766156869
O	-4.079716806948333	12.026251187236667	4.1940922131
O	10.567134923051666	-7.180816642763333	-9.0394023269
