89

O	-0.41315520338059675	0.7206665067910448	0.48115953541791046
O	3.179464071619403	-0.22712575220895526	-0.7551948905820896
O	5.659965831619402	-1.3465393522089553	0.28192706541791035
O	0.9944820916194033	0.9450462527910448	0.02318658541791041
O	-1.3832571453805969	1.6761195177910446	0.47245121541791046
O	0.9122651416194032	2.049647677791045	-0.7816517635820895
O	1.7392948316194032	-0.04858487620895524	-0.7707756665820895
O	1.2840587716194032	-0.21388514620895516	-1.9050620375820895
O	3.9505030816194036	-1.2777053622089554	-1.2808739925820896
O	5.203249271619404	-3.229778552208955	-0.6869209945820896
O	4.726857911619403	-2.001192512208955	-0.2097800385820896
O	-0.4221628523805968	-0.6518984522089551	0.9618946854179103
O	-0.8685821333805968	-1.4079480922089553	-0.3171177505820896
O	-0.45599052338059676	-2.629851112208955	-0.7212567085820896
O	-1.2688041813805968	-3.393907382208955	-1.4851644955820895
O	-2.5969262883805966	-3.386246062208955	-1.2719387365820896
O	-3.1281493083805967	-2.429362822208955	-0.5003579685820896
O	-2.287052398380597	-1.3381244422089553	-0.2901712175820895
O	5.050517011619403	-0.8467756522089552	-2.2279952345820897
O	4.595549301619403	-1.284387712208955	-3.5775494745820895
O	3.6212680316194032	-0.2840284852089552	-4.108701874582089
O	5.856354881619403	-1.0299959322089554	-4.40478034458209
O	-2.0775388383805966	6.960286877791044	14.10251743541791
O	-4.917153658380597	5.7301410577910445	11.92809603541791
O	-4.874854848380597	3.317254187791045	9.069207595417911
O	-8.288210198380597	3.005341487791045	7.40056092541791
O	-7.678405808380596	1.0043853717910447	4.2241460454179105
O	-9.460877118380598	-1.0805799722089553	3.4882203654179103
O	-13.039419518380598	7.743204417791045	-0.6609343265820895
O	-10.273403938380596	4.9542868077910445	3.3648750654179107
O	-8.099839118380597	7.965580077791045	2.5903783254179107
O	7.576974351619402	9.077962507791044	8.95352714541791
O	3.3366984716194033	1.1736264257910447	10.971932335417911
O	1.933098441619403	-1.8603955222089552	9.07374073541791
O	2.910593451619403	-0.8518966522089552	5.53297966541791
O	5.790160321619403	0.6678707197910447	3.4960998854179106
O	3.4558025116194035	3.509278617791045	2.6251442354179106
O	-0.10409283638059674	4.972624457791045	2.7993615554179105
O	-1.1373457913805969	7.510840757791044	0.05423524441791039
O	-3.021651538380597	9.657588657791045	2.4571000754179106
O	1.873345041619403	10.382159507791044	2.6833937754179105
O	2.6060536116194033	7.9820441277910446	5.566475165417911
O	5.785324931619403	5.908473857791044	5.320794155417911
O	7.524908221619404	3.241995627791045	7.42620945541791
O	12.871750881619402	3.1583430577910447	4.439349095417911
O	8.401104881619403	3.599124237791045	-2.26525278458209
O	8.093973301619403	7.398798527791045	-2.3329978045820896
O	7.667194071619402	7.309541557791045	-6.145765594582089
O	3.049479961619403	6.698928497791044	-2.9760949645820896
O	3.351208781619403	9.893539067791044	-5.125187684582089
O	1.8143125516194032	8.013953297791044	-8.05487979458209
O	-2.103357658380597	10.967477297791044	-6.153502994582089
O	-3.451329818380597	9.995049177791044	-9.59356984458209
O	-3.9720788583805966	6.238666167791044	-9.74383313458209
O	-5.943013868380596	5.5115521177910445	-6.594761034582089
O	-6.733448598380598	8.902504677791045	-5.091663084582089
O	-12.215216618380596	-3.7585584922089548	-3.3333539845820894
O	-8.271387088380596	-3.2376325922089553	-6.219326694582089
O	-5.777093258380598	-4.189509322208956	-8.99546724458209
O	-5.346306398380596	1.1544599017910449	-7.92499964458209
O	-1.3154960893805967	-2.236205542208955	-10.80320432458209
O	0.4893411816194033	2.819227737791045	-9.44627565458209
O	3.343599351619403	0.28824657479104476	-9.72791433458209
O	3.3695267416194032	1.0295873807910447	-13.44509236458209
O	3.761359361619403	4.775672507791045	-12.765131464582089
O	6.248926301619404	4.166235337791044	-9.985132574582089
O	8.303993931619402	-7.821160132208956	-9.53469345458209
O	-6.713416788380597	-7.620562252208956	5.167618565417911
O	-6.495449828380597	-11.424994502208955	4.8432975654179105
O	-6.620960588380596	-11.490738702208956	1.0271128454179106
O	-3.8896789683805966	-9.011228662208955	0.8347933154179105
O	-0.6825698198805967	-9.877990402208956	-1.1134441045820895
O	1.5812897816194034	-8.599244092208956	-3.9447534845820895
O	-0.7526471483805968	-10.267454902208955	-6.510992414582089
O	-2.797008468380597	-7.180297222208956	-7.409169834582089
O	0.47469043161940316	-5.074665132208955	-7.46498032458209
O	2.484865111619403	-7.458446212208956	-9.616705304582089
O	-0.07835042538059678	-9.324556432208956	-11.67394636458209
O	1.704078761619403	-4.427361032208956	-13.34140706458209
O	14.734339481619402	-5.178523552208955	2.2732637154179107
O	5.925921471619404	-3.5822080522089554	8.639289455417911
O	3.8424106416194035	-6.6612429922089555	7.90003371541791
O	5.7816740916194025	-7.3124776722089555	4.682339655417911
O	8.746799241619403	-8.145680022208955	6.951955535417911
O	4.702418271619404	-11.862585802208956	9.04556655541791
O	-4.358593738380597	-5.705711112208956	12.44117313541791
O	-0.7789283163805968	-6.962021692208956	12.54486883541791
O	-2.6947307183805966	-11.542518702208955	11.17530393541791
O	0.4266383316194031	-12.939405302208955	12.89947253541791
