22

O	7.380008682297586	39.842502987119985	68.80892411059014
O	7.792234096986144	40.90998452055779	68.18569956761013
O	9.082509987856579	41.111583364923725	68.16264505337912
O	9.911332997714313	40.47125181595935	68.99339122511188
O	9.506915277335288	39.25127410625011	69.30856086848246
O	8.273481774555888	39.336420643930246	69.79551798564688
O	7.803350084353101	37.95365720895607	70.10216974189552
O	6.4911046532749195	38.35794268815815	70.23171638554355
O	7.825524499749544	37.369615608521364	68.76110306234986
O	8.861442194590659	37.725720382124344	67.99148344298543
O	9.073085171659972	38.25872518309212	66.70388209877065
O	8.016638273899046	38.41843455359802	66.04610551437058
O	6.887238859398081	38.059898529788285	66.59797645604856
O	6.726602710506347	37.793941647900766	67.97036776139663
O	9.676700947682916	41.39498019416478	67.01644663106723
O	10.898178984447702	42.06087408460595	66.97884519908504
O	11.931598238852477	41.01019810554337	66.52848180076654
O	12.683666063741459	42.934514118479505	65.59831260845587
O	14.108712362701187	42.86415122059831	66.04553267996589
O	14.682960918250085	42.06845673675565	64.8845546113743
O	13.579248714381556	41.10230643390989	64.7045792555849
O	12.378737695489011	41.56216029396038	65.28915919614704
