73

O	-2.256945605088135	3.7921196591762714	3.487886545457627
O	-2.196053865088135	4.184328499176271	2.197982185457627
O	-1.6638126240881348	3.3793433691762713	1.197480015457627
O	-0.6078216880881349	2.605133529176271	1.593090275457627
O	-0.6905247300881348	2.1893200291762716	2.9403396054576274
O	-1.190360161118135	3.0616818391762712	3.903187205457627
O	-1.5764645440881349	3.980456949176271	-0.1391050881123729
O	-1.0227684170881348	3.1150798391762713	-1.147175664542373
O	-1.5483055350881347	1.7800520631762713	-1.1086979765423728
O	-2.4865412250881347	1.4472528361762713	-0.10316969734237291
O	-2.398220995088135	0.07452507917627138	0.12797563445762708
O	-2.8477907150881347	-0.6266757308237287	-0.9554945095423729
O	-2.5155847750881346	-0.15082443082372876	-2.1842139445423725
O	-1.7698634920881349	1.0316741544762713	-2.2643122645423728
O	4.330889294911865	-0.1118066408237286	-11.645997764542372
O	0.08010908491186508	3.0195213991762713	-10.393231964542373
O	-1.1152467995881348	15.515513579176272	-0.7724681245423729
O	0.908286374911865	12.923290379176272	3.205893905457627
O	2.3923265949118653	11.43929007917627	0.03985267445762708
O	1.8161184949118652	7.728646979176271	0.49076057645762705
O	0.8817199049118654	6.173492549176271	-1.645123154542373
O	0.9346184949118652	8.090890929176272	-4.867552264542373
O	0.4785920549118652	11.726789379176271	-3.8337361145423725
O	4.073606294911865	12.98006807917627	-4.1204471045423725
O	6.026458264911865	8.562392909176271	-8.253637394542373
O	6.802993124911865	4.885660149176271	-7.662491334542373
O	8.367098064911865	3.0214166191762715	-4.692616014542373
O	10.607074474911865	1.1755548481762714	-7.156421934542372
O	-3.5380655350881347	8.000862199176272	9.879041535457628
O	-2.264583905088135	6.722327909176271	13.212278335457627
O	1.254669954911865	7.2632274991762715	11.978048735457627
O	3.3986015649118655	7.896555929176271	8.913217565457627
O	1.5107352549118653	10.65229035917627	14.511856335457628
O	10.836689074911865	-2.7721242108237285	7.123357305457628
O	9.438258174911864	-0.18309754082372875	4.727388075457627
O	10.757773774911865	-1.1978006708237285	0.35490807045762707
O	7.8501984149118655	-2.652743930823729	-1.6228817845423729
O	8.734824604911864	-2.306223290823729	-5.321901344542373
O	5.131453614911866	-1.7066118008237288	-6.3369463645423725
O	2.170722114911865	-1.1214079908237289	-4.257520774542373
O	0.7786374649118653	-4.5162191008237285	-5.111791454542373
O	3.3056344749118654	-5.787793160823728	-2.593138014542373
O	2.426350174911865	-3.3563534108237283	0.1278269234576271
O	1.9959819349118653	-6.332500840823728	2.4853542954576273
O	5.802277264911865	-6.582650400823729	2.6565837754576274
O	6.031833124911865	-3.1764671208237285	4.245909795457627
O	3.1762980749118648	-7.3617635608237295	7.458238675457627
O	-11.969763625088135	-6.691784390823728	7.256931475457627
O	-9.012513335088135	-6.518834960823729	-1.647319934542373
O	-8.730906635088134	-9.41977822082373	0.828675453457627
O	-5.921693585088136	-11.14040062082373	-1.086013626542373
O	-2.4586581250881347	-10.629163220823727	0.4163680164576271
O	-0.9366471700881348	-9.672163420823729	-2.942583984542373
O	-3.3156797850881348	-7.442218650823729	-4.8968026445423725
O	-3.532565345088135	-5.941119000823728	-8.392928044542373
O	-4.055022275088135	-2.190647220823729	-8.250025944542372
O	-4.397254995088135	-1.6915317608237288	-11.971375564542372
O	-7.561524705088134	0.9722948557762713	-8.463691514542372
O	-6.9125745850881355	4.139934209176271	-6.458885474542373
O	-4.699233925088135	2.9184178391762714	-3.7491079445423727
O	-6.411120675088135	4.946057979176271	-1.081952296542373
O	-9.583538565088135	2.9847332791762713	-1.826342664542373
O	-8.044513025088134	-0.45650618082372874	-1.4481216345423729
O	-6.4976065950881345	0.49501270217627136	1.8895290354576268
O	-7.3698974150881345	-1.6726561108237288	4.853661135457627
O	-5.9969575850881345	-3.840415540823729	7.649201955457627
O	-5.686644055088134	-6.818383220823729	5.283977925457627
O	-2.057115843088135	-6.252617670823729	4.319067515457627
O	-1.1659060173881348	-5.580753920823729	7.995029295457627
O	-2.9833291750881346	-11.12582692082373	6.788199175457628
O	0.7046012449118653	-10.30004972082373	6.309676445457627
O	12.855235174911865	-2.1766296808237287	-3.504071064542373
O	-9.642102725088135	4.492801469176271	11.006291235457628
