79

O	-0.906918308034483	0.06508475445344741	0.353008434406897
O	-1.6942512000344832	1.0087541604534473	1.161013211206897
O	-0.930232079034483	1.8403291114534475	2.008224391206897
O	-0.5564296230344831	3.1482096344534476	2.2107939212068968
O	-1.392316657034483	4.302089724453447	2.250447771206897
O	-2.509181134034483	4.206735724453448	1.706962121206897
O	-0.750172216034483	5.492821874453448	2.260323871206897
O	0.49647857596551703	3.3401938444534474	3.278485311206897
O	0.5040574859655169	0.05769827445344733	0.610707889206897
O	-2.573943274034483	1.6840426444534473	0.546079130206897
O	-1.870837159034483	-1.1170803255465525	0.166456571206897
O	-3.1183309740344827	-1.1549537855465526	0.866579264206897
O	3.414184815965517	2.3930534844534472	0.709776832206897
O	-4.279422444034483	-1.5001290655465525	0.07256009120689702
O	3.945177345965517	2.1844951784534477	1.9451275712068972
O	-4.005018274034483	-2.4314887955465525	-0.616494797793103
O	3.2671861459655167	1.4238166854534473	2.838212701206897
O	-3.798545104034483	-0.3843579055465527	1.559509781206897
O	2.263711385965517	0.6597506474534474	2.319191211206897
O	1.4529801659655168	0.9748664604534474	1.198129928206897
O	2.0968428759655167	2.063038348453447	0.574338604206897
O	-9.272733524034482	10.237190074453446	-9.996197708793103
O	-9.697406744034483	8.489038474453448	-3.417994558793103
O	-14.923504754034482	1.8219445914534473	-1.8054077187931028
O	1.5218967959655167	-7.625999075546552	-13.024728108793102
O	-2.1863669040344833	2.099902965453447	-13.069429508793101
O	-1.5847820850344831	8.709791884453447	-6.665618018793103
O	-1.189136966034483	8.916481444453447	-2.8492564287931033
O	-0.8517851960344831	5.238949044453447	-2.183504248793103
O	0.699806675965517	2.0156042664534475	-3.3748001187931034
O	-2.836290504034483	0.6042076884534474	-3.911885308793103
O	-6.669038974034483	1.1469880195534474	-3.559544868793103
O	-8.784091724034482	-2.0493198655465528	-3.212269108793103
O	-5.865941094034484	1.2040383269534474	-8.270310888793102
O	-2.082176234034483	1.0299725694534474	-8.052267598793103
O	0.814003885965517	3.5225651244534473	-8.026397698793103
O	5.995857495965517	3.293695264453447	-8.514043998793102
O	5.368752545965517	-0.4764229455465525	-8.553215328793103
O	6.792718525965516	-5.2424662055465525	-5.954476728793103
O	3.941167135965517	-7.615395375546553	-6.725533688793103
O	3.351037855965517	-8.091809125546552	-2.980748988793103
O	1.239842835965517	-4.9219317055465535	-3.2618613587931033
O	-0.9164509140344831	-6.698964115546552	-5.8819271087931035
O	-1.270887881034483	-9.788498985546553	-3.634786988793103
O	-5.063823944034484	-5.638046205546553	-3.094831858793103
O	-6.321862974034484	-8.984268385546553	-4.175750978793103
O	-6.650521074034483	-10.133739685546553	-0.5349100887931031
O	-11.747208954034482	-5.3643679855465525	3.941779831206897
O	-14.244582754034482	-5.405773625546553	1.0939957182068971
O	-9.052464014034483	-0.33618185554655255	10.952808191206898
O	-9.007317524034482	-4.659047025546553	7.540398091206897
O	-5.050319114034483	-8.586259435546554	4.598281381206897
O	-1.289405076034483	-8.400012575546553	5.294968931206897
O	-3.244440574034483	-13.126819285546553	3.457125411206897
O	-0.8191296200344831	-11.109543885546554	1.330306691206897
O	2.1560956359655172	-12.844438385546553	2.9124807312068968
O	7.046226395965516	-10.931128385546552	8.176147911206897
O	10.747384445965517	-7.077891255546554	7.626753901206897
O	7.282687405965517	-5.915171075546553	8.696764251206897
O	-3.2260079840344833	8.953177324453447	12.251310291206897
O	-2.4168318540344833	6.761234444453448	9.241765031206898
O	0.7837989259655169	4.689675524453447	9.534529311206898
O	2.1071800259655173	1.1264814535534473	9.324638681206897
O	0.9858404259655169	0.39320912845344735	12.912068891206898
O	-2.393853724034483	-1.1440202355465527	12.068246191206898
O	-0.8129299550344831	-3.1543859355465522	9.202557651206897
O	2.185444525965517	-4.463255385546553	11.107044091206898
O	11.187246045965518	2.7641081544534476	-5.666766718793103
O	11.401023445965517	0.9736440274534475	-2.351495898793103
O	15.16523494596552	0.6440438634534474	-2.658052418793103
O	13.510887545965518	5.552661304453448	-1.216641088793103
O	3.107786895965517	8.179968874453447	-3.107748468793103
O	2.9738788359655164	9.598901974453447	0.398513364206897
O	4.966218865965517	6.711244564453448	1.796686551206897
O	7.918294835965516	8.052180474453447	-0.189998413793103
O	7.078454165965517	11.753240814453447	-0.513028205793103
O	6.475450365965517	12.688487914453447	3.123035391206897
O	-0.7741207590344831	14.944635714453447	0.164872413206897
O	3.4411959059655164	17.667892714453448	3.688351321206897
