83

O	2.2612586377802817	1.5605020164253522	-0.08052615865774654
O	3.445789317780282	0.9981320814253523	-1.2539668216577464
O	4.853321337780282	1.4880206434253522	-0.28051276465774655
O	4.1911109977802825	1.3685641264253523	0.9228203863422535
O	2.957000327780282	0.6920417444253524	0.7775383363422534
O	1.1147786277802818	0.9783766864253524	-0.8139898566577466
O	1.121231467780282	-0.37930965757464774	-1.7658163036577466
O	2.217424967780282	-0.8822365475746476	-0.39684231465774655
O	1.3704492577802818	-0.6866838775746475	0.5917107363422534
O	0.34023180778028184	0.2899975284253523	0.2519418403422534
O	2.6838638277802818	-2.0951914575746473	-1.1833852556577464
O	4.077713297780282	-1.8683182775746479	-0.6920645486577466
O	7.357974697780282	11.455487392425352	2.5764976763422536
O	4.685161077780283	11.493884592425351	-0.16469094065774653
O	6.776874607780282	13.043626192425352	-2.9308481336577468
O	3.344409077780282	11.339906792425351	-5.269452073657746
O	2.7156218177802818	8.066686742425352	-3.5238219836577467
O	0.13772612578028187	8.541443082425353	-0.7579318966577465
O	-0.6689249232197181	4.979824372425353	0.23976828134225348
O	-0.5384949882197181	3.926671012425352	2.7716895263422536
O	-0.8250621396197181	7.196085752425352	5.081928676342253
O	1.1755542577802816	9.842599202425351	3.2172076063422534
O	-1.6358341812197181	12.050428492425352	1.8448000363422534
O	-7.850557872219718	7.2997202324253525	6.622886736342254
O	-9.403647842219717	4.8631187124253525	4.113665306342254
O	-13.487726792219718	8.256488712425352	4.486075736342254
O	-10.240225862219718	7.267612532425352	-0.09689435965774656
O	-7.542938492219718	9.938995302425353	0.025404830342253493
O	-4.642625222219718	7.515553392425352	-0.43407141685774653
O	-5.851713712219718	7.328542962425352	-4.048164313657747
O	8.689695657780282	2.2425975524253525	-4.916240663657746
O	6.183146297780282	-0.3456462555746477	-6.171283923657747
O	5.297849897780282	-2.5157478875746477	-9.162798693657747
O	2.071492817780282	-0.5716999675746477	-9.501748163657748
O	-0.24896017321971808	1.8750208824253523	-7.714506813657746
O	-3.9628680222197183	1.6422623224253523	-8.527352913657747
O	-4.480929512219718	5.420088702425352	-8.874276723657747
O	-2.430836652219718	3.520489732425352	-12.912084853657747
O	1.2205512377802816	4.076598142425352	-11.957076253657746
O	3.6960516177802814	1.3443287294253523	-12.882661353657747
O	7.419468627780283	0.7139399284253524	-12.410819953657747
O	-3.851170912219718	-2.810766107574648	-11.050915353657746
O	-13.209702592219719	-2.9036356775746475	-8.140986643657747
O	-11.472677592219718	-4.549824677574647	-5.184096893657747
O	-9.719124512219718	-1.6506499875746476	-3.4587672736577466
O	-11.013941492219718	1.4597880644253522	-5.244610953657746
O	-12.177788992219718	-0.2856529025746477	0.27442418134225344
O	-8.619622012219718	0.6468373062253523	8.200079206342252
O	-5.1869748122197175	-0.5756309975746476	7.156786836342253
O	-5.629860582219718	-3.470557317574648	9.596940046342253
O	-5.520966192219718	-4.297377407574648	4.047962276342254
O	-5.867467342219718	-8.008179457574649	3.1434105763422533
O	-7.882024482219718	-4.928463847574648	-0.8502165416577465
O	-6.185974542219718	-10.657019107574648	-1.3197285046577467
O	-9.160416792219717	-10.090017507574649	-3.5741436936577466
O	-7.1922521622197175	-8.129287147574649	-6.149133383657746
O	-3.084480772219718	-7.195222177574648	11.847766946342253
O	-3.0508381622197183	-4.444479567574647	14.486808046342253
O	-1.088623077219718	-1.4156965475746477	13.323734546342253
O	3.234056507780282	0.47318217942535234	13.702265146342253
O	4.324805527780282	2.498763972425352	10.669006546342253
O	2.346208557780282	0.7779186124253523	7.891437556342254
O	5.2926167877802826	0.9804806904253524	5.486999276342253
O	7.2592743377802815	-1.2209152475746476	7.934181826342254
O	4.614203927780283	-3.9483056575746476	8.201011566342252
O	4.196842917780282	-4.115264187574647	4.399811766342253
O	4.927741107780283	-7.594684577574648	2.9004920363422535
O	3.426094827780282	-10.262483807574649	0.6070701763422535
O	1.4538846377802819	-11.706043007574648	3.5496741963422536
O	-1.758392401219718	-9.767153007574649	2.9095123063422537
O	-1.493934630219718	-10.477766107574649	-0.8362108636577466
O	-0.7113627562197181	-14.194843607574649	-0.6027789807577466
O	-2.3038403022197183	-15.302086307574648	2.6560509463422535
O	-5.371527822219718	-13.374955707574648	1.5102736963422534
O	11.248383607780282	-0.8311947575746477	-6.660081863657746
O	11.418022807780282	-1.8292919575746478	-3.0028131036577466
O	10.589558707780283	-5.426041707574647	-3.8450440836577466
O	13.990357907780282	-5.6116507475746475	-5.566929993657746
O	15.57576870778028	-3.8921462275746475	-0.20143503165774657
O	10.268003807780282	5.985972542425353	2.0741469163422535
O	12.677721907780283	3.6712451124253525	0.2949041253422534
O	14.280053307780282	5.191105262425353	5.2153398263422535
O	13.469133607780282	1.4730859594253523	4.884603606342253
