21

O	18.099759674007817	43.93090060423709	66.0806619498693
O	16.710748404743434	43.60156505129567	66.43486886313104
O	16.376436919852253	43.83109160546595	67.7871122923633
O	15.60274251890675	44.621907708252955	68.60400948207395
O	14.216310637072453	44.92534141181032	68.47189798330713
O	13.712231712039038	44.773622357321116	67.34285366934135
O	13.74560612947076	45.89235131095269	69.29264105820094
O	15.867270068561059	44.44301186534723	70.08166301709352
O	18.93530099738706	44.34224571786083	67.17152498195374
O	15.808114775456719	44.05427810476708	65.66784863643943
O	18.40367126711869	42.9553163538539	64.93291261341771
O	17.470822918129997	41.926592071158225	64.58741686717686
O	19.037463349352997	46.87783319529003	69.90884094605055
O	17.1834895442727	41.781066333007786	63.17532352234267
O	19.224924933628692	46.12736183702826	71.02830152021778
O	18.2097343001729	41.82018540706035	62.5729809003521
O	19.136385403329026	44.777923478526944	70.9441483586795
O	16.304873435429347	41.619189199848115	64.87504032382617
O	19.189350054776916	44.26172925388559	69.68284741140015
O	18.71862235838115	44.87892720600647	68.49505803164013
O	18.479177511479765	46.22223578695437	68.84999617372101
