86

O	6.482884120063493	-5.406272822317462	-0.4872111202588574
O	1.2900555000634921	-3.807422842317462	-0.8970239545588574
O	0.4452717100634922	-3.2291614423174613	-0.15955700455885735
O	2.6079381000634925	-3.599110472317461	-0.2589240755588573
O	-0.9071913239365078	-2.8786428123174614	-0.4558315726588574
O	2.9815521000634924	-2.363823112317461	-0.40088506625885734
O	1.896451220063492	-2.5853034323174615	-2.4633752375588576
O	2.845127470063492	-3.2211298123174608	-3.0371615775588574
O	-2.0526087799365076	-2.306931522317461	-0.2800915735588574
O	5.789827800063493	-4.112356902317462	-0.5826766585588574
O	2.407644850063492	-1.5554161323174613	-1.4714089375588575
O	3.9622967900634922	-2.388318112317461	-3.2652224975588573
O	5.601625620063492	-3.5001915123174614	-1.8976575975588574
O	4.759439030063493	-2.3316422623174615	-2.1169997575588573
O	-2.602276209936508	0.13158402868253882	0.4774934424411426
O	-2.692679409936508	-0.5174319023174612	1.7554218524411427
O	-1.7379855399365078	0.3748525136825388	-0.7277168525588573
O	-3.9860533599365082	-0.9917526423174612	2.2378236424411426
O	-2.691332979936508	-1.6475523423174614	-1.3613137425588573
O	-1.6615148499365078	-0.6030260123174611	-1.9308013275588574
O	-4.630017289936507	-0.25526930631746125	3.0443988224411425
O	-4.242301119936508	-2.3438557523174612	2.1944168424411425
O	-3.1865122499365075	-0.5773197923174611	-1.9419774875588574
O	-7.754635029936508	0.8116443796825388	-12.767811467558857
O	-11.892652049936508	2.142232567682539	-9.795384387558858
O	-8.836990799936508	1.2315108656825386	-7.727805557558858
O	-6.049103879936507	3.704144967682539	-8.466864647558857
O	-3.4485564199365077	2.852571927682539	-5.851303577558857
O	-0.6958214179365078	2.569805097682539	-6.510862157558857
O	-0.06769867893650783	3.8911562876825387	-9.965140267558857
O	-3.3218656099365074	3.2207284276825385	-11.828706067558857
O	-4.830021019936508	6.7389221876825385	-11.893134567558857
O	2.8242761900634923	10.257342417682539	-8.039289787558857
O	1.9219196100634923	10.662088887682538	-4.329271607558857
O	4.424627800063492	13.501688247682539	-4.1266046575588575
O	-4.297786949936508	7.617798077682538	-6.094662547558857
O	-9.210351049936508	-6.664906392317461	-4.585070757558857
O	-8.732183389936507	-5.373866802317462	-0.9954581655588575
O	-10.238236019936508	-5.330639462317461	2.4846939724411428
O	-10.570984219936507	-1.557671682317461	2.2531777424411428
O	-9.554509379936508	1.573893333682539	0.3053294124411426
O	-9.262009679936508	4.8403268476825385	2.2295652824411425
O	-14.442595349936507	1.2799917086825388	-0.06443679655885737
O	-14.702218549936507	-2.086809082317461	1.6824727924411427
O	-9.718278249936507	2.9336981576825387	6.982949092441142
O	-7.294511009936508	6.092937157682538	10.640556532441142
O	-2.0210034999365076	8.848644967682539	8.451732952441143
O	-2.083366509936508	8.50837132768254	4.677788312441143
O	1.2373007500634923	11.072631547682539	2.6419536124411427
O	4.166826400063492	8.888988797682538	1.4838345324411426
O	7.070999000063493	7.931530967682539	-3.096124007558857
O	5.892860040063493	4.345029897682539	-2.8922228675588575
O	9.302040710063492	3.3994658476825386	-1.5198181275588574
O	4.716583680063493	3.1288055276825384	1.6676814524411427
O	5.479905170063493	1.926505527682539	5.227187012441142
O	1.1391322900634921	5.233774107682539	5.365516292441143
O	2.6899532600634926	1.2593173406825389	9.570990032441143
O	1.1822925200634922	4.294918197682539	11.294423532441142
O	-2.3753132499365077	3.492681457682539	10.273308632441143
O	-2.093138289936508	-0.04749217231746117	11.667570432441142
O	1.7491299800634923	-12.41905975231746	9.830874732441142
O	5.104595890063492	-10.66667675231746	9.411114902441142
O	13.122486850063492	-4.312413032317461	4.059011982441143
O	10.919748750063492	-1.6492064723174613	5.575511922441143
O	12.328763850063492	-0.4677281223174612	-0.4346609683508574
O	13.534619550063493	0.5678896906825388	-3.9266975475588572
O	10.811271650063492	0.08226207068253877	-6.566600687558857
O	5.598852200063493	-3.056731152317461	-10.510949067558858
O	4.245135620063492	-1.904152362317461	-7.214011967558857
O	1.3732812800634921	-4.400278312317462	-7.228512507558857
O	3.9570934500634927	-7.226298252317461	-7.408457377558857
O	5.9297377400634925	-6.203035652317461	-4.4677626775588575
O	2.7243137700634925	-6.126847362317461	-2.3363326875588575
O	2.6536259700634925	-7.709602302317462	1.0731616124411425
O	2.0954355700634926	-7.307194602317461	4.776942562441143
O	5.704506400063493	-6.299010642317461	5.412934782441143
O	5.116094750063493	-2.5385107523174613	5.262527542441142
O	1.997880210063492	-2.918332462317461	7.448693842441142
O	3.516849440063492	-5.229901682317461	10.068344632441143
O	7.223135690063493	-4.385840132317462	10.068227532441142
O	6.117980420063493	-0.7480564123174611	10.151867532441143
O	3.7446638400634926	-1.412551022317461	13.035996832441143
O	-6.464171889936508	-10.953830352317462	-3.1598364375588575
O	-5.532074519936508	-11.669363552317462	0.4546734564411426
O	-4.852690769936507	-6.652568632317461	-11.437837767558857
O	-1.2751528069365077	-11.584723452317462	-10.288983777558858
