90

O	-5.7213417522031245	-1.9759990527343747	-4.00183024708125
O	-5.1232717722031245	-0.9118683117343748	-3.9546884970812495
O	-5.490115722203124	0.10968046696562526	-3.1516607970812496
O	-3.8299765422031244	-0.8445310387343747	-4.625178307081249
O	-3.633800552203125	0.5665265742656252	-4.950470057081249
O	-2.8872473922031245	-1.3548129727343747	-3.5816015770812495
O	-1.6430337872031247	-0.5624278797343747	-3.991794417081249
O	-0.5978095672031246	-1.4809826927343748	-3.5979828170812493
O	-0.6501897972031246	-2.6519994327343746	-4.106688057081249
O	0.6636643377968754	-1.1586282727343746	-3.0109315570812494
O	1.2489928777968753	-2.1563787127343748	-2.2614018070812496
O	0.7655458477968755	-3.406854652734375	-2.3125803370812497
O	0.4636324977968753	-3.9188124027343747	-1.0521886370812494
O	1.0424369577968753	-3.2898744827343744	-0.009139833081249438
O	2.2503793177968756	-2.806748792734375	-0.43135468108124947
O	2.5054145577968754	-2.303967252734375	-1.6707292270812495
O	-0.26911281220312455	-2.7227100227343746	0.33213142291875053
O	-0.39829169220312455	-1.3312884427343747	0.3244764529187506
O	1.0124443977968756	-1.0300808227343747	0.4008163929187506
O	1.5993733277968756	-0.055298646734374735	-0.22387287308124948
O	1.2963284377968753	-1.5397422927343747	1.7495145429187509
O	0.5552377777968753	-2.5940904727343748	2.1954771729187508
O	0.4877441177968753	-2.9182110827343744	3.584990292918751
O	1.5003120877968754	-2.331749542734375	4.3153100429187505
O	2.5663585177968757	-1.9749059727343747	3.5478134329187503
O	2.5027752377968753	-2.0511898327343747	2.0799019429187506
O	9.618840477796875	-8.157733442734376	-10.25514747708125
O	8.013149247796875	-5.040940932734374	-11.76834947708125
O	4.5532739477968756	-2.8533329027343743	-15.06104417708125
O	3.3473256077968756	-2.8151770327343746	-11.440909477081249
O	5.672953057796875	-0.7518322597343747	-9.28395152708125
O	3.8062134677968755	-0.45344551373437475	-5.9157663570812495
O	5.086476797796876	-0.8129005247343747	-3.4722255770812493
O	8.917929977796875	-0.8314541747343748	-4.14741823708125
O	9.338540577796875	-2.302676042734375	-7.6352811270812495
O	10.171059477796875	0.8485350362656253	-9.634726337081249
O	10.412440277796875	5.841661377265625	-1.9027326970812495
O	7.007026047796876	7.603325367265626	-1.7976530080812494
O	8.648443477796874	10.467439487265624	0.11282216291875058
O	5.513612247796876	3.812186137265625	-7.604352427081249
O	-4.804479432203125	-6.413844832734375	-8.38636308708125
O	-8.350555432203125	-5.165129392734374	-8.91466286708125
O	-6.938763532203124	-1.7851699927343747	-9.871087397081249
O	-3.8025132722031243	0.38608916926562525	-9.87735413708125
O	-4.294263242203125	4.124588057265625	-9.56948322708125
O	-5.144651162203124	-0.16096539173437474	-14.61027187708125
O	-7.949419512203124	-2.6244215627343745	-13.87998857708125
O	-9.253252572203126	4.134142067265626	-8.39821701708125
O	-6.052916382203124	10.503325487265625	-1.7522714310812495
O	-2.8752746622031244	8.633687117265625	-2.7610702270812495
O	-1.6511213902031245	13.465986587265625	-1.0027571150812495
O	0.7968635677968752	10.571407187265624	-0.6116449810812494
O	2.0074620177968754	8.419355097265624	2.2779158729187508
O	5.5859038377968755	9.454090857265625	3.0418622029187508
O	6.668712247796875	5.927969567265626	3.9142719729187503
O	4.940376677796875	2.7017499272656256	3.5018079929187502
O	4.416998107796876	2.4889204672656255	7.2767184129187505
O	1.6152168677968752	5.031575977265626	6.7571060529187505
O	0.019338047796875424	3.2756973072656255	3.825893772918751
O	-3.3121312022031244	3.3616083172656257	5.600105542918751
O	-3.5071097622031244	7.068387727265626	4.69793668291875
O	-3.6334873322031243	6.218142397265625	1.0087594729187503
O	-8.255984382203124	4.275931207265626	4.266480302918751
O	-9.176082082203125	7.6343921572656255	2.7964259129187505
O	-9.628526532203125	6.284341897265626	-0.7131305740812495
O	-11.550590522203125	-6.685791112734375	8.314190282918752
O	0.2118775877968755	-6.832615662734375	10.23106272291875
O	-1.9908311932031246	-2.7421432227343745	13.29956722291875
O	-3.1216236222031246	0.34079750626562527	11.37477572291875
O	0.3638245977968755	1.8507981572656254	11.38707692291875
O	2.9778334277968757	-0.8398569387343747	10.781600222918751
O	6.789490447796875	-1.1459898427343747	10.84392702291875
O	7.968348517796875	-2.654631252734375	7.53068638291875
O	9.339771777796875	-6.828770542734374	5.785985842918751
O	8.658440577796874	-7.194083642734374	2.0636425329187507
O	5.671247427796875	-4.873921782734374	1.5446234629187505
O	3.9781596377968755	-7.302995522734374	-0.8342597598812495
O	3.911620487796876	-9.818377742734375	2.0486960729187507
O	2.2952172977968752	-7.484720802734374	4.540893162918751
O	-0.3828292322031246	-6.400885272734374	1.9753255729187504
O	-3.9070542922031244	-7.060273132734374	3.110052922918751
O	-7.249972732203124	-5.431242962734374	3.6474476929187505
O	-6.206448512203124	-4.1518131027343745	7.0910821829187505
O	-5.032982562203125	-0.7256911117343747	5.949475192918751
O	-8.093719142203124	-0.3959036907343747	3.6511211329187505
O	-10.729983182203124	-1.4765323227343747	6.196965042918751
O	-9.231001382203125	-0.5705164937343747	9.557528222918751
O	-8.380307822203125	2.7874007372656253	7.992635732918751
O	-7.298735082203124	-11.425457512734376	-3.9780908170812492
O	3.4826233177968753	-15.302294712734376	-2.9162566370812493
