88

O	-0.7013650311641793	-3.6589611361343284	-1.4397268442820894
O	-0.3201451831641793	-2.655510756134328	-0.5577249012820894
O	-0.2817748531641793	-1.3593686861343282	-0.9761539652820894
O	-0.5512587571641793	-1.1164888161343283	-2.2936907572820893
O	-0.7900540831641792	-2.1825924461343282	-3.1079162572820893
O	-1.5592239601641793	-3.2122452461343283	-2.4452940572820894
O	-1.6507204131641793	-2.0868802661343286	-4.36248053728209
O	-2.565708283164179	-3.2021447361343283	-4.116949977282089
O	-1.6836564481641791	-4.067468766134328	-3.63087242728209
O	-0.7650155331641793	-0.5503419161343284	0.002589852717910679
O	-2.1206131221641793	-0.28274108613432825	0.04688257271791074
O	-2.241881896164179	1.1916826358656718	0.09525798271791053
O	-1.2813651022641792	1.7555654338656717	-0.6450766502820894
O	0.07351891683582079	1.4566505368656717	-0.6005098412820893
O	0.6286239268358207	2.8310612738656715	-0.3520489052820893
O	-0.2572031731641793	3.887904483865672	-0.9522673952820894
O	-0.7740415931641792	3.1915944538656715	-2.2230833072820895
O	-1.7079123021641793	2.0480294738656717	-1.9588340142820893
O	-1.5903464731641792	3.9954158038656713	-0.25818690028208935
O	-1.5483922371641792	4.188984463865672	0.9558234127179108
O	-2.4962135531641794	4.812079003865672	-0.9504031852820893
O	1.877452556835821	-10.854304886134328	-10.38301408728209
O	4.62499962683582	-8.304105376134327	-9.66429226728209
O	7.369730406835821	-4.039470026134328	-11.02300815728209
O	4.80144524683582	-3.312437696134329	-8.327568127282088
O	5.67520727683582	-5.330504156134328	-5.2356672172820895
O	3.3807966468358206	-3.8842097761343286	-2.6439004172820892
O	1.9093767168358209	-5.551754316134328	-0.8950382992820893
O	3.1105434468358206	-9.056779986134327	-1.1094342537820894
O	4.407597596835821	-9.425859686134327	-4.665318257282089
O	8.190190616835821	-9.191264986134328	-4.08782435728209
O	6.859012006835821	-9.006968186134328	5.05476967271791
O	7.141828396835821	-5.304014896134328	6.019417062717911
O	11.816293656835821	-6.939552636134328	7.9242595827179105
O	10.94406375683582	-3.340599986134328	3.5884845827179106
O	11.04817005683582	-5.512846396134329	0.47241068271791065
O	7.816961146835821	-4.168067536134329	-0.9865750022820894
O	9.865556056835821	-1.0455475161343284	-1.7409376312820894
O	-2.1928150641641793	0.3498717658656717	-11.47767026728209
O	-1.8809317821641791	3.229760743865672	-8.97591403728209
O	-1.6068625251641793	7.019557193865672	-8.865333947282089
O	1.840592706835821	6.653077133865671	-7.310846177282089
O	4.171825736835821	4.1716788538656715	-5.581503297282089
O	6.669141206835821	5.5840529638656715	-3.0567308372820894
O	6.494964606835821	5.859267613865671	-9.69260262728209
O	3.5161501068358207	7.851991743865671	-10.96879762728209
O	0.6189207468358209	7.256048923865672	-13.37788226728209
O	4.551532076835821	10.225726463865673	-2.5452617372820896
O	7.13280326683582	12.658096213865672	-1.1786060018820894
O	5.607757506835821	12.322306113865672	2.3036393427179105
O	9.072801156835821	9.571699843865673	6.13298013271791
O	5.6970281268358205	7.982406333865671	6.89406431271791
O	5.897328516835821	4.581452343865672	5.21277686271791
O	9.51031265683582	4.299451893865672	4.0464337627179106
O	6.857879886835821	1.2734935868656718	8.36458441271791
O	3.756058176835821	-0.7801559161343283	9.176013632717911
O	2.158173896835821	-6.0530930961343286	9.182519632717911
O	-0.3692732971641792	-5.093871736134329	6.57293139271791
O	-3.073717253164179	-5.133471976134328	9.19675323271791
O	-1.4767997551641792	-0.34434922613432817	6.825054352717911
O	-3.4359855831641792	2.686754233865672	8.11999119271791
O	1.5173754968358208	4.226556123865672	6.492724382717911
O	-3.241142583164179	7.809133893865671	7.224638012717911
O	-0.12926319316417922	9.724491633865673	8.22235855271791
O	1.0333381568358209	10.227168243865673	4.65352594271791
O	-8.07317641316418	-5.0351882761343285	9.79025003271791
O	-7.28245545316418	-8.762321506134327	9.935753732717911
O	-5.942890243164179	-10.011502986134328	6.611224392717911
O	-5.53272407316418	-11.233537786134328	-0.44763083628208933
O	-4.3542688631641795	-7.729893786134329	0.42135770271791073
O	-5.097367723164179	-6.458573256134328	-3.0622710072820896
O	-8.74345364316418	-7.324154066134329	-2.521533477282089
O	-9.06709151316418	-5.435474026134329	0.7623799627179106
O	-7.47541827316418	-2.330952356134328	-0.7075413502820893
O	-9.58443732316418	0.8499580668656718	-0.5947602852820894
O	-9.640681863164179	4.462921773865672	0.5881238227179106
O	-10.60696232316418	3.3950803038656714	4.12018580271791
O	-7.1023624331641795	3.245501943865672	5.58791835271791
O	-6.19448994316418	6.531281073865672	3.7931303927179103
O	-9.306666133164178	8.486258813865671	4.809955152717911
O	-10.388777873164178	6.910919663865672	8.08345476271791
O	-6.728640063164179	7.145639233865672	9.10271083271791
O	-6.526989993164179	10.787838953865672	8.049749212717911
O	-7.41552049316418	0.8523129968656717	-10.83096439728209
O	-8.999791783164179	3.8086358338656714	-9.095590947282089
O	-12.49040344316418	-0.7650540861343282	-11.77764466728209
O	-3.4161249131641793	-7.653804946134328	-10.63991573728209
O	-9.565723433164179	-7.626705446134328	-9.86494528728209
