73

O	2.656886259951786	3.463815987392857	0.07254582925000108
O	3.9519424699517853	3.105793497392857	0.4171525492500011
O	4.274029729951787	3.3169865373928573	1.757816811250001
O	3.413807969951786	4.028667637392857	2.5852844712500014
O	2.0647964799517857	3.8152033073928573	2.316958861250001
O	1.650664089951786	3.491780057392857	1.050460751250001
O	0.4035108009517857	4.210445977392857	0.5799326082500011
O	0.08559874095178577	3.5578114673928574	-0.7691074297499989
O	-0.41998954394821425	2.2089069033928572	-0.3281107508499989
O	-1.5517998100482142	2.283042997392857	0.48390002225000106
O	-1.8454468600482143	1.1256581163928572	1.207563731250001
O	-0.7914292630482143	0.3898801643928571	1.6117344312500013
O	0.5140368559517857	0.6680320983928572	1.3163734712500013
O	0.6476908899517857	1.5440839183928572	0.2811750662500011
O	-0.9779316870482142	-0.818964902607143	2.185344531250001
O	4.950807769951785	3.298895147392857	-0.5502144757499989
O	3.8490625799517857	5.154106937392857	3.3312271912500013
O	-10.707108270048215	1.078227300392857	-6.524577458749999
O	-10.015034940048215	4.292769717392857	-2.217963188749999
O	3.898119159951786	13.737923717392857	-1.200893747749999
O	0.9339961799517857	12.323808817392857	-3.115721838749999
O	1.1508708499517857	8.650099987392856	-2.428577498749999
O	-1.1631931170482144	7.205521267392857	-1.685512228749999
O	-4.258138960048214	9.156842887392857	-2.339807498749999
O	-3.1775854400482144	12.780484117392856	-1.8357153187499988
O	-6.789653600048215	9.564943277392857	-7.910775088749999
O	-6.208480400048215	5.851567787392858	-8.478261428749999
O	-3.103728300048214	3.846671157392857	-9.514042988749999
O	-5.262423040048214	2.0104584113928574	-12.060535258749999
O	9.669957929951785	8.799307947392856	4.359379031250001
O	13.060659229951785	7.312020557392858	3.6366834012500013
O	12.397282429951785	7.785842037392857	-0.041368942749998916
O	9.717402029951785	8.447101217392857	-2.640713728749999
O	8.722706629951785	-2.460322402607143	-9.98563653875
O	6.242277499951786	0.2579955873928572	-9.071214648749999
O	2.0898638299517858	-0.6276385826071429	-10.99802305875
O	-0.35201872334821427	-1.889302042607143	-8.370279318749999
O	-3.8576627300482143	-1.4569277526071427	-9.82782325875
O	-5.403665940048214	-0.7148149326071429	-6.449066038749999
O	-3.8095646400482144	-0.10192249260714292	-3.232283428749999
O	-5.034716870048214	-3.473463012607143	-1.944869468749999
O	-2.1629274500482145	-4.899447492607143	-3.983809898749999
O	0.48567488595178576	-2.6449157826071428	-2.919763308749999
O	2.6554856099517856	-5.503340622607142	-1.8280996087499988
O	3.416365759951786	-5.936475662607142	-5.568816258749999
O	5.129261909951786	-2.5856049226071427	-5.670554628749999
O	7.707882399951785	-6.690945152607142	-2.1681090987499987
O	5.187534429951786	-5.560346322607144	12.72367784125
O	-3.169442270048214	-5.194057602607144	8.408690001250001
O	-0.7603870470482142	-8.159827572607144	8.58895996125
O	-2.277914610048214	-9.874780782607143	5.557810261250001
O	-0.23428381604821424	-9.547109982607143	2.372690271250001
O	-3.279873870048214	-8.558299152607143	0.3187858102500011
O	-5.5341124200482135	-6.223797202607143	2.276687351250001
O	-8.971401620048214	-4.611288872607142	1.8948979512500013
O	-8.787894460048214	-0.842480812607143	2.331186541250001
O	-12.502427470048215	-0.24483727260714283	2.0747583312500013
O	-9.438111060048215	2.464689727392857	5.673230271250001
O	-7.191285190048214	5.515960457392858	5.258651261250002
O	-4.211124000048214	4.109056647392857	3.523039671250001
O	-1.7199690400482142	6.100632457392857	5.511882681250001
O	-3.085839560048214	4.381083117392857	8.64583366125
O	-2.6588300100482143	0.8428280043928571	7.475067291250001
O	0.9480325399517857	1.603059909392857	6.478453701250001
O	3.734109869951786	-0.6206972326071429	7.737033911250001
O	6.601635719951785	-2.9047207626071425	6.800919331250001
O	4.255136079951786	-5.863697042607143	6.238023101250001
O	3.849623569951786	-5.361056962607142	2.4654736612500012
O	7.601252499951785	-4.750020252607143	2.124442951250001
O	5.963611419951786	-10.259724082607143	3.889548531250001
O	6.096544149951786	-9.527548082607144	0.16082638525000115
O	3.9370747199517857	-16.46010618260714	6.813624371250001
O	9.676437529951786	5.430620917392858	10.67255724125
