22

O	14.797091648373378	42.53936827895688	64.53707174796843
O	18.31166233613604	43.22602817455914	66.12139707961676
O	19.74451924514867	45.34876151163252	67.50794747495672
O	16.26539087811532	42.830246973708356	64.5689340219071
O	14.135526533692904	42.054010336702966	63.4504147938807
O	16.776131602203456	42.086302118321456	63.53919683800934
O	17.114347546039756	42.5056977888605	65.72926384501183
O	17.242250721411303	41.29427780038535	65.92232344792109
O	19.043698304945472	43.14825232204642	67.3183229116148
O	19.491375377745577	44.28427960094328	69.37787873256279
O	19.066721015180864	44.46391704138483	68.05446083189631
O	14.317704169879008	42.95667549767775	65.84518654397333
O	14.419889682833213	41.6246608686379	66.6339001757824
O	14.755721189729263	41.4773338185369	67.93471494491185
O	14.293441067125073	40.41450738193964	68.63091907252957
O	13.05202276557935	39.94887470980833	68.40398501501821
O	12.390763296675583	40.35875817340072	67.31408053545273
O	13.201691485679337	40.9522549122398	66.34837831553243
O	20.52013170147314	42.861559161192396	67.143048368855
O	20.704622268366105	41.46323071857299	67.6230873008086
O	20.299467492451704	40.520450710101024	66.53723237895119
O	22.230366892003982	41.360241159247295	67.6354685237559
