15

O	7.7096639247125625	41.474933972354805	68.9591479864456
O	8.687430799856445	40.873220416137734	68.15666585246093
O	9.30755285973024	41.77878046397067	67.42191588085157
O	10.10632949702834	41.36838181701665	66.4786955389984
O	9.934647721145799	40.08781593803493	66.02703256988978
O	9.616965713528014	39.17313760759511	67.05839549021196
O	8.496627322578924	39.5825467309809	67.78984480122789
O	7.840367364870867	38.82855497487871	68.80542655708443
O	6.579937338012077	39.50489240211975	69.04079833071498
O	5.952581855860835	39.454815497134604	67.74314680884014
O	6.628256750366319	39.80422124561535	66.61026316173329
O	6.8414489512542485	38.94704441535019	65.51705808699943
O	6.334023552750429	37.74043613717553	65.85045959668955
O	5.068438736322815	37.75830488754481	66.46204140008386
O	4.97793092850203	38.50834116612905	67.58356490668699
