88

O	5.0523921452703116	1.0590151804012498	0.09786116031874958
O	5.868120535270312	1.4557496693312497	1.2591569103187497
O	5.219323715270312	2.68167905633125	1.7455083803187494
O	3.478276065270312	2.5001664163312496	-0.7652766846812505
O	2.5009723952703116	1.6083078573312497	-1.5223934476812504
O	1.0873142752703118	1.9826486293312497	-1.5354296476812506
O	-0.24832541472968828	0.7634257423312497	-2.7568636796812505
O	-0.21440085472968828	-0.5296104236687502	-2.3591239196812506
O	-1.5205734347296882	-1.0292888136687501	-2.3273721396812506
O	-2.435845834729688	-0.11706994366875034	-2.0712612496812506
O	-2.3972458447296883	0.28720740633124975	-0.5543975306812505
O	-3.7219788947296886	0.7926594003312497	-0.7986371216812505
O	-3.7148312247296884	2.0662444263312496	-1.2926782506812504
O	-4.854210064729688	2.6825541963312496	-0.7466518696812505
O	-5.985293284729688	1.9299964093312498	-0.4314671676812505
O	-6.016318424729689	0.7505269433312497	-1.0833625806812506
O	-4.821783764729688	0.12669210033124967	-1.3022159246812506
O	-2.481778314729688	0.8926926993312497	-3.0017125396812503
O	-1.2262539323296882	1.3623536893312498	-3.4230364096812504
O	5.820713585270312	3.16717628633125	-0.4292518626812505
O	5.719904875270312	3.7330801163312497	2.1477576503187494
O	3.896232105270312	2.5218918963312498	1.9562398603187496
O	-0.09238451472968823	1.4209857473312497	-1.5196449436812505
O	4.865996135270311	2.18587814633125	-0.7427573436812505
O	3.1731455352703115	-2.97756605366875	-15.07555386968125
O	5.728800425270312	-4.33859973366875	-12.60177206968125
O	10.537055205270313	-4.1922534736687505	-10.46372089968125
O	7.888037345270312	-2.6309927536687505	-8.22378249968125
O	5.313125035270311	-5.20817612366875	-7.21471925968125
O	3.2451041752703116	-3.4113024636687497	-4.532062949681251
O	0.3855965352703119	-3.49581237366875	-4.51387182968125
O	-0.7268941857296882	-6.12868419366875	-6.964777209681251
O	1.931456405270312	-6.29366474366875	-9.735214079681251
O	3.8599176152703114	-9.46726808366875	-8.86449873968125
O	-2.287993264729688	-11.39123448366875	-2.2684376996812503
O	-0.5418771107296881	-10.372838983668752	0.9950644203187495
O	-2.490134864729688	-13.077740483668752	2.8517952603187493
O	4.637459555270311	-7.97742848366875	-3.2658855696812505
O	8.159223675270313	6.11989273633125	-4.7660032196812505
O	10.376215305270312	7.59156189633125	-2.0111987996812504
O	11.225851205270313	4.06721538633125	-0.8841617420812505
O	10.205007905270312	0.3855033283312497	-1.1747440626812504
O	10.738446505270312	-1.8140546136687503	1.8655150003187493
O	14.865830205270314	0.7018136843312497	-2.7603555396812505
O	15.00866270527031	4.50295347633125	-2.5654836296812507
O	11.863146905270312	1.8478722303312498	5.26028195031875
O	5.579331125270311	-3.33736175366875	10.60428903031875
O	4.8020244652703115	-4.42527143366875	7.0202720403187495
O	3.505081715270312	-8.26614725366875	10.436048730318749
O	1.6120138052703117	-7.87637168366875	7.16501657031875
O	-1.8061955977296882	-6.58539920366875	6.11860752031875
O	-3.893425364729688	-9.62492338366875	5.12617377031875
O	-5.670308624729689	-7.67414501366875	2.3578520203187496
O	-4.995065334729688	-4.33237504366875	0.9316397703187496
O	-8.165866854729687	-3.07276871366875	2.5875393103187494
O	-6.167706994729689	-3.06460749366875	5.88300611031875
O	-3.1793987547296885	-1.2501456436687504	4.20713367031875
O	-3.301414564729688	1.2626776243312496	7.11359009031875
O	-1.7853386827296882	-1.3639341836687502	9.39563113031875
O	1.3879617552703116	-1.4400289536687503	7.299872250318749
O	0.19008364527031185	3.7782033163312496	9.987934130318749
O	2.398619475270312	1.7588571553312498	12.32889883031875
O	5.498944265270311	2.25350848633125	10.24272573031875
O	-11.645201194729687	6.17673763633125	5.082472780318749
O	-8.986585414729689	4.44855078633125	7.19203558031875
O	-10.197544764729688	1.0034059281312497	6.149570990318749
O	-11.163996364729687	0.9387095183312497	2.4820824203187497
O	-12.992362694729687	-1.5099206136687504	0.18433930031874945
O	-10.860404734729688	-2.0165727936687503	-2.9382642896812503
O	-10.670251554729688	-0.4122412936687503	-7.359221199681251
O	-7.176249434729688	-0.4641553536687504	-8.84175532968125
O	-5.136580514729689	-0.12374912366875024	-5.748251649681251
O	-2.6989358447296885	2.27449313633125	-7.409522669681251
O	-5.634297804729688	4.68369448633125	-7.936458259681251
O	-6.733247404729688	4.688878136331249	-4.3039791496812505
O	-3.1487388447296882	5.22014157633125	-3.1040390596812504
O	-2.569613444729688	8.16966500633125	-1.0069116646812506
O	-1.2646512150296882	9.563483596331249	2.2540283003187493
O	-4.552052814729688	8.75006185633125	3.9992094703187497
O	-3.5138787647296885	5.32437558633125	5.251711790318749
O	-0.10652418472968828	6.75238263633125	6.347934250318749
O	-1.394125407729688	9.867187556331249	8.12908866031875
O	-4.872747364729689	8.93410110633125	9.32146733031875
O	-3.2950177347296883	5.70124431633125	10.56188243031875
O	4.704116415270311	10.08856951633125	-8.145070819681251
O	4.451452115270311	12.14987781633125	-4.996773439681251
O	2.138053205270312	2.9028291863312496	-13.52685366968125
O	-1.7851365307296883	7.70928727633125	-13.531365769681251
