27

O	7.506052572535058	37.285530721069485	70.33913064494062
O	6.727424595256821	37.69140586812144	71.29504256556513
O	7.047995765443585	38.96519972017515	71.58746177748975
O	7.422081320511813	39.77273051119013	70.5782358335858
O	6.970780999632731	39.20271305174405	69.35794433440944
O	7.77168073983085	38.070867606451294	69.2749753999179
O	8.310504721418498	40.49000336842504	68.25403909381708
O	8.871584201334064	41.044176098231816	69.42247612673677
O	10.214835498030014	41.00045380694039	69.3645443609262
O	10.752132182352298	40.74157533279714	68.0922915734665
O	10.352609366923252	39.362976392587	68.1723215250929
O	9.024412329394286	39.319993803439	67.93406718682317
O	12.19732019591067	42.48371159871798	67.47178276961091
O	13.254501956851865	42.70685624158997	66.53670212865657
O	14.715341901065301	42.73013469903372	66.84062553084483
O	15.248697981903172	43.49120059462614	65.6202505278963
O	14.295824290995967	43.159133901693956	64.58652001770876
O	13.254837077176603	41.11386202425271	64.87746922375214
O	14.4927499090348	40.915788304996525	64.05877831208241
O	15.79912314328287	41.40218449264886	64.17307158696987
O	16.5576086475982	40.61363754192118	65.1532651253366
O	13.261873120035695	42.455043533280055	65.19496438868626
O	7.080280865592059	40.15635782999771	68.46769690689828
O	12.024014262897385	41.10447965746232	67.6333154991834
O	17.51656781841172	41.2531686148791	65.68633723172124
O	15.846650880264932	39.88426657859842	66.06710987181016
O	5.688940825763959	36.92302696618441	72.28848489293111
