19

O	11.746795134815265	40.957335722848335	66.65700558691658
O	11.924805857984625	39.881097789939	67.47730780654295
O	10.634309694873089	41.00653025522391	65.8258981116861
O	10.924959324799689	38.9235623083158	67.6263077868656
O	9.613112470640685	40.14598983131914	66.20999225860564
O	7.256445140933125	37.84442628853648	68.33362718936137
O	8.884699686201936	39.37464130075002	68.71547002341345
O	7.312993327195997	37.355676951753054	69.60013591960616
O	8.979009310449984	38.96079718077935	70.05734875239759
O	8.00964031727908	36.12273935688392	72.08977812313265
O	9.004944079519607	37.86090856651901	66.61461587023513
O	10.081944001187418	38.85806137502134	66.50565561728524
O	8.28043883375624	38.510798791618555	67.78744655814255
O	8.377725301455055	37.77760181686932	70.3470067555241
O	10.507388469414593	35.70128161016423	72.37293139615643
O	8.867352544319074	36.80094465271278	71.29955478958665
O	11.479256469501756	35.910222818969466	73.37441181470459
O	10.130691519916494	36.764300697776534	71.6042643851242
O	9.151943802156232	35.64281177299778	73.3509780893539
