72

O	0.41185181972413754	1.6329485693396548	5.879035786637932
O	0.1500951497241375	0.4995989436396548	5.171014426637932
O	-0.19565350227586242	0.5045268237396547	3.820166816637931
O	0.19853112972413756	1.7056062093396547	3.238736206637931
O	1.1427476097241374	2.532889199339655	3.844800466637931
O	0.9706904297241375	2.678008059339655	5.218406966637931
O	-1.5495243502758624	0.0638766283396548	3.354692536637931
O	-1.6517788532758626	-0.4736028206603453	2.0503752166379314
O	-0.5146747942758625	-1.2349243006603452	1.6173728366379314
O	0.6835455697241376	-0.6329542006603452	1.8786106666379312
O	1.8558899797241373	-1.2557090106603452	2.161260296637931
O	1.6818434897241374	-2.641392020660345	2.256301296637931
O	0.4650242797241376	-3.256209240660345	2.282062406637931
O	-0.5989396812758625	-2.585825480660345	1.7553706366379314
O	2.4940053297241374	-11.111361070660346	-4.291037423362068
O	0.05837055572413752	-10.603181370660344	0.5119220176379312
O	5.251522769724137	-4.529626180660345	14.162409196637931
O	6.562427689724138	-0.062412530660345245	11.921824496637932
O	6.909730719724138	-2.7819720906603456	9.286786006637932
O	5.013888669724137	-1.3717382006603451	6.335746796637932
O	3.1438436397241376	-3.0046957406603454	5.1338840966379315
O	3.6080154997241376	-6.649352860660345	5.865122336637931
O	4.767188449724137	-6.548414470660345	9.474485036637931
O	8.498924209724137	-7.243626470660345	8.992069546637932
O	7.947968399724138	-10.124259770660345	3.353292646637931
O	7.264349329724137	-8.627487340660345	-0.07155889136206878
O	8.329741519724138	-5.324686150660345	-1.711157353362069
O	9.279635909724137	-7.276606550660345	-4.810168133362068
O	1.4095375697241375	7.751398839339655	10.942470496637931
O	2.4851222597241374	11.269484829339655	10.034741136637932
O	5.739267729724137	9.861459409339655	8.758291866637931
O	7.530543879724137	6.681287199339655	7.719943086637931
O	9.777181409724138	7.522392939339655	-5.179853503362068
O	9.234370809724137	4.567576269339655	-2.859484883362069
O	9.461754009724137	0.5844193164396547	-5.314164063362068
O	5.980561439724138	-0.8850336706603452	-5.803601303362068
O	6.438108139724138	-4.569936560660345	-6.693499443362068
O	3.2811074197241377	-5.603543730660345	-4.853813413362069
O	1.0093078997241376	-3.669845750660345	-2.746519253362069
O	-1.6483710192758625	-3.600643910660345	-5.281824443362068
O	0.47545224972413747	-0.9001962106603452	-6.912834733362068
O	0.9934468997241376	1.1232494693396546	-3.7965412233620692
O	-0.26665194127586245	4.182817039339655	-5.651470943362068
O	3.1159607997241374	4.328753229339655	-7.435527633362068
O	4.874502689724137	4.950334069339655	-4.135445413362069
O	1.0366163797241374	9.213939039339655	-5.902774403362068
O	-12.472822690275862	9.242296969339655	0.9649231286379312
O	-10.848925090275863	0.5014644165396548	-2.102915133362069
O	-11.451184990275863	3.6390035293396545	-4.214827473362068
O	-9.835130510275862	2.164099629339655	-7.328675933362068
O	-6.300861450275862	3.407372019339655	-8.012269903362068
O	-4.980661640275863	-0.12312246666034521	-8.569904633362068
O	-6.499645790275863	-2.5354355406603455	-6.053730673362068
O	-6.5490043702758625	-6.295484750660345	-5.4215313333620685
O	-5.496445700275863	-7.116160380660345	-1.872789783362069
O	-6.105226050275863	-10.837204170660344	-2.137997433362069
O	-7.441728230275863	-8.057532670660345	2.333987896637931
O	-5.321834700275863	-6.938182610660345	5.2921613966379315
O	-3.491986860275863	-4.012888740660345	3.844683486637931
O	-3.8560938602758625	-1.986185240660345	7.003682456637931
O	-7.6311422902758625	-2.1131798506603454	6.444950706637932
O	-7.527445870275862	-0.8893032606603453	2.844106536637931
O	-5.3204696702758625	2.046032859339655	3.740652306637931
O	-6.622531800275863	5.506459149339655	2.922733676637931
O	-5.8623068402758625	8.725825839339654	1.0643274166379313
O	-7.067050180275863	7.195896179339655	-2.2137268033620687
O	-3.6699350302758624	6.008691969339655	-3.437701573362069
O	-2.1188501902758623	9.363076529339654	-2.401208203362069
O	-6.141607850275863	9.699381489339656	-6.794551333362069
O	-2.5288559102758623	8.930669729339655	-7.713240183362068
O	10.465873009724138	-2.9506770106603453	-7.903507913362068
O	-5.3815567602758625	9.876595369339656	10.680656996637932
