88

O	2.683425922379999	-2.4943679185999996	4.1731204993999995
O	-0.5473866687200006	1.5128353274000004	-5.2044004406
O	-0.9571399196200007	4.9238409014	-2.4633844006000003
O	2.482585962379999	-1.5429686685999995	3.1625812593999996
O	0.5703684023799994	0.9196848575100003	-1.8149054206000006
O	1.2082538823799993	4.6945629314	-2.7774624106000005
O	1.7862421123799992	-3.5201420986	4.1132933694
O	1.5144911323799994	1.3316252624000002	-3.7163090006000004
O	1.9598079723799993	-1.9517255685999997	1.9384060393999993
O	1.9963148623799993	-3.7792012086	-0.1782831676000004
O	1.858616262379999	-4.1343572985999995	2.8597005893999996
O	2.2660415023799994	-0.5563223785999997	-1.4337077306000006
O	-0.0037433296200006794	-1.2757599285999994	-1.3798373806000006
O	2.7937782423799993	-1.7958813985999997	-1.1918751586000003
O	0.5852156423799993	-2.5419019385999997	-1.3514516106000003
O	1.0132885423799993	-3.8983672585999996	0.8138115693999995
O	-0.38521580262000066	3.0364927414000005	-3.8730172006000005
O	1.859386812379999	-3.2777484785999995	1.8242901493999994
O	0.9769555523799994	-0.31346731859999977	-1.0866858776000003
O	1.7902880423799994	-2.5371041685999995	-0.6633897306000004
O	-0.6195978337200007	1.6800795494000003	-3.7793264406000007
O	-0.08246491362000063	4.2278844814	-3.0810600506000005
O	0.4614047423799993	0.7090090514000003	-3.2600038806000007
O	2.175878322379999	-7.2113492586	-13.6615397006
O	-0.5217327273200006	-4.5230859485999995	-13.748432800600002
O	-2.1923732376200005	0.2507914154000003	-15.2845288006
O	-1.2090149526200007	0.11428662940000023	-11.668237900600001
O	-3.449589987620001	-2.3177724485999995	-9.740474440600002
O	-2.584530537620001	-1.8005204585999994	-6.0744385306
O	-1.9339309076200006	-3.6989790686	-4.1177364806000005
O	-3.2238515576200006	-7.004835648599999	-5.7742476906
O	-2.716365777620001	-6.554422648599999	-9.5621370306
O	-6.29658298762	-5.927243778599999	-10.7390840006
O	-9.51082802762	-7.6502629886	-2.2743966006000003
O	-10.12725281762	-4.1835842886	-0.7534609216000003
O	-12.905770187620002	-5.701843418599999	1.3662109293999998
O	-7.29665394762	-1.6752821585999995	-6.7873612806
O	6.635664342379999	3.3324666814000006	-10.195211530600002
O	5.29819484238	5.7668331614	-7.5315847006
O	5.054905242379999	9.4280852014	-6.5741246206
O	1.2948116123799993	9.2710877214	-6.9480181306
O	-1.7691474676200007	7.0161523614000005	-7.3302208806
O	-5.05069741762	8.0769496814	-5.7728840606
O	-1.6708383176200008	9.646131521400001	-11.3998597006
O	1.6408828823799992	11.3458760214	-10.5815528006
O	-3.241818157620001	12.1493293214	-3.2326131306000003
O	-8.87853432762	8.3591989914	3.8127755193999993
O	-8.294654257620001	5.4023426914	1.4309232893999995
O	-12.81457168762	4.7446784714	4.0596161994
O	-10.801381387620001	1.7290355504000003	2.9334881993999997
O	-8.55229383762	-0.8570807385999998	4.5959653994
O	-7.2578461376200005	-6.202543308599999	4.0709074394
O	-3.7474657576200006	-5.1118991686	3.1925731893999996
O	-2.7260194376200007	-6.0650546385999995	6.7358227294
O	-4.36203429762	-2.7856512185999995	7.7687017394
O	-2.731168287620001	-0.7312039685999997	4.9818401394
O	-1.5889008276200007	1.7135529504000002	7.6980419594
O	-5.16938567762	3.0221369814000005	8.002311339399999
O	-5.055830647620001	4.2309485414	4.4042049594
O	-1.1785826876200005	6.8749720214000005	8.1345224594
O	-4.343802427620001	8.9738874814	8.0650875294
O	-3.630839317620001	10.3102904314	4.5847288594
O	10.847539112379998	5.9478431014	9.637938449399998
O	7.7291057823800005	-5.4416827386	8.1549921194
O	5.169690012379999	-3.5292911385999997	12.6861671994
O	2.2846856723799993	-1.1358549785999998	12.071729199399998
O	1.4025377623799993	-6.758246648599999	9.518238199399999
O	0.5043547823799993	-10.314720078599999	8.456734829399998
O	0.9115540223799993	-10.7003059786	4.7043247094
O	4.05601406238	-12.2503551786	1.5339948993999997
O	3.9322210923799994	-10.5038374786	-1.8485099606000004
O	2.5967625123799993	-7.2098071786	-0.8552682526000004
O	4.875155502379999	-5.2313488885999995	-3.1655356206000005
O	7.79757563238	-6.713999738599999	-1.1756329486000003
O	6.60037883238	-5.6179216986	2.2056285693999995
O	5.92301046238	-2.1125823585999997	0.8911696793999996
O	7.682912942379999	0.5950537004000003	2.6426545593999995
O	7.436538402379999	3.9248861014000003	4.4811522794
O	6.6008500223799995	2.1354394814	7.7256158294
O	2.822618672379999	2.2243258714	7.3098567194
O	3.0075716723799992	5.872076181400001	6.1846088494
O	5.33091737238	7.1290458214	8.936293149399999
O	4.681776752379999	4.8212206614	11.871463199399999
O	0.9851305023799993	5.3673279214	11.163015099399999
O	10.930377112379999	2.9773254514000005	-7.1071379306
O	11.559254912379998	5.2748008214	-4.1629151606
O	7.0134354523799995	-4.7531411886	-10.7053220006
O	12.051983712379998	-5.752668518599999	-7.2408318106000005
