84

O	4.551236738024194	2.7531119512903226	-1.77087925516129
O	5.315606048024194	1.7702118752903226	-1.7622861581612899
O	4.285464418024194	3.4091597812903225	-0.58089715616129
O	5.0417825480241945	3.1753324912903227	0.47008999183871003
O	3.5907939880241933	2.9256246012903224	-2.85007766816129
O	2.2546778480241936	3.5334609312903225	-2.33978213816129
O	1.2660373880241935	2.7066973412903224	-3.15421050816129
O	-0.16232161897580633	2.7688989612903225	-2.6051600581612897
O	-0.05005634897580624	4.105893801290323	-1.84704491916129
O	0.8100763380241937	3.6909084012903226	-0.63750252716129
O	-0.04953317097580634	2.6063435712903225	-0.17058208216129
O	0.2145109980241936	1.4308331642903225	-0.8049054061612899
O	-0.8040271926758062	0.4708115412903226	-0.99726268266129
O	-0.5870247069758063	-0.45612191870967744	-1.9222456441612898
O	-1.6797641209758063	-1.2322982487096774	-2.11405179816129
O	-2.548762661975806	-1.7039577787096776	-1.17328784916129
O	-2.778985971975806	-0.5158935787096774	-0.44256746116129
O	-2.0442774219758064	0.6361394752903226	-0.49961084116128995
O	-3.2653767619758063	-2.9085703387096773	-1.12965669896129
O	-4.0952739219758065	-3.250640378709677	0.0268172318387101
O	-3.0109950619758066	-4.186054368709678	-1.71421888416129
O	1.3697211680241934	1.0309601762903227	-0.6680804811612899
O	-9.121847671975807	12.179341471290323	-0.46571229716129003
O	-5.832802271975806	12.649089671290323	1.3927652318387098
O	-0.9976941909758062	14.720329871290323	1.6761172818387098
O	-0.9823631541758063	11.055389771290322	0.79833637183871
O	-2.490889331975806	8.976392401290322	3.61037194183871
O	-1.8026730009758063	5.426428061290322	2.67105167183871
O	-3.6928220219758066	3.338593091290323	2.71800073183871
O	-6.669842231975806	4.627717061290323	4.82011821183871
O	-6.731822301975806	8.372183201290323	4.07956281183871
O	-5.273627401975806	9.737978331290323	7.339218911838709
O	-5.158324041975806	1.3017211292903226	11.075765061838709
O	-1.5111795219758064	0.15405379029032262	10.671872261838711
O	-1.9548702619758065	-1.9942408087096775	13.78683676183871
O	-0.5038310349758063	6.263059431290323	7.15057178183871
O	0.10522134902419367	9.603290911290323	-7.56091014816129
O	3.0910727080241935	7.322402301290323	-6.95589837816129
O	6.735364878024194	6.748032371290323	-7.72990500816129
O	7.611122658024194	7.398764571290323	-4.12621839816129
O	6.169034188024194	7.687211681290323	-0.52474418316129
O	8.355072318024193	6.323841111290323	2.36883410183871
O	8.232891148024192	11.885896571290322	-1.40177397316129
O	9.085773538024194	11.160746771290324	-5.06201571816129
O	12.076099698024192	4.098797011290323	-0.46660817016128997
O	14.522053298024193	0.14914921529032255	2.26011368183871
O	10.609245598024193	-3.1006166087096774	6.00688968183871
O	7.3865780680241935	-1.0733685587096775	6.23995810183871
O	4.734825418024194	-2.849541608709677	9.68613036183871
O	1.8130727580241937	-4.897978258709678	8.297985601838711
O	-3.7118628919758065	-5.003823598709678	8.606229421838709
O	-3.7932469519758065	-4.214267738709678	4.9501482318387104
O	-4.5531231319758065	-7.846268178709677	4.17674603183871
O	-0.8486000162758063	-8.483007598709676	4.87309107183871
O	0.3682063480241936	-5.632003138709678	2.76945799183871
O	2.6809460180241937	-8.011670588709677	0.9195333518387101
O	4.963737688024194	-8.038523208709677	4.00710270183871
O	5.687004608024194	-4.319147178709677	3.5158931518387098
O	7.551695048024194	-7.894401098709677	-0.89200247316129
O	10.421896798024193	-7.445368188709677	1.54478100183871
O	11.146350198024193	-3.8965993687096776	0.45769555183871
O	-0.5978179799758063	-12.888864628709676	-1.96907521116129
O	-6.047817931975806	-10.897491828709677	0.44007530183871
O	-9.315840691975806	-10.090754428709676	2.24093345183871
O	-10.217417591975806	-6.410255438709678	1.9452103318387102
O	-12.909561401975807	-3.516978878709678	-0.67730338416129
O	-11.544139901975807	0.020467980290322596	-1.08443270216129
O	-7.905994781975806	-0.5749411387096774	-0.74003722316129
O	-6.916118951975806	1.8653440612903225	-3.50125662816129
O	-8.975403911975807	-0.3645331387096775	-5.86849090816129
O	-7.221153171975806	-3.6212133187096778	-5.01475552816129
O	-3.7924689119758064	-1.8574935387096776	-5.46353719816129
O	-1.4985013379758063	-3.5676723787096773	-7.91897396816129
O	2.0299711480241935	-4.970783378709678	-8.44513686816129
O	0.8740217280241936	-8.379284968709676	-7.08923488816129
O	1.9439471880241936	-7.771720578709678	-3.47316807816129
O	5.228400078024194	-6.201013118709678	-4.641320658161289
O	6.157197318024194	-8.909414958709677	-7.19104909816129
O	4.451304488024194	-12.070790828709677	-5.91847562816129
O	5.877539548024194	-11.165017228709678	-2.52091505816129
O	-1.1010956089758064	6.339109261290323	-11.584509138161291
O	1.2708491480241935	3.6421554612903226	-12.780307138161291
O	-7.773556501975806	9.328485231290323	-5.75743214816129
O	-9.732184861975806	5.583077711290322	-10.27219795816129
