12

O	9.347581680347178	43.5075461511525	66.24838464836542
O	10.549334917581755	44.747418998020464	66.58726566823937
O	9.469546000784362	45.71224378902394	67.62260088420572
O	8.704557312004507	44.6314334857258	68.00658585848953
O	9.312728966268846	43.40491224258073	67.64938642922033
O	10.311285624246045	42.62720483943999	65.5501517410579
O	11.937898293015172	42.49344978397873	65.842672242861
O	11.270570306617667	42.65809371802542	67.53271104781139
O	10.446896969139033	41.63175041945824	67.50065638623778
O	10.042895906535767	41.28945307322601	66.14039422989529
O	12.664995518064037	42.89533743704116	68.0865777910976
O	12.115084653038233	43.941865100614876	69.00203489651057
