61

O	-3.46414483154902	1.5700089498627454	-3.275879353119608
O	-0.9212290985490197	-1.0421852301372543	-1.021278693119608
O	-1.6041843815490195	-0.19145612013725444	-2.0452271831196076
O	-2.7169916415490194	0.5601422478627456	-1.971340883119608
O	-3.3375956515490195	0.16421688586274552	-0.8178114931196081
O	-2.6343889515490195	-0.5237131201372545	0.230060768880392
O	-1.2712993175490197	-0.5909393101372544	0.22013766788039202
O	-0.8128250695490197	-1.2789906901372545	1.412282907880392
O	-1.7765301215490197	-2.0745252601372544	1.821999346880392
O	-2.96364691154902	-1.3784701701372544	1.434250482880392
O	3.0543460684509807	9.328712589862745	8.010591806880392
O	-2.3151562015490197	9.015965039862746	7.062677566880391
O	-4.44088868154902	10.256546329862745	-4.674838583119608
O	-4.1587655615490196	9.137168739862744	-2.126672053119608
O	-4.97649888154902	11.747846119862745	0.519003776980392
O	-7.54459673154902	14.043823419862745	-1.105486333119608
O	1.7791463384509802	13.355880419862745	2.571274716880392
O	-5.29579929154902	6.3726894498627455	-15.426643903119608
O	6.74249836845098	6.278692649862745	-1.8187556731196082
O	7.5242818984509805	8.161069649862746	1.447020948880392
O	4.3180902384509805	6.932336949862746	3.102726056880392
O	1.3176725484509804	5.053575559862746	1.553355796880392
O	2.4485708484509807	1.9599385848627455	3.4683804068803923
O	5.16826200845098	1.6038716498627457	0.796115478880392
O	2.7659679984509804	2.2083254198627458	-2.113387173119608
O	3.94437201845098	-1.0420535401372544	-3.708315723119608
O	7.11759381845098	0.8283567928627456	-4.682713573119608
O	5.13346084845098	3.1545308798627456	-6.922686053119608
O	5.17599513845098	-2.616662650137254	-8.530128083119608
O	-7.34241338154902	-10.460844880137255	-5.091269503119609
O	-3.7054406815490193	-7.695402460137255	5.9713299868803915
O	-4.56237018154902	-6.021734320137254	2.709113536880392
O	-2.75220935154902	-8.760741960137254	0.821559226880392
O	0.5815518584509802	-7.870817970137254	2.306558126880392
O	3.1407923584509803	-6.273400010137254	0.10063105388039201
O	3.9924538784509798	-3.6568933601372544	2.7771400168803924
O	0.9922134384509804	-2.6910721601372547	4.892267656880391
O	-0.03789023254901969	-0.5466451501372545	7.765353236880392
O	-2.67772081154902	2.0398706098627457	7.050224986880392
O	-2.9880065415490193	3.3086519998627457	10.574323896880392
O	-7.37710314154902	2.6846241798627455	7.438807416880392
O	-8.84604795154902	4.878376519862745	4.698165716880392
O	-6.4309237415490195	4.260786109862746	1.7867567268803919
O	-9.20678121154902	4.156814619862746	-0.765406203119608
O	-10.70947766154902	1.1946251388627456	1.138046553880392
O	-7.58977319154902	-0.8838345801372545	1.145359984880392
O	-7.31071536154902	-0.42809186013725453	-2.6189931831196076
O	-6.54780739154902	-3.3343426901372544	-4.886902143119609
O	-4.275354641549019	-5.032921740137255	-7.399406923119608
O	-2.1189869515490196	-6.464788180137254	-4.605693283119608
O	0.6465709584509802	-3.9139835001372543	-4.706966853119608
O	0.6207018284509802	-3.824718400137254	-8.503460483119609
O	2.54268148845098	-8.818282210137255	-5.779835273119608
O	5.04161839845098	-5.965826680137254	-6.308789403119608
O	11.61422943845098	6.552455479862746	-0.02463892811960794
O	10.63261123845098	3.4633241098627456	1.946974026880392
O	7.420399568450979	-11.503785880137254	0.335435864880392
O	7.3199342684509805	-8.186544640137255	2.208852936880392
O	5.13856946845098	-8.877302530137255	5.236384786880392
O	3.1112486884509805	-12.083202580137256	4.887454306880392
O	3.92489275845098	-15.024965080137257	-2.520897273119608
