16

O	14.703112683986742	42.702560287397155	65.9333759210341
O	13.10124981669651	43.162689276144825	66.11490037802969
O	12.493633933209331	42.826438034366724	64.95318636659655
O	11.753716406924534	41.65945055957263	64.72258016266647
O	11.223205265447401	41.121985529413145	65.85614312504818
O	11.849256522205247	41.28149756092867	67.06238438188805
O	12.824578546147666	42.29623768326272	67.19001019350523
O	15.214802155099775	41.38127650162616	65.61661225434601
O	15.925208587085807	40.921030670065846	66.59195245915296
O	15.599009589026107	40.74171175907349	64.40070153980902
O	15.435283257826665	39.41382803176494	64.32694052898518
O	9.878707537922043	40.97234920020022	65.86631758139245
O	9.143391206921967	41.61605964731844	66.85547745000571
O	8.785450050507489	42.98199809010304	66.35993607134002
O	9.783399453349272	44.01538765516482	66.8051202878583
O	9.949604287434262	43.70203338410649	68.2708292216719
