88

O	3.062192252865672	0.8743616799104481	-3.4022361474208958
O	-2.198498287134328	2.103167446910448	3.976092112579104
O	-2.458753047134328	1.7825243019104482	2.6419460825791043
O	-1.4528635001343282	1.836024909910448	1.6474295025791044
O	-0.2225073031343282	1.793247951910448	2.191258502579104
O	-0.007328541134328237	2.280024219910448	3.4870164125791043
O	-0.9474600073343282	2.234797739910448	4.456127642579105
O	-1.9079898501343282	1.121113441910448	0.36352727257910444
O	-1.9740930951343283	2.7021177699104477	-0.8897177774208956
O	-1.8735962521343281	1.9981226189104482	-2.0923186874208954
O	-0.5683443841343283	1.546424464910448	-2.2852990874208956
O	0.28260309286567176	1.895038830910448	-1.1804888984208957
O	0.2482515328656718	3.316697009910448	-1.1811188094208958
O	-1.0173303155343283	3.577660919910448	-0.7426027370208956
O	1.7486048328656716	1.394929049910448	-3.2714064474208957
O	3.391691172865672	-0.581688490089552	-3.4276829974208955
O	4.947105582865672	-0.391799720089552	-3.509488257420896
O	5.127452672865672	1.073244936910448	-3.7955587474208956
O	-2.7632553571343283	2.239896585910448	0.09222483757910438
O	3.850101552865672	1.220835519310448	-4.595923907420896
O	1.5721543828656717	1.713411637910448	-1.8330383274208955
O	-12.347050767134329	-4.757219040089552	5.2311631425791045
O	-8.68639551713433	7.851154289910448	-10.139714047420895
O	-7.220219617134328	4.598699069910448	-11.508403507420896
O	-3.879167947134328	2.069553862910448	-14.674018207420897
O	-2.7345568471343285	2.076091322910448	-11.038346707420896
O	-5.230947197134328	0.2378182299104481	-8.867611117420896
O	-3.4141726171343283	-0.03777385008955192	-5.488438347420895
O	-4.712964357134328	0.496094125910448	-3.0867266474208956
O	-8.508003307134329	0.717416238910448	-3.7901667274208957
O	-8.842859207134328	2.086797853910448	-7.332244517420896
O	-9.810554377134329	-1.081400270089552	-9.225776487420896
O	-12.267993567134328	-4.091892930089552	-4.223748227420896
O	-10.524660507134328	-5.785916010089552	-1.3091199284208956
O	-7.239022527134328	-7.735540220089551	-1.0504799364208957
O	-9.084154187134327	-10.42086571008955	0.9374163225791045
O	-5.378008047134328	-4.242244610089552	-6.983320487420896
O	3.2196987428656723	7.834786209910448	-9.388138297420896
O	5.637369622865672	5.2435758599104485	-8.042065317420896
O	9.091050632865672	3.709021069910448	-8.399390657420895
O	7.482883052865672	0.385327508910448	-9.331777627420896
O	4.154514502865672	-1.5790841600895518	-9.341728607420896
O	4.389859232865672	-5.294815990089552	-8.773930277420897
O	5.623089062865672	-1.2768861200895518	-14.017928707420896
O	8.561626662865672	1.045576636910448	-13.311940307420896
O	9.331163432865672	-5.607134760089552	-7.507178627420895
O	5.622908232865672	-11.385439410089553	-0.6601730702208957
O	2.5918988928656717	-9.358589610089552	-1.8043638574208956
O	1.0449924028656719	-14.053328410089552	0.10457899857910435
O	-1.2263383531343282	-11.006914310089552	0.3485791525791043
O	-2.3541263371343284	-8.678876480089553	3.132528692579104
O	-6.865728697134328	-5.850075550089552	4.596921562579105
O	-4.874208997134328	-2.764573090089552	4.076782432579105
O	-4.442673317134329	-2.413754510089552	7.846933382579105
O	-1.8172847061343282	-5.163137190089552	7.4939601125791055
O	-0.0690111551343282	-3.5640077600895523	4.5082818425791045
O	3.2211012328656716	-3.8717601300895517	6.412116042579105
O	3.1938352128656717	-7.613324160089552	5.615038002579105
O	3.4129054528656724	-6.800608760089552	1.8595553025791043
O	8.093195302865672	-5.094435610089552	5.175568592579105
O	8.843852362865672	-8.56980129008955	3.8549871025791043
O	9.432340832865671	-7.369968100089552	0.30882086257910435
O	11.990808832865673	5.7858586199104485	8.907384622579103
O	0.2253047628656717	6.7056651199104484	10.671905692579104
O	2.1514168828656715	2.572396169910448	13.917004792579103
O	3.1362804428656723	-0.6273596200895519	12.088476092579103
O	-2.893174267134328	0.901750968910448	11.330432192579103
O	-6.675073547134328	1.443980707910448	11.265805392579104
O	-7.737646317134328	2.896815569910448	7.908941952579105
O	-8.766542757134328	7.053464229910448	5.934917252579105
O	-8.041926967134328	7.282444969910448	2.2264180025791043
O	-5.190758787134328	4.812792929910448	1.8707184425791041
O	-3.356246227134328	7.1173181599104485	-0.5518741534208956
O	-3.1345737271343284	9.607738889910447	2.2771165125791044
O	-1.7371293461343282	7.278092409910448	4.893381232579105
O	0.8915122628656718	6.019426409910448	2.519027842579104
O	4.460752132865672	6.440193049910448	3.553169882579104
O	7.708281152865672	4.618187909910448	4.145340992579104
O	6.5181627228656716	3.529224169910448	7.606898722579104
O	5.127136542865672	0.16390868991044805	6.550715152579104
O	8.218215522865671	-0.44942870008955205	4.378296512579105
O	10.871357332865673	0.571848327910448	6.921708412579105
O	9.285926132865672	-0.11501613008955203	10.300959592579105
O	8.271698332865672	-3.478763210089552	8.851783222579105
O	5.237989882865672	11.07671330991045	-5.765661687420895
O	8.266951852865672	10.22137994991045	-3.6878398174208957
O	-4.018859827134328	10.828927669910449	-7.356000607420896
O	-2.2280457371343285	14.859895189910446	-2.965527547420896
