86

O	-0.9706171989843742	-0.1334176598125001	-0.34826506515625
O	2.612376538015626	-1.0431383868125002	-1.71477165615625
O	3.628839098015626	-3.7316962968125003	-1.7399471961562498
O	0.2013726960156259	-0.23596208781250005	-1.21129348515625
O	-2.084479651984374	0.6198936288875	-0.67139955172625
O	0.2478285570156259	1.0013957051875	-1.8653475561562498
O	1.600952758015626	-0.45650588681250004	-0.8368966381562499
O	2.148539728015626	0.48821921648749994	-0.24666166115625
O	3.9733752980156263	-1.3246766368125	-1.63288448415625
O	5.706587938015626	-3.1213595968125	-2.06543904615625
O	4.400862888015626	-2.7604896368125003	-1.7054932561562501
O	-1.4303495179843742	-1.5492936368124999	-0.016285808156250026
O	-0.9518909019843741	-1.4333112068125	1.4165498438437498
O	-1.6827046319843741	-0.5744533368125	2.17718991384375
O	-1.270593738984374	-0.5463231868125	3.50579365384375
O	0.053594950015625864	-0.4047208508125001	3.63416065384375
O	0.865418368015626	-1.0885838068125	2.8135197138437498
O	0.38706967501562595	-1.4084821668125	1.59605646384375
O	4.858303948015626	-0.7179503468125001	-2.75646908615625
O	5.844232608015626	0.07456788918749996	-1.95614976615625
O	6.782937918015626	0.7104069431875	-2.92021199615625
O	5.103596248015626	1.1797230751874999	-1.2931123051562499
O	-11.442822561984375	-8.2399212968125	-7.82990865615625
O	-11.919996461984375	-6.6285689168125	-4.44182629615625
O	-9.386027661984375	-5.5754591768125	-1.8783800561562498
O	-11.083151961984374	-3.7906655568125	1.0271145138437499
O	-8.266421291984374	-2.3743393168124998	3.05464930384375
O	-8.196070721984375	-2.5769710268125	5.88337396384375
O	-13.113611761984375	6.2228914031875	3.4011842938437495
O	-11.601754561984375	0.9319821401874999	2.2537479938437497
O	-11.048419761984375	2.8175730731875	-0.98191368515625
O	-2.8845886919843737	-4.4674203268124995	-13.91539881615625
O	-3.172850901984374	-9.6816691768125	-6.35769493615625
O	-1.882204021984374	-9.554882276812501	-2.75941732615625
O	0.02068113901562585	-6.237943596812499	-2.95203983615625
O	2.368887968015626	-4.2197794868125	-5.2201588561562495
O	-0.3422962049843741	-1.5620639968125	-5.417286186156249
O	-3.7161324219843745	-0.31415741781250006	-4.07454160615625
O	-4.485287391984374	3.4934012131875	-4.33388242615625
O	-8.021633331984374	2.9755987831875004	-5.3849712261562495
O	-4.8501249019843735	2.3616565931875	-9.124382646156251
O	-4.476689661984374	-1.4314726668125	-8.84075066615625
O	-1.0075896579843742	-2.8853942468125	-9.420705766156251
O	0.5968958980156258	-6.3521736168125	-9.366539406156251
O	6.027961098015626	-4.8204477868125	-11.76810991615625
O	5.552907358015626	1.6862808331874999	-6.98767197615625
O	3.574067538015626	3.8275985131874997	-9.411238516156251
O	5.044156718015626	7.0103951831875	-7.866666556156249
O	0.30415446401562585	4.962618783187501	-5.6213888561562495
O	0.12350487601562588	8.3340074831875	-7.2395122561562495
O	1.2492997780156259	9.974744463187498	-3.99059995615625
O	-3.971126091984374	10.656614423187499	-4.11097426615625
O	-2.9210726519843737	13.2126027231875	-1.46746159815625
O	-1.4331889199843741	11.4031615231875	1.52488142384375
O	-3.9607855319843743	8.6755394831875	2.26059655384375
O	-6.890844551984374	9.4100660331875	-0.03051085415624999
O	-5.776528621984374	2.0767400731874996	11.69556928384375
O	-1.7405616419843741	4.0138449131875	9.677707783843749
O	1.8466707180156259	5.4134590731875	9.67862738384375
O	-0.853086836984374	7.3402708831875	5.34107411384375
O	5.093958108015626	7.2494637831875	6.03208871384375
O	3.391097248015626	8.5071473831875	0.8981311938437501
O	6.854486968015626	6.9096926931875	0.9312096838437499
O	8.248213008015625	10.3819599631875	1.58708293384375
O	6.4416213680156265	11.7502037231875	-1.4929896501562498
O	7.297203268015626	8.686645693187499	-3.5496723861562502
O	14.346622938015626	1.5648749631874999	3.30361932384375
O	-3.774070381984374	-7.9609055468125005	8.12618030384375
O	-1.624498181984374	-9.7842428768125	10.730208383843749
O	0.10815332201562589	-6.6432545568125	12.03250918384375
O	0.9676052180156258	-5.5125459168125	8.54769387384375
O	4.688450408015626	-4.964930646812499	7.764669523843751
O	7.123823648015626	-2.3465586368125004	6.39577713384375
O	7.363872298015626	-0.7368581468125	9.86989148384375
O	4.758032078015626	1.9958883731875	9.330677783843749
O	6.219174698015626	2.6798641931875	5.85762344384375
O	9.869327938015624	2.8056448531875002	6.84139624384375
O	9.794284138015625	3.9306741331875	10.44078298384375
O	9.569278238015626	7.6348896131875	6.40888499384375
O	12.415812138015625	-7.863290586812499	-6.5100607961562496
O	2.123008438015626	-10.764829476812501	-3.97456294615625
O	2.386300548015626	-11.4649004768125	-0.25033057515625
O	5.627523078015626	-9.488795576812501	-0.015653820156249942
O	7.190576048015626	-12.314381176812502	-2.08370414615625
O	-3.069927651984374	-14.642987376812501	1.4699943438437497
O	-1.674247691984374	-15.696186076812502	6.30395932384375
