86

O	1.6546269435268661	1.3153559999029865	4.326596510732837
O	2.046106413526866	2.5295436769029864	4.751088700732836
O	1.3608557135268657	3.576887426902986	4.245645810732836
O	0.6834693935268659	3.3742773969029862	3.0824685607328366
O	0.07251382352686586	2.184987466902986	2.8816170607328364
O	0.5232795235268659	1.1667818732029864	3.6564749407328363
O	-0.07464670947313412	-0.04904122309701364	4.126895940732837
O	-1.392121527473134	0.2651130319029864	3.879004570732836
O	-1.459386378473134	0.42150521290298637	2.5116355207328365
O	-0.608826434473134	-0.22065041309701372	1.6106996207328363
O	-1.2098578294731341	-1.3475202930970138	1.0255628807328363
O	-2.655962566473134	0.7648984929029864	2.0296240207328364
O	-3.310634766473134	-0.2726777130970137	1.4225414007328363
O	-2.448590126473134	-0.9751183330970135	0.7126468827328364
O	-2.957255786473134	-1.4903970930970136	-0.5325060862671637
O	-3.179441246473134	-0.9135382730970136	-1.8353096192671636
O	-3.2394595664731343	0.3449277059029864	-1.5742868592671635
O	-2.361846836473134	-1.4966984630970137	-2.9239666192671634
O	-3.202998466473134	-1.8501147430970135	-3.9982422092671634
O	9.159645703526865	-7.131719513097013	7.547566560732837
O	-10.878482896473134	-8.646505293097013	6.597518480732837
O	-9.914590156473135	-9.719783493097014	3.0668207207328364
O	-11.091629196473134	-10.215675893097012	-2.0483942892671636
O	-8.767308286473135	-7.300925853097014	-1.3583132892671637
O	-5.494530816473134	-8.575168013097013	0.10544498873283636
O	-3.2748063264731337	-5.489373663097014	0.09946635673283635
O	-1.689059556473134	-4.541594493097014	2.2659596807328364
O	-1.575045795473134	-7.524654673097014	4.707598460732837
O	-4.929898306473134	-9.386117093097013	4.319453200732837
O	-3.903971496473134	-12.451141793097014	2.2889493407328363
O	2.153024023526866	-12.417863893097014	4.121017210732837
O	4.971417193526866	-10.110395593097014	3.0512942807328365
O	5.8330221535268665	-8.454429683097013	-0.29491962926716364
O	9.437359503526865	-9.653549393097013	0.12466179473283637
O	-1.064657612973134	-9.323757993097013	-1.8108189892671636
O	-12.774127996473135	0.19569727890298638	-1.1688453192671635
O	-10.422917686473134	1.6898463409029865	-3.788519099267164
O	-10.341677966473135	3.3221149469029863	-7.213127109267163
O	-8.377340066473135	0.36561089590298634	-8.495876309267164
O	-6.430525646473134	-2.7364382230970135	-7.540931759267163
O	-3.563458286473134	-3.806867723097014	-9.802521139267164
O	-10.221405206473134	-4.345647583097014	-10.238017289267164
O	-11.866590796473135	-0.9251720330970137	-10.509145789267164
O	-3.4483931464731343	0.3650855439029864	-12.758457489267164
O	6.1204982635268665	-0.5666391830970137	-11.108196189267163
O	4.512051403526866	-2.593372103097014	-8.267414729267164
O	9.368347603526866	-4.424169973097014	-9.314721579267164
O	7.8944160135268655	-4.687702273097014	-5.810904899267164
O	8.429641893526865	-2.9283197330970134	-2.4803142092671635
O	10.248968503526866	-5.380662003097014	-0.18298207636716363
O	8.363996393526865	-4.119765003097013	2.8995957607328364
O	5.351070443526866	-1.7842103030970138	3.1860740407328363
O	7.810840613526866	0.8009750619029864	4.6695573907328365
O	8.902370193526865	1.3789486649029863	1.0791834607328363
O	5.3997474335268665	1.4999533399029863	-0.3627941252671636
O	6.320081173526866	4.831022956902986	-1.9927506792671636
O	8.352939223526866	2.880106766902986	-4.577087489267163
O	5.167697973526866	1.1512903924029865	-5.781316909267163
O	5.362083383526866	7.095295936902986	-6.557802389267164
O	6.681223963526866	5.473470386902986	-9.719904309267164
O	3.247228793526866	4.287414756902987	-10.797001489267164
O	2.6096752735268662	9.322180116902986	8.207455130732836
O	7.310603093526866	10.970334486902987	5.712797210732837
O	8.063091503526865	9.350303446902988	2.3507369007328363
O	7.666665553526866	5.240009226902986	7.0616844407328365
O	8.063948213526865	2.7634872169029863	9.937168110732836
O	4.944243113526866	0.5950676419029863	10.228134210732836
O	0.9316323435268659	0.3795240809029864	12.711331910732836
O	-1.983260156473134	-1.2074973130970135	10.865020310732836
O	-1.0991187242731342	-0.4793742030970136	7.380725570732836
O	-4.573734766473134	0.4048428719029864	6.271169320732836
O	-4.525759186473134	3.168047746902986	8.873523820732837
O	-1.3815022524731342	4.766001116902986	7.542867780732837
O	-2.659377756473134	4.624886786902986	3.9716083007328367
O	-2.934821816473134	8.007806446902986	2.3200319807328365
O	-1.9629476334731342	10.068451476902988	-0.7465770632671636
O	1.4438433235268657	10.827310336902986	0.7716366167328363
O	3.301765923526866	7.889029566902986	-0.7753653182671636
O	1.5911606135268659	8.566294506902986	-4.129260609267163
O	2.1397871035268663	12.328444606902988	-4.251613039267164
O	5.298003193526866	12.910235006902987	-2.2405589592671635
O	6.778565023526866	10.002111956902986	-4.188856419267164
O	-12.867097196473134	5.0472254769029865	0.9743588107328365
O	-11.408371296473135	8.063502606902986	-0.7854331562671636
O	-11.891474596473135	-2.5553711530970133	6.373222580732836
O	-11.912773496473134	2.8519351369029864	9.415108400732837
