14

O	16.00461656486798	43.089351521003366	67.53378349762583
O	19.656419053850303	43.80239188285462	66.94178642574467
O	17.698677671613158	44.08760570832307	68.6928024097497
O	18.428260898256507	42.97055933982625	66.7322738709189
O	12.792308971719388	44.60382587229454	67.8673439804346
O	18.594390604070174	41.510076988228775	66.94803193453234
O	14.51633409544334	44.55213503323379	69.30832701917653
O	17.376229416495793	43.48611991896146	67.62416845917093
O	15.95587884764253	41.66601212920507	67.67371150394759
O	14.534919660022396	41.32201340020005	67.47381297451503
O	13.786435038049786	42.48305632319904	66.7976239844265
O	14.747522499257734	43.602985714322216	67.07685485208003
O	14.002612582121664	44.393828952588535	68.06915593974887
O	20.948822267430632	42.77143735806784	67.6251598563514
