24

O	13.39487049975374	42.70890746154808	65.295369359029
O	13.978824894903891	42.23289794222664	64.05526608333963
O	14.156020981147826	40.78039100848073	64.07354706292507
O	13.584367626497135	41.18548747109856	66.79861171423924
O	12.197847202812333	41.5982861956205	67.34781914120163
O	11.102541360765084	40.65527471733362	67.49467827094506
O	9.111483674617169	40.42837252574497	68.31352119878123
O	8.555323289806084	39.68165694016943	67.33176285513832
O	7.698562261596231	38.73374067695226	67.91656343122658
O	8.030051872058534	38.41289958554541	69.14311572144429
O	9.277218231894595	37.448923492195114	69.11697219716375
O	8.756230447314518	37.065933241535774	70.40249905632317
O	9.295346782185586	37.842072098683595	71.38942228904926
O	9.506329686460042	36.952751806065834	72.45389534114894
O	8.627498775255042	35.94283899097806	72.70117042229897
O	7.498163658957117	36.043338133280585	72.04013196953035
O	7.511671575077752	36.658153302305145	70.82312747436502
O	8.021694299277089	39.467982931510065	70.02073011455826
O	8.527143983004606	40.66408741438064	69.46079993515784
O	15.624359455016716	42.369304066814244	65.81992906316617
O	13.634710075368014	40.42183389737665	62.97006630793932
O	15.47595353915851	40.324187096766536	64.17024612075153
O	10.448440163582829	40.04093958159172	68.48498817413012
O	14.326132373527596	42.28722918408198	66.27349678522249
