65

O	0.35564993515384613	1.9483053921923073	3.315416467725
O	1.2411961731538463	2.1824499891923073	2.317533897725
O	0.8929690331538461	2.219861339192307	0.953400153725
O	-0.3206681338461539	1.7993912681923072	0.530048811725
O	-1.1943007508461538	1.609784372192307	1.5416881177250001
O	-0.8763140798461538	2.183692759192307	2.808441697725
O	0.804459363153846	1.9272368881923072	4.613684777725
O	-0.5394217170461538	0.9420816205923073	-0.655253589275
O	-1.180843655846154	-0.21094882080769284	-0.818290707275
O	-0.6820742860461538	-1.0327990708076926	-1.778083642275
O	-0.18481407884615386	0.10763765919230728	-2.8442181722749997
O	-0.5339447948461539	1.5584016931923073	-1.905600432275
O	-1.2631455788461539	-2.1603775108076926	-2.4454296322749998
O	-13.253601036846154	-3.9001286408076927	2.468296637725
O	-12.627456436846154	1.4880646571923073	2.746843067725
O	-4.410476786846154	4.066230019192307	11.084242367725
O	-5.763126676846154	3.7176088991923075	8.657952767725
O	-9.423999606846154	4.389725219192307	8.919508657725
O	-9.699724976846154	6.997485419192308	11.696688067725
O	6.539862513153846	5.410961069192307	14.567674567725
O	-3.528218496846154	-7.132706250807692	6.201341907724999
O	-7.201171766846154	-8.047638670807693	5.651931777724999
O	-7.868148846846154	-4.879812470807693	3.671028447725
O	-5.714739806846154	-1.862091190807693	3.136323447725
O	-5.227799136846154	-2.9884453808076925	-0.481494394275
O	-2.741781316846154	-5.475115600807692	0.895053045725
O	-0.9847150218461539	-3.258608620807693	3.1597322077250003
O	2.348121233153846	-4.114618510807692	1.631790627725
O	2.102800493153846	-7.342884740807692	3.684327797725
O	2.344463073153846	-5.393194170807693	6.907007007724999
O	7.192464783153846	-5.242727030807693	3.321046167725
O	7.680866303153847	-7.934192600807693	5.917020437724999
O	8.282937283153846	-5.4798752708076925	8.767009547725001
O	12.317595863153846	8.346366419192307	-5.870223132275
O	8.721539513153846	7.291483859192307	-5.131692882275001
O	-1.507384361846154	3.190871839192307	-9.709721472275
O	-0.02699622684615388	4.078911319192307	-6.314728982275001
O	3.180004953153846	2.3531001591923073	-7.3236742522750005
O	1.6864706931538462	-1.0455297908076926	-7.7049950622750005
O	2.486078813153846	-3.357057100807692	-4.805376612275
O	-1.167016768846154	-4.4715737908076925	-4.507064682275001
O	-3.442363636846154	-1.3762442508076929	-4.899775142275001
O	-7.135622746846154	-0.6943131008076928	-5.160491742275
O	-8.291127796846153	1.9601605021923072	-2.693210742275
O	-9.132616226846155	6.602286539192307	-2.5092344722749997
O	-8.450950966846154	8.164609359192307	0.878344942725
O	-5.747698636846154	5.904418189192308	2.2800847177250003
O	-3.803257176846154	8.832526979192307	3.7154650777250002
O	-3.422703586846154	10.127310499192307	0.139342341725
O	-2.0650610468461537	6.855259969192307	-1.303449312275
O	0.5707669431538461	6.915538489192308	1.258349497725
O	4.252568593153846	6.445172929192307	0.335320876725
O	7.409843633153846	4.263164769192307	0.599220514725
O	6.154127613153846	1.9963839001923072	-2.199628342275
O	4.591140323153846	-0.6851118708076929	-0.005472067974999981
O	7.724158033153847	-0.6592143308076928	2.283249617725
O	10.312567763153845	-0.7407703608076928	-0.380131600275
O	8.633092213153846	-2.5497260808076927	-3.2489449322749997
O	7.4631867331538455	-5.094463010807693	-0.669669791275
O	-4.924992296846154	-12.062464000807692	5.313802437724999
O	0.15017449115384618	-5.720926160807693	-10.087872232275
O	2.289379523153846	-3.6462591408076923	-12.448700732275
O	3.152367283153846	0.0038147991923072055	-11.713406432274999
O	10.000152463153846	-0.21243600080769287	-10.600419532275
O	9.976020263153845	-4.033327660807693	-10.118620032274999
