86

O	-4.821846357567164	-2.3864661611492526	-1.7590370644134334
O	-4.368269157567164	-3.591678181149253	-2.481341750413433
O	-2.5973976475671643	0.2904062518507472	-0.052254184413433324
O	1.5828455224328353	2.8984271588507475	0.17674978958656662
O	0.6496186424328354	1.8708996448507471	3.3712148595865665
O	2.7653632524328353	3.506170448850747	0.45695683958656663
O	3.1583763224328356	3.586042228850747	1.7283034495865668
O	2.519748602432835	2.795760208850747	2.6188460395865665
O	1.2764509124328354	2.5922072488507473	2.430988479586567
O	0.6692671424328354	3.0088073188507476	1.2241803095865669
O	-0.4178820805671646	1.3596151228507471	2.8132170795865665
O	-1.2807888706671646	2.2774051388507472	2.3338609295865664
O	-2.0114647255671647	1.9504662248507474	1.2431111295865664
O	-2.0738603385671643	0.5607096508507472	1.1268977695865667
O	-0.7794778855671646	0.05716567385074722	0.9499174295865667
O	0.04425553243283531	0.46835105285074724	1.9181032495865666
O	-3.4173132075671644	-0.8195155211492529	-0.23670931541343332
O	-3.8907533275671646	-1.3858319711492528	-1.5376077704134334
O	-5.974164097567164	-2.059002241149253	-2.6106320204134335
O	10.338264022432835	-1.2127432711492527	7.859127999586566
O	5.809997002432835	1.3214430648507474	9.347248139586567
O	-9.211563967567164	-0.3634923611492529	12.149266639586566
O	-9.021455067567166	-3.668573651149252	10.262479039586566
O	-11.335785677567165	-7.399277941149252	7.339967389586566
O	-8.994312937567164	-5.086794611149252	5.3088047495865665
O	-5.455818127567165	-5.447724011149252	6.550411969586567
O	-3.4600773675671643	-3.584448911149252	3.902542409586567
O	-1.4440534815671646	-1.7632110311492528	4.568436149586567
O	-0.6736282905671646	-2.1013368011492526	8.220341219586565
O	-3.923232897567164	-3.2396187111492525	9.921072939586566
O	-3.279405177567164	-6.972284751149252	10.504342539586567
O	3.0321975724328354	-6.378640191149253	10.542750739586566
O	5.404063112432835	-5.829160001149252	7.637793429586567
O	5.422848322432835	-7.153392701149253	4.045490209586567
O	9.089150822432835	-8.174816041149253	4.512643129586567
O	-1.5906201135671645	-7.949576921149253	4.943856059586567
O	-11.517069677567164	-0.24371098114925283	-2.2794084404134334
O	-12.376065377567166	-1.4402807611492527	-5.787689940413433
O	-10.671182507567165	-4.711207301149252	-4.996786490413433
O	-8.351712497567165	-6.448633501149253	-2.5324644504134333
O	-6.091418987567164	-9.165672341149252	-3.8794380704134337
O	-12.645857477567166	-9.023527041149253	-2.5372885404134333
O	-14.466456477567165	-6.551813921149253	-4.788099040413433
O	-6.846267657567164	-8.269867261149253	-8.836322820413434
O	2.8044875324328356	-9.034927941149252	-8.859091500413433
O	2.0535713324328357	-8.309540131149253	-5.1910578804134335
O	6.595351322432836	-11.014053841149252	-5.646633280413433
O	6.043590792432836	-8.605814961149253	-2.7708899204134334
O	7.287150052432836	-5.125147541149253	-1.8488722314134334
O	9.624915822432834	-5.470889521149252	1.1330645995865665
O	8.416241322432835	-2.2118948611492524	2.7103963295865663
O	5.3866924024328355	-0.017274370149252816	1.7955189095865667
O	8.038888932432835	2.569972598850747	0.5805529795865667
O	8.356238252432835	0.35946149285074724	-2.5068555504134333
O	4.658078382432835	-0.15372167114925284	-2.9645767704134336
O	4.963617702432836	1.0328551448507473	-6.547002590413433
O	6.391989982432835	-2.4206194711492524	-7.326688650413433
O	3.0796567924328357	-4.030470961149253	-6.260221810413433
O	2.783065982432835	-0.3939829911492527	-11.003416360413434
O	3.3935219624328354	-3.894033661149253	-12.269764460413434
O	3.4350127224328357	11.726443858850747	-1.9498378104134333
O	7.404705102432836	10.604948638850747	-5.719501190413433
O	7.4684019924328355	7.039300338850747	-7.068259070413433
O	9.463458622432835	5.7825058388507475	-4.067104170413433
O	8.216050902432835	7.375293008850748	-0.8505024908134333
O	9.324479422432836	7.554488018850748	2.776348859586567
O	6.449037272432836	6.594630878850747	5.069316979586567
O	8.433589922432835	7.416498558850748	8.285533079586566
O	3.1390576024328354	8.699609358850747	7.662888139586566
O	-0.008100897567164589	6.673050868850748	8.088523499586566
O	-0.0912566775671646	4.657153618850748	4.940727569586567
O	-3.6804936475671646	5.0032555088507475	4.386673679586567
O	-3.1043737275671646	8.728130078850747	4.126724549586567
O	-0.3771792155671646	8.464989128850746	1.5290856395865668
O	-2.2609245075671645	6.060680228850748	-0.49735004541343336
O	-3.242772017567164	7.486881568850747	-4.004807930413433
O	-3.0735624275671647	6.6836015388507475	-7.734108700413433
O	0.5608854724328354	7.840218308850748	-7.879255290413433
O	2.1673003724328357	4.452400198850747	-7.250305220413433
O	-0.33223056956716457	2.820574228850747	-9.625738530413434
O	3.519586262432836	6.735922318850747	-12.148624060413434
O	4.618629882432836	3.117000978850747	-11.740417860413434
O	-12.928187577567165	5.723842638850748	-0.8990140863134334
O	-12.159506277567166	6.478117888850748	-4.526641680413434
O	-10.474658287567165	3.951734308850747	7.897439659586566
O	-10.084545377567165	9.907172728850748	6.194667709586567
