20

O	7.5248107630646235	36.69965514630414	72.31114201514009
O	7.139731464392543	37.51050233934322	71.29032809917511
O	8.061426059463331	37.98977717567653	70.4479159916467
O	9.33278053087499	38.12475970915337	70.85911433967455
O	9.679871114488922	37.31964817680624	71.93796679677023
O	8.820420871357683	36.3589405887315	72.43509873369221
O	7.680030301971417	38.22029223551307	69.08986886055007
O	7.985247284991796	39.6117070324392	68.89387218374085
O	8.105274795571715	39.82934478943898	67.56898299433638
O	9.240303323364424	40.42891303488178	67.027857909645
O	9.975492890841537	40.830151340997354	68.09994324789433
O	9.370405235860872	41.48498185551962	69.11504506859308
O	8.55550286154535	40.51079784757124	69.72889779648577
O	11.419772604480688	42.033520765881484	66.1822627276916
O	12.88122734926751	42.05968566596818	65.95921718188825
O	13.512557275022566	41.10136305516858	64.95290650566652
O	15.003254846660244	41.492511449029486	65.19757877936247
O	14.904296274972854	42.73396584084322	66.02102376019295
O	13.59699288514652	43.223277159087786	65.42121642678227
O	11.106732419823562	41.58750152232379	67.53474731809179
