84

O	-2.814005259558823	0.5188988504808827	-1.297124930095588
O	-2.388740559558823	0.8088781564808827	0.29839893290441205
O	-1.3674240675588232	1.6954458264808827	0.24594139290441203
O	-0.004203069558823103	1.3812878664808828	0.319766998904412
O	0.24734487044117692	0.21215867748088268	0.9717917629044122
O	-0.666780266558823	-0.8059283435191172	0.9551699229044122
O	-1.999017750558823	-0.5136442235191173	0.5850993979044121
O	-1.960055249558823	0.037302597480882715	-2.368008027095588
O	-2.360004519558823	-1.1170882435191172	-2.786594227095588
O	-1.210442011658823	0.6855597904808827	-3.394136617095588
O	-0.08901968955882311	0.08156807548088274	-3.810223357095588
O	1.065189340441177	0.2984513784808827	2.0459671129044117
O	0.584505140441177	-0.11083278051911727	3.284885862904412
O	-0.07225808955882296	1.0613260084808827	3.9438067929044123
O	-1.5525441885588231	1.0917296154808827	3.6795821229044114
O	-1.965551148558823	-0.33167857351911734	3.9578841229044115
O	0.23198609044117702	9.265548536480882	9.978338992904412
O	-2.287854919558823	12.102571666480882	10.163788192904413
O	-1.039201339558823	12.303969266480882	5.853786932904413
O	-0.716224269558823	8.611505426480882	4.957896692904412
O	2.878619210441177	7.483427636480882	5.594243062904412
O	2.9365777804411763	4.055521166480883	4.063720202904412
O	3.9765822804411766	1.7540910264808827	5.254642182904412
O	6.012478540441177	2.9476541964808827	8.219036372904412
O	11.950752350441178	1.9484191464808829	1.548296942904412
O	16.529405950441177	4.625074816480883	1.2031528229044122
O	11.374693850441178	6.4103528264808824	-0.452105633595588
O	10.021690650441178	8.384564126480884	2.4933039829044117
O	6.657370270441176	6.604284676480883	2.585658252904412
O	5.901304080441177	8.648435706480882	-0.5377944330955879
O	-8.229265979558823	4.6141889464808825	4.4490964729044125
O	-7.477345059558823	3.394432816480883	0.9354341629044121
O	-8.736568539558823	3.3869196764808827	-2.636371947095588
O	-5.634747459558823	5.283746326480882	-3.673839397095588
O	-2.128960443558823	6.332362736480882	-2.625336857095588
O	0.5019073104411769	6.729886606480882	-5.3440982170955875
O	1.9359936104411768	9.969583456480882	-3.9111477370955883
O	-2.246041569558823	10.761074266480882	-6.399060417095588
O	-4.663986529558823	10.540600046480883	-3.4463578470955882
O	-7.982279019558823	8.768681706480882	-4.047363577095588
O	-11.052797089558823	7.843216386480882	-1.9924212070955878
O	-2.159100501558823	4.579738966480883	-9.162772617095587
O	-0.7912918525588231	5.808273446480882	-12.482910007095589
O	1.1165510104411769	2.534736256480883	-12.904790007095588
O	4.717256950441176	5.9698314564808825	-11.188959807095587
O	6.910386890441177	3.130427606480883	-12.504448907095588
O	6.335933000441177	-0.0024580665191172857	-10.433272907095589
O	6.549865060441177	1.2189133234808827	-6.842080027095587
O	7.747330130441177	4.809656456480883	-7.145364137095588
O	8.280142240441178	-4.440192363519118	3.133456172904412
O	8.860297150441177	-8.200646953519117	2.996663922904412
O	5.9115396904411766	-5.557674873519118	-0.991580901095588
O	4.584254920441177	-7.954974023519117	-3.659997207095588
O	5.308069210441177	-3.036647773519117	-5.813847187095588
O	1.9705577004411767	-7.445584183519118	-8.138148927095589
O	3.549965490441177	-5.525444413519118	-10.984052807095587
O	1.297935500441177	-2.500814503519117	-10.586642307095588
O	-1.8198925335588232	-4.6668311635191175	-10.806982407095587
O	6.595891760441177	-12.598282233519118	3.993655222904412
O	8.656031850441178	-11.977413333519118	7.142939002904412
O	7.433138630441177	-8.925799263519117	9.032475582904413
O	2.705854900441177	-4.028870683519117	8.531876852904412
O	-0.7962960035588231	-2.5179812935191173	8.645075212904413
O	-1.976411211558823	-5.801978713519118	10.223236692904413
O	-0.4903767755588231	-8.079788643519118	7.5601464129044125
O	-1.992829604558823	-6.009614633519118	4.775555922904412
O	-4.353955469558823	-7.791635733519117	2.376758972904412
O	-4.982447769558823	-8.535465913519118	-1.3004399420955879
O	-2.449818949558823	-11.403306233519118	-1.197519343095588
O	0.5465638904411769	-9.415945133519118	-2.432514127095588
O	-1.639727936558823	-7.7625324735191175	-5.115589047095588
O	-3.3370009295588234	-10.901941833519118	-6.395283677095588
O	-0.8387143615588231	-13.668978633519117	-5.710097777095588
O	1.7746683504411769	-11.345928833519118	-7.2106704670955875
O	-0.3967268105588231	-10.638475133519117	-10.249734407095588
O	-12.100456449558822	3.032855166480883	3.1461183829044117
O	-10.863542159558822	0.044608225480882724	5.133545172904412
O	-11.545863649558822	-2.327795933519117	2.254236062904412
O	-15.251425149558822	-1.624657573519117	2.905977592904412
O	-13.523635349558822	-3.4901628935191176	8.204550092904412
O	-4.970250399558823	3.2832794464808828	11.641045892904412
O	-8.537664389558822	2.4235678364808826	10.736556492904413
O	-7.047730009558824	0.6649946027808827	15.566356492904413
O	-7.701165819558823	-2.0931725435191173	13.022974792904412
