26

O	16.103663216361817	42.39160356248625	66.37431552057808
O	15.617517719445509	41.56566878451547	65.61683378622547
O	16.054599871658635	40.29110286371863	65.53063179296319
O	14.366985413340478	41.92217490653577	64.95670063152156
O	14.331544247628868	41.12320157620017	63.733684331523385
O	13.334147408132136	41.52277825994387	65.96263615008743
O	12.196673380110264	41.179477501740195	64.99697719297293
O	11.046595029973863	41.51935569127999	65.80513979769881
O	10.998479249526097	42.71686165744409	66.2483883145963
O	9.802067208281768	40.822470200740796	65.8783455424689
O	9.086107613558662	40.99405762775239	67.04362229071768
O	9.43922302122508	41.951589226452455	67.91452589940647
O	9.634129513791065	41.46055187596136	69.20399611065622
O	9.080889757084059	40.25857534570177	69.4642008568842
O	7.947947019610428	40.14780454602285	68.70593234320566
O	7.7978073510605395	40.63304306135359	67.44264964363019
O	10.428856901469507	39.674473917991435	69.4535006769769
O	10.701572235106392	38.684537421230026	68.5056336641146
O	9.327647867686336	38.349862489773514	68.21058340521327
O	8.871114259200844	38.054249758428014	67.03197714527592
O	8.936992717115324	37.768975293211724	69.50259357552373
O	9.545884117084094	38.25278887336743	70.62282739087928
O	9.521933871645832	37.52631568687145	71.8524693589598
O	8.546172370792283	36.55159629798786	71.87270732811616
O	7.55545166832491	36.77748288856432	70.96700809071564
O	7.671459227179969	37.85243337669068	69.96918551248268
