13

O	10.968206437307142	37.788216339874246	69.84883564316178
O	11.677681239212959	37.70704778002719	70.99985372547114
O	11.181263623348327	37.136502680842916	72.1879490339868
O	10.031572593169019	36.4243871111488	72.1941589476899
O	9.326702080206736	36.552961264096474	71.04994521892623
O	9.665936724145652	37.63157376296892	70.18007975480364
O	11.552376827665398	38.359729831958596	68.7445296743891
O	9.852302858773967	35.13628193610166	72.89873127484584
O	9.429493213882973	33.94442952123233	72.4886066235847
O	9.96801569803845	32.87477138965441	73.12988363967051
O	10.117818748050839	33.53296127570693	74.62281753136203
O	9.602551220959109	35.181364956412125	74.26943886476245
O	9.54388945272261	31.507277692213794	73.1970071939019
