86

O	5.012856798436842	-4.315662139052632	-1.0471907323859648
O	2.7394207184368424	-1.040793339052632	0.6476501176140351
O	-1.3934529515631577	-0.24762495905263204	-0.6510109894259648
O	4.720873898436842	6.189935510947368	1.516314897614035
O	3.698904428436842	3.416058510947368	-0.9249889283859647
O	6.102322758436842	6.057642380947367	1.3712513576140353
O	-0.5187008895631577	-2.801007219052632	-0.4605207483859648
O	4.053389688436842	4.998590780947368	1.5525836176140353
O	4.014460728436842	-3.288165039052632	-0.7493266950859647
O	6.684069088436842	4.818724690947368	1.6793110476140352
O	4.089470908436843	1.568377387947368	0.2183505146140352
O	2.485873468436842	2.995749910947368	-1.2661092873859647
O	0.5284557784368422	2.2013064639473683	-0.25188148838596475
O	0.29039337113684227	1.363408035047368	0.9516383376140353
O	2.8355879484368423	-3.5456196790526318	-1.5335685183859646
O	3.0122798184368422	-3.896100969052632	0.12835555161403522
O	0.6717058694368423	-3.5455822690526317	-0.5227681803859647
O	4.757269348436842	3.947579650947368	0.9625952776140353
O	5.961151208436842	3.634725260947368	1.533513627614035
O	2.741434618436842	1.510155614947368	0.36371808761403523
O	4.241460928436842	2.925321390947368	0.14458917561403528
O	1.9143921184368422	2.563754630947368	-0.09959952638596481
O	0.9734439194368423	0.15812496094736805	0.6751482176140352
O	0.5547755764368423	-0.8204019190526322	-0.11709618238596475
O	2.293563478436842	0.19245044094736796	0.5546635376140353
O	1.7656940084368422	-1.648692599052632	-0.10526105938596475
O	-0.7066514135631577	-1.380494769052632	-0.31601791738596474
O	2.040444018436842	-2.810937849052632	-0.39596132238596476
O	6.723625208436842	2.557629310947368	1.1610582376140353
O	-3.4289929015631575	5.755264880947369	13.651280597614035
O	0.35149986013684226	6.512767840947369	13.588641197614034
O	3.4092536884368423	4.234899810947368	13.947455597614034
O	5.081150018436842	5.156578590947368	10.617325997614035
O	5.410869918436842	1.993282788947368	8.529246607614034
O	4.931371868436842	2.703976650947368	4.939787227614036
O	5.655519118436842	-0.8362798890526317	3.559993077614035
O	6.490237998436842	-4.437041619052632	4.645864667614036
O	4.915928498436842	-7.716590799052632	3.5162330476140355
O	5.389765728436842	-11.395679139052632	4.377588347614036
O	1.7901354984368423	-11.02436913905263	5.564068107614036
O	1.7396666084368422	-7.879112749052631	7.677639887614036
O	2.649911298436842	-4.189410109052632	7.6376748476140355
O	1.4034044284368423	-0.9042302490526319	6.245096377614035
O	1.065486414436842	2.122233736947368	8.541852287614034
O	0.36016437173684224	5.854559180947367	8.008982137614035
O	-3.0516692515631574	7.247218790947368	9.062049507614034
O	-4.585405651563158	7.192271920947368	3.7857983776140354
O	-2.6947974715631577	4.096594850947368	4.088519707614036
O	-3.519411781563158	1.1656152169473681	6.291487867614036
O	-2.8274664715631577	-2.424654369052632	5.466880617614035
O	-3.103480411563158	-4.819238279052632	8.459957057614035
O	-7.427845871563158	-10.884987439052631	-0.41733264838596473
O	-9.892554021563157	-8.276592899052632	0.7635395076140353
O	-5.061040841563158	0.987286584947368	-5.574633202385964
O	-8.491355121563156	1.744379804947368	-4.048961912385964
O	-9.950814521563156	0.31509002094736804	-0.8085810593859648
O	-11.812945321563157	2.9873363209473682	1.1378436676140353
O	-7.758472841563157	-2.089024319052632	5.341687387614035
O	-7.864391921563159	1.5580606819473681	4.510004247614035
O	-6.590874001563158	2.438212520947368	1.0822273476140354
O	-5.813585451563158	5.483397610947367	-0.9488781373859647
O	-2.3201880015631575	6.7377880309473674	-0.22932704138596477
O	0.21632695753684225	6.130107350947368	-2.913643202385965
O	3.220261018436842	8.013987010947368	-1.9445420423859647
O	4.930726978436842	8.643400960947368	-5.3444198923859645
O	7.279075598436842	5.662489150947367	-4.928710042385965
O	7.768755258436842	2.364177530947368	-6.808784932385964
O	2.1509884284368423	-11.068579939052631	-7.919078552385964
O	2.859406628436842	-8.442520549052631	-10.558895782385965
O	6.364810368436842	-7.248598859052631	-9.867426192385965
O	8.313542148436843	-4.080335909052632	-9.173739292385966
O	7.567095648436842	-3.663291039052632	-5.488552622385964
O	3.853559618436842	-3.8315901190526316	-6.109906702385964
O	3.718285478436842	-0.9865646290526318	-8.534110892385964
O	3.4336048384368425	2.429621980947368	-7.105498262385964
O	2.5863142584368424	6.047699870947367	-8.082528002385965
O	-0.19490262556315774	8.207357690947369	-6.610562852385964
O	2.122387588436842	11.23017487094737	-6.163792662385965
O	-0.9879784815631578	7.543482260947368	-11.900321102385965
O	0.6598679014368423	4.110075140947368	-11.579169702385965
O	-1.1806773215631579	1.694074707947368	-9.270861442385966
O	-0.9993510115631576	-2.059977709052632	-8.962518732385965
O	-0.9397045115631577	-3.0919275090526317	-5.290055292385964
O	-1.1387779115631578	-6.514215529052631	-3.3574470123859648
O	-3.884556791563158	-8.980496139052631	-3.6827394023859648
O	-2.168133521563158	-11.51815543905263	-1.4137066893859647
