19

O	39.08693734683262	6.454187017904233	16.164393919395877
O	39.58692529427415	5.638495624067524	15.20400568593873
O	40.650423447320044	5.924087473376049	16.166497831596235
O	41.32687783891567	7.013653432311628	15.672387850008775
O	40.197115896414886	7.632882258915513	16.456016114383214
O	37.916303808661446	5.924004067103446	19.73145422960679
O	39.18689337757621	5.899644482631704	20.48812046361708
O	38.99429709856365	5.788337244743483	21.90175083344505
O	38.09888065795067	4.771167032905003	22.356349657601704
O	36.902288624187264	4.57137340173572	21.480004707920028
O	36.78905630198965	5.78538582796854	20.628512356958826
O	38.65028531137278	5.279106939866016	14.35592388201181
O	37.923995864710754	6.292939480233684	14.64293450617795
O	39.227665355617404	7.038536285737349	14.08344104594162
O	39.63193049242436	6.432961158170904	12.876497515669168
O	38.84605212194669	5.369621338034403	13.029995563959568
O	38.077488445138556	6.054506344443634	17.11023355014648
O	37.39250782690433	6.070115147211477	16.035480291318983
O	37.81689128229916	6.469021759987608	18.426806935795675
