79

O	-3.5707861978214286	-4.106467029596429	1.1241911263214281
O	-1.2806131318214289	3.263094000403571	-0.726734258678572
O	-1.2319981518214287	-4.054795199596429	1.306226576321428
O	-2.2270296238214287	4.285174860403571	-1.111245324678572
O	-2.106402762821429	5.593653540403571	-0.726341598678572
O	-2.943019317821429	6.542078560403571	-1.306569800678572
O	-4.222854057821428	6.140265070403571	-1.6827122936785721
O	-4.435815937821428	4.8066979704035715	-2.025716483678572
O	-3.405969257821429	3.9421346404035713	-1.772235363678572
O	-1.6769606958214287	2.0049326024035716	-0.456877238378572
O	-0.8907639218214287	0.9012048224035714	-0.07231352667857205
O	-1.5813250258214289	-0.3417352395964286	-0.287079038678572
O	-1.1108279818214288	-1.6143396995964288	-0.22670221667857204
O	-2.190073353821429	-2.4695012095964284	-0.025020893678572076
O	-2.263955709821429	-3.820884459596429	0.5883646863214279
O	-4.684680927821429	-3.626249009596429	0.3824879103214279
O	-4.689637947821429	-2.2367916195964286	-0.17252654267857204
O	-3.3106836178214287	-1.7360774395964287	-0.305299525678572
O	-2.932004437821429	-0.45023981959642856	-0.23212882467857204
O	0.4648598621785711	1.1122979430035713	-0.27250422667857205
O	0.8981796421785713	2.438328680403571	-0.302577854678572
O	0.0706510621785712	3.4485146004035716	-0.6950552166785721
O	-1.6585935248214287	5.788192010403571	0.5505581763214279
O	1.7436107221785713	7.217363290403571	13.251972856321428
O	-1.2080553068214288	9.322162410403571	11.958615356321427
O	-5.293409027821429	9.15292174040357	7.947278556321429
O	-6.459805827821429	5.945890980403571	6.269729006321429
O	-5.033332817821429	5.448014140403571	2.8443648463214277
O	-6.812196687821429	2.233938660403571	1.8806232363214277
O	-9.283983097821428	-0.3963362995964286	3.177246096321428
O	-9.06537544782143	-4.219695309596429	3.0475590563214277
O	-8.181651097821428	-7.831847279596429	6.335646026321428
O	-7.259737797821429	-4.528483749596429	7.966464146321428
O	-6.480036357821429	-0.8983748995964287	7.172262946321428
O	-3.6676341678214284	1.2160066654035713	5.732997226321428
O	-2.604722337821429	4.404911260403571	7.5704420263214285
O	-0.28960589782142887	7.331942980403571	6.738656556321429
O	3.0570594621785707	7.561968450403572	8.635627216321428
O	5.646898612178571	5.705253600403571	4.227041526321428
O	2.5250273421785714	3.5689200004035717	4.2471888463214285
O	1.5091092421785712	1.2251669504035714	7.008080816321428
O	-0.45725045982142876	-1.9513294795964284	6.456485696321428
O	-1.8557774658214288	-3.4350786895964287	9.789927356321428
O	1.2964082521785711	-12.72239455959643	3.4866029563214282
O	4.326365412178571	-10.996347259596428	4.9967508563214285
O	5.883968792178571	-4.7969925195964285	-6.666611793678571
O	5.464852292178571	-2.501348239596429	-3.672481053678572
O	8.433192182178571	-2.5950681995964286	-1.295190661678572
O	8.338439772178571	-3.650647849596429	2.382089716321428
O	10.705805212178571	-1.4719482495964284	4.421133016321428
O	10.219617812178571	-3.231740249596429	7.740064596321428
O	4.048354432178571	-3.499255509596429	7.800738876321429
O	5.878357702178571	-0.4484049895964286	6.579684616321428
O	5.873620182178571	-0.025181709596428625	2.825493046321428
O	6.935497082178571	2.527143870403571	0.289318906321428
O	4.399894802178571	5.218484690403571	-0.27656247867857203
O	2.390150482178571	4.899212070403571	-3.503588113678572
O	0.3005766521785711	8.031752590403572	-3.828073983678572
O	-0.16507315782142884	8.195795490403572	-7.585970113678572
O	-3.594381147821429	6.533858120403571	-7.438102383678571
O	-4.9513808478214285	3.259133560403571	-8.874692983678571
O	-4.321148287821429	-9.205740259596428	-9.522553933678571
O	-7.022452157821429	-6.673995009596429	-10.213299763678572
O	-7.531027457821429	-2.9415633495964286	-10.669051243678572
O	-7.635917047821429	-1.8829323095964285	-7.050027233678572
O	-4.275626187821429	-3.612428139596429	-6.353668153678572
O	-2.3395139918214287	-1.7265541095964287	-8.99392023367857
O	-1.0428055598214288	1.6594999474035714	-7.860985323678571
O	1.4172993421785713	4.322439540403571	-9.033084333678572
O	4.434434482178571	5.622757120403572	-7.131330793678572
O	3.586351362178571	9.290039830403572	-7.876016443678572
O	6.053904502178571	3.4328092304035716	-11.778418943678572
O	3.1194582221785714	1.0231511858035713	-11.511880143678571
O	3.2535182021785714	-1.3425028195964288	-8.504817553678572
O	1.371434172178571	-4.509348149596429	-7.642152483678571
O	0.042870962178571226	-4.502497649596429	-4.023328263678572
O	-1.7152335248214288	-6.921932719596429	-1.6131153736785722
O	-0.31109655782142887	-10.386350859596428	-0.899223544678572
O	-3.397847967821429	-11.444217959596429	1.0380613463214279
