87

O	2.925169084709091	-0.5507087644290908	-0.6322523934127277
O	2.662186864709091	0.42163564157090916	0.24634756958727233
O	1.3724904847090909	0.35199671057090914	0.7914483905872723
O	1.236186464709091	-0.9417613744290908	0.6194034505872724
O	1.692139324709091	-1.046195152429091	-0.6613614466127277
O	0.21741857770909095	-1.7942411024290907	1.0418656905872723
O	-0.931276595290909	-1.2925837824290909	0.6235575805872723
O	-2.074270155290909	-1.9899228924290908	0.4139002005872724
O	-2.056428985290909	-3.3090995524290907	0.6285897405872723
O	-1.050107249290909	-3.786350772429091	1.4152958505872726
O	0.14334373770909098	-3.038412262429091	1.4689432705872725
O	-3.366367345290909	-3.909182382429091	0.4858962105872723
O	-4.36494234529091	-3.077458942429091	-0.12659332341272767
O	-4.593146665290909	-1.9483343324290907	0.7773917105872724
O	-3.316236665290909	-1.1713579124290907	0.7917025205872724
O	-3.323382195290909	-5.049504792429091	0.01828042158727239
O	0.586222396709091	1.2954026575709092	1.4482907905872726
O	4.3654781447090905	-0.5095149704290908	-1.0155225304127276
O	4.98614136470909	-1.2004420624290908	-0.01825502541272761
O	5.462974294709091	-2.5242513124290906	-0.09949054841272764
O	6.308016834709091	-2.610802582429091	-1.1627107224127275
O	6.41333874470909	-1.4528439624290908	-2.0042904294127277
O	5.0290998647090905	-1.0618211324290907	-2.1175607394127276
O	4.078464394709091	-3.018397862429091	0.13440930158727238
O	3.214973714709091	-2.751099332429091	-0.8192920569127277
O	2.571744304709091	-3.398274222429091	-1.9172470294127275
O	1.323215474709091	-3.537550772429091	-2.127584709412728
O	0.811219990709091	-4.194509482429091	-1.0387430304127276
O	1.6565996547090909	-5.213649682429091	-1.3720946644127276
O	3.175229804709091	-4.654578602429091	-1.6918987614127277
O	3.2541363747090912	-5.103509172429091	-0.3036157404127276
O	3.175313124709091	-3.9760427624290906	0.49643483058727245
O	3.783804244709091	11.71310057757091	-9.368854969412729
O	2.5793330947090913	8.284820667570909	-10.547523429412728
O	5.2735419147090905	5.639228037570909	-11.318298699412729
O	5.02643409470909	2.180166447570909	-12.931954399412728
O	6.589581304709091	0.20440384257090916	-10.029340259412729
O	4.013316294709091	-2.320819652429091	-8.905519469412729
O	4.21254735470909	-2.9088669024290907	-5.332133019412727
O	1.514833624709091	-5.748977392429091	-5.110633099412728
O	-1.085486518290909	-7.806727152429091	-6.9929784394127275
O	-4.74367923529091	-8.51002131242909	-6.044378439412728
O	-6.404834555290909	-4.582025002429091	-9.113054609412728
O	-2.810542245290909	-3.4706715624290907	-8.609888219412728
O	-0.713670199290909	-1.3175107524290908	-6.253481589412727
O	1.7791050447090908	1.1904762875709092	-7.6256938894127275
O	4.48611815470909	3.468381007570909	-6.1982312694127275
O	3.862225584709091	7.254941537570908	-6.041485219412728
O	5.221578604709091	10.483432877570909	-4.518842869412728
O	6.328909064709091	8.431006227570908	-0.7314812161127277
O	2.8205242747090913	6.851468527570908	-0.6567576720127276
O	1.1422353547090909	3.789125797570909	-2.0441271694127274
O	-1.532880995290909	3.541255267570909	-4.469487139412728
O	-4.318047695290909	1.1304046975709092	-4.787898659412727
O	-6.38500221529091	1.1287597775709093	-8.024385889412727
O	-14.17365075529091	-1.4130510624290908	0.20116440258727242
O	-13.27242005529091	2.2653782975709094	0.25407008358727234
O	-3.1987588252909087	1.0013979875709091	6.9802265905872725
O	-4.226331535290909	4.634439127570909	6.551352890587273
O	-6.096755825290909	6.091128887570909	3.552412120587272
O	-4.7728781452909095	9.53147712757091	2.7534310805872724
O	-7.1700897952909095	10.347578977570908	-0.052656591412727605
O	-6.655476755290909	5.181952787570909	-3.2971930394127273
O	-3.647283935290909	6.747546127570908	-1.6958153554127278
O	-2.4004557952909087	5.035901577570908	1.4200157705872725
O	0.49615508370909095	5.318469297570909	3.7952421105872727
O	3.600965834709091	3.529352497570909	2.6118948505872726
O	4.14710447470909	0.10710012697090915	4.3232153205872725
O	7.381793004709091	-1.399755712429091	3.0320402505872726
O	8.641060284709091	-3.2858456824290907	6.151516220587273
O	7.418507714709091	-6.575052092429091	4.644582270587272
O	4.771645804709091	-9.121098582429092	5.761603540587273
O	-0.510835424290909	-13.536498822429092	6.708543370587273
O	-0.28083501729090904	-11.736684422429091	3.358961940587273
O	-2.476966295290909	-8.858295072429092	4.650430270587273
O	-0.362237804290909	-7.983456732429091	7.692726700587273
O	2.522017124709091	-5.587199812429091	6.984289970587272
O	5.063359884709091	-3.3848148224290906	8.736746980587272
O	5.533432554709091	0.34502427157090915	8.361444220587272
O	9.339508314709091	0.04017223477090915	7.969498770587273
O	4.2777953947090905	-0.8757252244290908	13.466443700587272
O	2.208577274709091	-3.788967262429091	12.149159000587272
O	-0.778513486290909	-2.836855382429091	9.960983400587272
O	-3.795989925290909	-4.745199162429091	8.644174700587271
O	-4.348885445290909	-4.2122227024290915	4.870467790587273
O	-7.083238225290909	-5.110526552429091	2.3059240705872726
O	-10.79026405529091	-4.351022072429092	2.8095322305872723
