83

O	-2.3153059677592593	-3.8715511164168515	-0.6504263028518528
O	-3.027330867759259	-2.9917589564168514	-0.3346838798518528
O	-3.1887834577592593	-2.028892456416852	0.6931742761481472
O	-4.412367947759259	-1.2641408434168517	0.2255069961481473
O	-3.7741662577592594	-0.1330046534168517	-0.48135826085185285
O	-2.4739438477592595	0.16630528758314833	-0.6988280318518528
O	-1.5653977667592593	-0.3435712194168517	0.0192561261481472
O	-1.7831086497592594	-1.4922280864168518	0.28529342614814723
O	-0.18902651875925935	-0.2726028944168517	-0.23923466985185282
O	1.0656013422407407	0.011581866583148304	-0.7283145408518528
O	2.2656587522407405	-0.4243063423168517	-0.9882441978518528
O	2.1024311122407404	-1.7293648264168517	-1.064721685851853
O	1.3052039022407405	-2.416103616416852	-0.22716782085185283
O	0.39958886224074064	-1.5130508474168516	0.23818930614814726
O	0.8238232722407406	-3.6713190664168516	-0.23523274985185283
O	-0.34658759575925935	-4.425391166416852	0.07668794614814711
O	0.29162525224074054	-5.824272076416851	-0.23309472185185276
O	-0.29120641875925934	-6.802693376416852	-0.9999943328518528
O	0.7979997722407406	-7.575663226416852	-1.4545918308518528
O	-5.018975437759259	-2.114867876416852	-0.6646212598518528
O	-4.101789767759259	-2.4066872664168515	-1.825564694851853
O	-2.886573457759259	-2.1253491364168515	-1.5236764078518528
O	-1.4038574017592593	-2.1406561064168517	-1.8381390428518527
O	-1.5198658357592594	-3.442810346416852	-1.6979975308518527
O	-0.5851033207592594	-4.261615686416852	-2.6370645738518528
O	0.8131835222407406	-3.9273135664168515	-2.928294033851853
O	0.8204636822407407	-2.466223806416852	-2.938485443851853
O	-0.4777902947592594	-1.7685475364168517	-2.795249173851853
O	-0.9563770107592594	-0.6121881577168518	-3.039454263851853
O	-8.689190877759259	3.926327213583148	-12.321798153851853
O	-7.950613397759259	0.3060317995831483	-13.339550853851854
O	-8.514993397759259	-1.2912354464168518	-9.908301533851853
O	-5.324320677759259	-2.9804626264168514	-8.935723773851853
O	-4.815213237759259	-2.6927304264168517	-5.240028113851853
O	-1.8904722797592592	-4.957086536416852	-5.342751313851853
O	1.0090974222407407	-6.787932476416851	-7.170354943851853
O	4.78762769224074	-6.6708212364168515	-6.883241433851852
O	8.409419202240741	-4.836854286416852	-9.733020113851854
O	5.159343632240741	-3.3237976664168514	-10.950306483851854
O	1.5334324122407406	-2.7658394664168515	-10.063389753851853
O	-0.5605935597592594	-0.5183345141068517	-7.789139583851853
O	-3.7246793077592595	1.0966791035831482	-8.828326443851854
O	-6.54380823775926	2.9960260335831483	-7.182844703851853
O	-6.777234057759259	6.750644903583148	-7.7569645238518525
O	-4.817218547759259	7.547003773583148	-2.783390143851853
O	-2.6750286877592595	4.705743173583149	-4.0167308138518525
O	-0.4302668537592593	4.803610943583148	-7.049405373851853
O	2.6789007422407405	2.6336353435831485	-7.164410173851852
O	13.339021702240741	3.0463257435831483	-4.057661323851853
O	3.5227276522407407	4.695965213583149	4.376797126148148
O	3.6310574722407405	8.313655853583148	3.151088306148147
O	4.649490192240741	9.461108263583148	-0.3612255238518528
O	2.4646403122407405	12.414042093583149	-1.4082052678518528
O	1.3250722922407405	8.672084563583148	-5.100542133851853
O	0.9468907322407407	7.437751333583148	-1.5576385628518528
O	-1.5612288177592593	7.494566063583148	1.2515103161481473
O	-4.190488377759259	4.699027553583148	0.8791590761481474
O	-3.855262597759259	1.9577493035831486	3.367763326148147
O	-6.678110117759259	-0.4892961290168517	2.761048276148147
O	-7.029035337759259	-1.9349803464168516	6.164249996148147
O	-5.398300527759259	-5.1161029064168515	4.980417546148146
O	-2.273901797759259	-6.846109366416852	6.142700556148148
O	-1.2769954857592594	-7.268295426416851	9.674770146148147
O	10.272550402240741	-6.540294426416851	6.480953726148147
O	7.677967892240741	-9.29178138641685	6.262763106148148
O	3.926872282240741	-9.843323666416852	6.670067906148148
O	2.8647169222407407	-8.721928856416852	3.322821536148147
O	4.692365682240741	-5.347186346416851	3.815613196148147
O	2.8021519522407408	-4.3888140764168515	7.030261096148147
O	-0.6278097407592593	-2.7791795964168515	6.325977016148148
O	-3.2458293077592595	-0.8491999694168517	8.146799836148146
O	-4.640824587759259	2.6121677235831484	7.4491170961481465
O	-8.25962865775926	1.3982639135831483	7.724502076148147
O	-10.413732037759258	-1.6188301964168517	8.662795896148147
O	-6.14080654775926	1.7024103435831486	12.452291046148147
O	-2.4263174177592592	2.5721586735831483	12.304327046148147
O	0.03866654224074062	-0.0533738844168517	11.067749446148147
O	2.401829782240741	1.0483100635831484	8.274262706148146
O	5.628689502240741	-0.4249349400168517	6.890784006148147
O	5.6834112722407415	-0.4903740230168517	3.0334772261481473
O	7.839327582240742	-1.3908905074168518	-0.04146207385185274
O	11.256334902240742	0.09762827658314832	-0.39300941285185276
O	12.190298302240741	-2.1689265364168517	-3.284646103851853
