19

O	37.90176012497564	4.043692343620758	15.858530625819908
O	38.30405709842775	4.863921499081135	14.737668407072102
O	38.91599524539232	6.0840184714468455	15.053376190040929
O	40.229327626294555	6.357391480550197	14.959199097948435
O	40.936728691577734	7.421704164506519	15.656225907181671
O	40.26860772393335	7.911174024941767	16.728646515732233
O	40.767911694029394	8.720174492307232	18.158547511425887
O	39.676675254654704	7.999782879895695	19.256956760049
O	39.64819739889412	8.236888336060893	20.653336477749857
O	40.140530680368336	9.376224810170996	20.96730503605053
O	38.6122373451361	7.847746759192789	21.496918989279393
O	37.774387538893436	6.694493581272203	21.577025092949526
O	38.30380856827803	5.884249639183669	22.711304040928106
O	39.12945610469718	6.66805938055134	23.58521021672876
O	37.72354324462922	5.794649845858474	20.410361039746938
O	37.88271529630664	6.334240708558046	19.102886419105754
O	38.80393670229646	7.28524176828429	18.496416585240233
O	39.16266407987584	7.302428888124871	17.15321496780275
O	38.36177982338224	6.579729118242495	16.22802511697842
