84

O	1.7458319692830186	-4.905420658914339	0.023834972698113244
O	0.9679878192830189	-3.8746539189143396	0.6627714326981132
O	0.4930496382830189	-2.83903872891434	-0.12979351850188675
O	0.7938279492830189	-2.9463141789143403	-1.5570989973018867
O	1.1573046792830188	-4.07702185891434	-2.166119937301887
O	1.6035605792830188	-5.1180890589143395	-1.3170798373018868
O	-0.23705378771698107	-1.70036841891434	0.16846822969811323
O	0.19907542828301888	-0.94844876691434	-1.0181640183018867
O	0.6985393092830188	-1.61006953891434	-1.9858117773018866
O	-0.789990281716981	-1.11814043791434	1.3197162126981132
O	-1.0000565987169812	0.41554879608566	1.5645711326981133
O	-0.44471830841698107	1.10343896108566	0.2526581106981133
O	-0.2260214077169811	0.46969050108566	-0.9213584523018867
O	0.5387536102830188	1.38004585108566	-1.3264058773018867
O	3.170461519283019	-4.31112548891434	-0.12715802740188675
O	3.4570543692830187	-4.44304733891434	1.0676105926981132
O	3.234488409283019	-3.0859891189143402	-0.9112756763018868
O	3.255026269283019	-1.84925978891434	-0.3695707253018867
O	3.2215972392830188	-0.48806755191434	-1.1157623843018867
O	2.088263699283019	0.52252427808566	-0.08427849090188676
O	2.061369559283019	-0.46145823791434004	1.0038861526981133
O	2.220774849283019	-1.38730118891434	0.11319081069811324
O	1.5711847592830188	-0.59243285591434	2.433137242698113
O	1.257076689283019	-1.79912912891434	3.1905860326981133
O	1.2994068892830188	0.38906021508566	3.153317862698113
O	0.4875815622830189	-1.99279011891434	4.440517582698114
O	-0.3160523102169811	-3.2091783589143397	4.665114822698113
O	-0.4249667120169811	-4.11473940891434	5.6763196726981135
O	-0.32903502441698107	-5.522629208914339	5.525093312698114
O	-0.899388982716981	-3.8058163289143403	6.978874622698114
O	-1.768217980716981	-1.59664019891434	2.320749572698113
O	15.28329122928302	2.70142058108566	-1.2481007673018867
O	15.37092252928302	0.38697417608566	1.8090535226981133
O	12.86095562928302	-2.21121091891434	0.5516925926981132
O	9.95601432928302	-2.31037823891434	3.021069222698113
O	6.71347703928302	-2.8851653789143397	1.2232581626981132
O	4.6716590392830195	-3.2489747989143396	4.404188142698113
O	4.379958979283019	-2.7346073289143398	8.192684932698112
O	1.9481864092830188	-0.84322317591434	10.354632082698112
O	2.267300519283019	3.2144687810856603	13.178729282698113
O	5.286642489283019	3.1712274710856603	10.885003482698112
O	6.731048149283019	1.54463796108566	7.799554342698113
O	6.361666459283019	1.6577813410856599	4.048246412698114
O	9.28710284928302	1.74980903108566	1.6392757126981132
O	9.84116982928302	1.46446481108566	-2.1267552573018866
O	10.68683542928302	4.60065271108566	-4.086583717301886
O	5.630337929283019	4.80333951108566	-5.959341347301886
O	5.021652209283019	3.7615254410856602	-2.322430397301887
O	6.12176747928302	5.82166829108566	0.6679508186981132
O	4.254698009283019	5.69865704108566	3.910150742698113
O	-4.60829090071698	10.45228564108566	8.784997782698113
O	-5.2565860307169805	4.440748291085661	-2.830746247301887
O	-1.8231528207169811	10.25041974108566	-2.346444617301887
O	0.5386888072830189	11.880949541085661	-4.8435620173018865
O	3.853494239283019	9.32751515108566	-1.4552514073018867
O	1.1795366092830188	7.07949203108566	-2.827348467301887
O	0.4703241862830189	5.03261856108566	-5.871857407301887
O	2.0981620092830187	1.69977226108566	-5.919139767301886
O	-0.24153982571698107	-1.15512565491434	-5.2571273473018865
O	1.7898219492830187	-4.2928417589143395	-5.751896417301887
O	-0.9286726137169812	-6.73377060891434	-6.797436767301886
O	-1.3220982157169812	-8.28299938891434	-3.3673917973018868
O	-4.258735510716981	-8.42086190891434	-0.8397138533018867
O	-7.731412320716981	-9.21752402891434	-1.8407175773018867
O	-11.800881070716981	-2.03398863891434	6.705379662698114
O	-10.30143777071698	-5.48478496891434	6.766693382698113
O	-8.40388224071698	-7.92145986891434	4.573247612698114
O	-4.944986400716981	-6.55039172891434	4.997369432698114
O	-6.105256450716981	-3.05916654891434	3.9569431026981134
O	-7.55295291071698	-4.08991245891434	0.5851300476981133
O	-5.05792424071698	-4.35096086891434	-2.273232547301887
O	-4.70664292071698	-4.563022478914339	-6.036968447301886
O	-2.9916067007169813	-2.15053477891434	-8.406510037301887
O	-1.1984678467169811	-4.95647235891434	-10.267305017301888
O	-0.9160042287169812	-8.77402492891434	-10.519416817301888
O	-6.219235270716981	-5.06851952891434	-11.562560917301887
O	-8.24779711071698	-2.5120640689143396	-9.607095567301887
O	-8.92230533071698	-3.1055238189143397	-5.894879537301886
O	-8.025868930716982	-0.22582475745434	-3.539858497301887
O	-8.828092740716981	0.52462450008566	0.11578149469811325
O	-5.919751040716981	1.64600878108566	2.242310382698113
O	-4.857112580716981	2.9712278510856596	5.6659043826981135
O	-6.526671130716981	5.95367004108566	7.173059942698114
O	-4.907349180716981	5.34737545108566	10.547365882698113
