22

O	36.67375525725489	6.883454640724247	23.119396583259878
O	37.63266187299948	6.390592068726356	21.005604942513123
O	40.683268642056575	7.630288924805918	18.29698137083515
O	37.87367915570474	6.60279800931232	22.354693974138748
O	38.271924953940086	6.368120207304807	17.46175726742159
O	40.05292237436572	8.557625665536843	20.878189197594345
O	38.64618994828384	7.789825558764622	22.934336189969038
O	38.548421648515244	5.454416397521181	13.373676132370301
O	38.97915717378186	7.516232234470756	24.265251484242057
O	39.573236501247976	8.442487967869127	25.114294637527053
O	38.903737747005586	9.65968681464351	25.038072977595995
O	38.864135039640374	10.071454254578706	23.70095282037143
O	38.14290742269727	9.098717004085037	23.006645749008978
O	38.284716862611695	6.897048121840899	20.031730707096465
O	38.65158211760076	6.459026856722468	18.66347051058614
O	39.95597899319275	6.918170294440193	19.082785296734137
O	39.613927536379975	7.481559499863123	20.32393653534745
O	38.405508465650975	5.795164943913858	16.27396776441071
O	38.3908099543877	4.495682991103225	15.642725027941289
O	38.7622256033599	4.468094220390984	14.230934943219955
O	37.41642430313578	5.9009859073731565	13.99435327770098
O	37.20556907173398	5.898619700890174	15.42765441309296
