29

O	35.70533128785689	3.5133488812090214	17.033089534600407
O	35.87069236705001	3.4120515520902	15.874166955089217
O	36.848454254604995	2.984790924369298	14.940838892862358
O	36.16859960136216	3.2658506153333855	13.614369964045515
O	36.719922086346855	4.601907436365351	13.302240731956443
O	37.57153848177076	5.399515725131614	13.984903452692656
O	38.323289189829225	4.921653363849552	14.883565418208653
O	37.772778874043944	4.085845754537054	15.543830898226728
O	39.08658267840511	5.672514082971448	15.789017260035981
O	39.74168102320605	6.663262014094172	16.48422648308653
O	40.14078134446107	7.110566004067066	17.64109199760002
O	39.34618712984247	6.495029724747785	18.492799012064843
O	38.989768196423775	5.205270799138487	18.35802021349727
O	39.130870333535576	4.923489468520122	17.034052831519947
O	38.05658481776785	4.440520422744346	18.951049574948286
O	37.11877822406941	3.400846434145199	18.676499683726078
O	36.6530947616796	3.224925057457757	20.163893149890605
O	35.34518626802195	3.160024813382536	20.57656655696144
O	35.392155586165565	3.5627302246931194	21.927911677781395
O	34.836074986167255	3.3509565692156906	13.932446323186115
O	34.59510357314078	4.481835642133505	14.900549142851201
O	35.689171690305365	4.824109545394205	15.477525651437414
O	36.444888301560376	5.618452514103024	16.524177267973702
O	35.80944045100523	4.848584061708451	17.379871056736473
O	35.44979188081672	5.559761908920818	18.7181344953412
O	36.33801478098721	6.469256379342226	19.4500214326484
O	37.0589811590706	7.169904336299839	18.38971955373433
O	36.65780104265391	6.9030767688230785	16.98950894136658
O	36.77959949721697	7.466727651280499	15.852270530745466
