27

O	38.59858619901504	6.965080430219706	22.97351299051501
O	38.54057011038437	7.279410424535917	21.51887138326314
O	38.24753613178634	6.126621994103685	20.738793367227135
O	37.915632194506514	6.154494760332558	19.293167105508026
O	38.67240879058252	6.726072676201197	18.209009201020486
O	39.739792884916085	7.474246051058678	18.49640533304994
O	40.51102189327228	7.89153031502195	17.062372198022956
O	39.57998374588948	6.954887394770871	15.993049422175517
O	39.511360407670594	6.739926817910839	14.611749543898316
O	38.710157827943114	5.720070327731929	14.00416512644895
O	38.17269954005415	5.035794041962687	15.141757720765323
O	37.53659301962917	4.009426441443349	14.573226573695916
O	36.40863324276572	3.6882740410945365	15.140352931033968
O	36.25631006170842	3.80142023259834	16.46281813242935
O	37.09078134247086	4.747281178381311	17.068883250030392
O	37.64747603146161	5.6491675155086725	16.23351152257008
O	38.61644204705402	6.471665859588592	16.8232077288942
O	35.41472428528145	4.203618476251254	14.148742019114806
O	35.736034383609876	4.146796111322734	12.858010011138093
O	34.87200772570536	3.212335396256424	12.118642815513514
O	33.82013464067813	2.534211602919128	12.61016394566327
O	33.611924369404	1.067555507430236	12.894344796459308
O	33.39398972424692	3.227707911290853	13.685484003152773
O	34.34734694797099	3.5585505196527216	14.570512376476952
O	40.18809646044552	8.079006862914813	19.783374907419766
O	40.648713772273915	9.243513753098263	19.537073856603374
O	39.82871429785861	7.789681953945154	21.1615791408288
