81

O	1.1233666758443392	-1.2996429006943402	0.7949611662622635
O	0.1525054158443393	-0.5249580996943403	0.3240118862622636
O	-4.58062585415566	2.9138392993056597	-0.42124217873773645
O	-3.3303981341556605	-1.96010202069434	-2.913927083737737
O	1.8079659758443392	-1.89763900069434	-1.3759773227377365
O	1.7430512258443394	-2.3041986206943403	-0.1390526317377364
O	-0.6088103771556608	-3.28974032069434	-2.8361472937377368
O	0.6624701858443391	-0.9184196906943404	-1.8249610717377365
O	1.8084329358443394	-1.2575111806943402	1.9093063662622634
O	-0.29843894415566075	-0.9796340506943403	-0.7707121317377364
O	-1.6204310934556607	-1.21704770069434	-0.9102258902377365
O	-2.5242247301556606	-0.5364465796943403	-0.1164124597377365
O	-0.5241653441556606	-3.39261261069434	-4.9483016737377366
O	-1.6485857962556607	0.5502059023056598	-0.2775379127377364
O	-2.4761756051556607	1.6120353293056597	-0.4498246427377365
O	-3.698702234155661	1.9174214893056598	0.1440037162622636
O	-4.5090978641556605	0.7689327173056597	0.30800756626226344
O	-3.8523062341556606	-0.41502934169434025	0.15203027626226362
O	-2.7270893541556607	1.8550675593056598	-1.9597002937377364
O	-3.8758486541556607	2.1277135993056597	-2.5700140037377364
O	-4.173385034155661	1.4560244393056598	-3.7828360437377366
O	-2.321858105155661	0.44456911730565973	-1.7622990257377364
O	-3.5497618241556608	-0.17524105969434026	-2.6098442237377366
O	-3.790590534155661	0.10519981320565974	-3.859708103737736
O	-2.8754789541556605	-0.8035139456943403	-4.477548103737736
O	-1.9195334811556608	-1.4222138706943401	-3.590957283737737
O	-1.0406280081556607	-2.6585507806943403	-3.8664035537377366
O	-1.6127524090556606	-3.7376635506943403	-5.916100453737736
O	3.099668215844339	13.69092874930566	-3.338767143737736
O	0.6879799458443394	12.84924554930566	-6.238812243737736
O	1.1675779458443392	10.85808684930566	-9.465127543737736
O	-1.6693621608556608	8.275281389305661	-8.821035663737737
O	0.015045395844339282	4.92400248930566	-8.768290303737738
O	-1.7476709041556608	2.7065036293056597	-6.369243313737736
O	0.43493660584433935	-0.2617473816943403	-7.224192173737737
O	3.2932497758443393	-1.9565148306943403	-9.185974453737737
O	5.946802995844339	-4.368726340694341	-7.9120220337377365
O	10.731261415844338	-3.7816035006943403	-6.9438710737377365
O	9.287499315844338	-0.2850049076943403	-7.350979293737736
O	6.002528395844339	1.6159496193056597	-7.334898213737736
O	3.407650795844339	2.91990440930566	-4.935671323737736
O	1.8996425958443395	6.36482273930566	-5.137759383737737
O	-1.0126043651556609	8.20209605930566	-3.4899260637377365
O	-0.11278921415566079	10.96858154930566	-0.9719447046377365
O	-4.435030864155661	10.17480224930566	3.0247228362622636
O	-1.4904664143556607	7.6950785093056595	3.092953316262263
O	0.3475888558443392	5.36658607930566	0.6993224762622636
O	3.8450889058443396	5.539009939305659	-0.41311742173773647
O	6.16954702584434	2.73164977930566	-1.2655008827377365
O	12.102559815844339	-5.28009389069434	3.660663026262264
O	11.725888115844338	-2.15339861069434	5.7172232662622635
O	-0.1781433241556607	-2.97369568069434	6.900042146262264
O	1.2799700858443395	-0.24591514769434028	9.073737276262262
O	4.408058935844339	1.8227976593056598	8.395085686262263
O	3.939281355844339	5.409080229305659	9.499130956262263
O	7.899894065844339	4.2602632993056595	2.9792328762622633
O	4.7414073558443395	5.83552428930566	4.208789026262264
O	2.0044374858443392	3.32367704930566	4.983607366262264
O	-1.5841664500056607	3.37132112930566	6.059892766262264
O	-3.967003094155661	3.6981346893056597	3.4008366062622635
O	-5.670296684155661	0.20631402030565973	2.640889306262263
O	-7.70493358415566	0.8794022113056598	-0.3169833797377365
O	-10.686461014155661	-1.5644362806943402	0.11344318226226358
O	-9.319462644155662	-3.7344110006943403	-2.6437578037377367
O	-7.886387594155661	-7.312678980694341	-2.6120585537377368
O	-4.06237000415566	-13.218487350694339	-2.8912570437377365
O	-2.5428518911556606	-10.16578325069434	-4.317093873737736
O	-0.9161523211556607	-9.07121042069434	-1.0865126027377365
O	-4.04428468415566	-9.34112716069434	1.1026696562622635
O	-6.05799652415566	-6.14678396069434	1.1770312462622636
O	-8.841606694155661	-4.38614811069434	3.0186174662622633
O	-8.69128916415566	-1.14742357069434	4.981754786262264
O	-11.85496118415566	0.21272838810565975	3.3303336862622634
O	-10.001900934155662	-5.16271527069434	8.264869326262263
O	-7.879152354155661	-7.47339388069434	6.121648396262263
O	-4.127824314155661	-6.668012700694341	6.044138396262264
O	-1.0846154961556609	-8.488521900694339	4.756641086262264
O	1.1041358158443393	-6.270531140694341	2.4732710962622635
O	4.609394415844339	-6.780717160694341	0.7995471662622635
O	7.649289525844339	-7.65363363069434	2.8177106162622634
O	9.76939871584434	-8.00905649069434	-0.3030085487377364
