81

O	-7.6467313625925915	3.8434692804148147	-3.8860816202037034
O	-7.687835202592591	2.755181710414815	-3.0628059302037034
O	-6.823019212592591	2.7160003404148148	-2.025326130203703
O	-6.416417072592592	4.354915880414815	-4.169828810203703
O	-5.341427122592592	3.815859390414815	-3.4707598002037034
O	-5.588503882592592	3.2122893504148147	-2.2524399802037034
O	-4.584476712592592	2.853193450414815	-1.3612655732037031
O	-3.3829199525925917	3.3914727304148147	-1.703842160203703
O	-3.2845925025925915	4.255935040414815	-2.7467915002037033
O	-4.2521606525925915	4.5707160504148145	-3.5636379302037033
O	-2.139385722592592	2.767390250414815	-1.3229817132037032
O	-1.2179070925925917	2.803820280414815	-2.268431540203703
O	-0.02441605259259161	2.1960552404148146	-1.9015436702037032
O	0.007961647407408456	1.196018679914815	-0.9209222802037031
O	-0.9049694925925917	1.347150349414815	0.07717810279629683
O	-2.145190377592592	1.7854982524148149	-0.39711878077370316
O	-1.4297665965925916	0.28555984541481483	0.962531109796297
O	-0.5287594725925917	-0.6234348895851851	1.418187639796297
O	-2.235936434692592	0.36285635641481484	2.0553420697962967
O	-2.0816292565925916	-0.6240461095851852	2.8982102797962965
O	-0.7646283025925917	-0.9536990595851851	2.782512369796297
O	-0.1107456225925918	-1.890435849585185	3.669144119796297
O	-3.316773232592592	-2.5417326495851853	3.9280504697962964
O	-2.956542583592592	-1.0934584295851852	3.943320119796297
O	-0.6646088325925916	-2.545436619585185	4.573035009796297
O	-4.613335372592592	-2.6784387595851853	4.587526109796297
O	1.2831462474074082	-1.8000008395851852	3.7885950097962966
O	1.5255290274074085	15.022430020414815	3.7169301097962966
O	-1.3941927845925917	14.218591320414815	6.061620279796297
O	-3.446757262592592	12.134260120414815	3.5836143597962966
O	-3.8873485125925917	8.632419520414814	4.953978429796297
O	-3.8606779025925917	5.978298560414815	2.2045672397962965
O	-4.598472652592592	3.052568200414815	4.586025219796297
O	-5.086579972592592	1.9049911684148149	8.221992139796297
O	-3.4932104625925917	-1.0204496095851852	10.079995629796297
O	-0.12529376259259184	-1.445084319585185	13.707791429796297
O	0.06838236740740822	2.094413772414815	12.345636529796296
O	-0.9541144325925917	4.251965190414815	9.402737959796298
O	0.021662877407408132	4.859034910414815	5.7887453197962975
O	0.43302595740740824	8.423224170414816	4.522873579796297
O	0.8797255574074083	10.021916320414816	1.076993599796297
O	4.303032897407409	11.489968120414815	0.22596132079629688
O	5.441357427407409	7.156493130414815	-2.8046280802037034
O	3.755660337407408	5.589291170414815	0.17413182679629685
O	4.9118247174074074	5.768579450414815	3.747717919796297
O	4.203895617407408	3.0544836804148146	6.229825929796297
O	8.415294177407409	-6.871676599585185	9.463703449796297
O	5.229937227407408	-4.235550019585185	-2.988627120203703
O	8.720966677407409	-2.680011449585185	-3.1334286202037034
O	10.50562057740741	-0.990154819585185	-0.18406422120370314
O	12.500447477407409	2.0080136474148147	-1.4454355302037032
O	8.990388877407408	4.215907850414815	1.990151499796297
O	7.316767307407408	1.983434147414815	-0.5613762602037031
O	6.144699487407408	2.1616037404148147	-4.137652470203703
O	2.733535927407408	3.766229650414815	-4.541760620203703
O	-0.17358855259259176	1.3978916124148149	-5.288653020203703
O	-3.0380790435925915	3.333438890414815	-6.0432973302037025
O	-5.086356962592592	1.0449447330148147	-8.200648000203703
O	-7.252157882592591	-0.1026101695851851	-5.328847690203703
O	-7.761892232592592	-3.4460827495851856	-3.6763737702037034
O	-8.251424962592592	-6.539247339585185	-5.787685100203703
O	-2.7983238545925917	-13.177233979585186	2.5878579297962965
O	-6.278252522592592	-11.792578979585185	2.2103691097962965
O	-8.281486022592592	-9.303474879585185	0.1395953537962969
O	-7.275359862592591	-6.095346139585185	1.844467489796297
O	-3.5477267025925916	-6.897690419585185	1.364617939796297
O	-3.743795082592592	-7.258877919585185	-2.394903430203703
O	-3.4809128525925916	-3.8388921695851854	-4.213136960203703
O	-2.921472489592592	-2.794163409585185	-7.847075780203703
O	-0.19452681259259164	-0.48650849958518516	-9.020133890203702
O	-2.509934936592592	1.6800777374148148	-11.105981170203703
O	-6.167407542592592	1.9687716724148148	-12.205872870203702
O	-1.9775090445925918	-2.824802439585185	-13.571061670203703
O	0.16769908740740824	-5.255524819585185	-11.616591770203703
O	-1.2832287745925917	-6.866563149585185	-8.481293990203703
O	0.9624993174074081	-6.637238779585185	-5.402123950203703
O	0.9511372574074084	-8.479290849585185	-2.0971888902037032
O	1.4016679974074084	-6.163314129585185	0.9088797797962969
O	1.7344810174074081	-6.1777612795851855	4.738851639796297
O	4.4822559974074085	-8.182086209585185	6.360119459796297
O	3.068588687407408	-7.6510273795851855	9.838089729796296
