25

O	17.503789636846204	69.78406945514006	18.77398030513077
O	18.295451353591158	68.30423371707603	15.701565876427196
O	17.51361496901874	68.91973949616305	17.744565265833486
O	18.715913902428355	71.49502178624671	21.7366011256366
O	18.327616389470883	69.16495457430506	16.588370358903322
O	19.18643968215355	76.2459109747125	24.18582821495943
O	19.64510904010084	69.7588580971675	16.933079647107455
O	16.631339917822135	75.95505533634955	24.842909503638875
O	19.493712080247395	70.58277812429748	18.002052788376574
O	20.940657555195905	71.24629165254147	18.122464733501165
O	20.979112377394337	72.4496685056689	18.942045207737383
O	19.954335673358813	72.40062181929287	19.980065299176573
O	18.59673104277892	71.90194806884915	19.53004419111288
O	18.81579314185624	70.42351166924585	19.17004116942197
O	17.770905676012774	71.83089371456731	20.7085961826664
O	17.49779961439669	73.22015991980687	21.39323810414132
O	18.79966912634741	73.79687339641241	21.798716837762534
O	19.774653652084492	73.70742470816177	20.61689922396397
O	21.017668474602495	74.43555592289106	21.02332316028589
O	20.446053807359114	75.58927050957345	21.79121294799161
O	19.010439817219567	75.25955767057023	22.063250958996566
O	19.551302216163283	73.14933552188741	22.970268411891652
O	19.471205155046476	69.94034794970239	20.42253320776409
O	18.479987271827635	75.78491033625758	23.325372461805514
O	17.00548382815185	76.01102573023167	23.515759301770295
