109

O	-2.326201027533333	-1.1856482743466668	3.7072019159333336
O	-1.2462909915333333	-0.9611145043466667	2.6055605859333335
O	-0.5184665055333333	0.31937149765333334	2.7742552259333335
O	-0.8783514485333332	1.5057917416533333	1.9312525259333335
O	-1.1902751975333334	1.4076831736533333	0.5054335159333336
O	-2.214903958533333	0.31451818465333337	0.4181757429333336
O	-1.9840703035333334	-0.6608012443466666	1.3759239659333335
O	-2.5549960675333336	-1.9838598443466668	1.4599800359333335
O	-1.7191900795333332	-3.1583811643466664	1.7196599359333335
O	-0.8096179225333333	-2.3300758043466665	2.7130189759333336
O	0.23151875246666664	-2.4276876443466664	1.8224110459333334
O	-0.23897291753333327	-2.045602574346667	0.7378024539333335
O	-0.5798022865333333	-3.4604051843466666	1.0807546559333336
O	-0.4011740125333333	-2.755776004346667	-0.5202097480666664
O	-0.5157057085333333	-1.4444465243466669	-1.5337327540666665
O	-1.2525232601333334	-1.5800399643466665	-2.7990486540666666
O	-1.7281986625333334	-3.0146245543466668	-2.3486420540666666
O	-2.8584848775333334	-2.272125154346667	-1.7258422540666665
O	-1.9602919375333334	-2.7502390443466664	-0.7467354680666664
O	-0.07522558753333342	-3.3230577243466666	3.4258934859333334
O	-0.010602497533333421	-4.411923534346666	3.7318097759333333
O	0.7176013924666667	-2.517433994346667	4.467680915933334
O	0.6003738924666666	-3.088283114346667	5.720722905933334
O	-3.0467008875333335	0.43487588965333335	-0.7454115330666664
O	-2.719051487533333	1.1782338806533335	-1.9503295540666663
O	-1.9604042385333333	2.4712687156533333	-1.3453178440666664
O	-2.0046715025333333	3.283914435653333	-2.4447245740666665
O	-1.2163646523333334	4.519592355653334	-2.147321104066666
O	-1.1634411565333334	5.360710625653334	-3.0345638640666666
O	-1.1131650225333334	4.885697765653333	-0.7720253570666664
O	-1.1461056995333334	3.956729885653333	0.2140144769333336
O	-1.9202620465333333	2.6889801856533335	0.029585983933333615
O	-3.0993920875333334	2.5151684656533333	0.9821740159333335
O	-1.7794731425333334	2.4353520856533333	2.4883762559333333
O	6.355256572466667	12.387237875653334	-1.2369724370666664
O	6.999631932466667	9.008508835653334	0.38960839193333363
O	13.706969982466665	-3.9273508743466667	-1.3935270840666663
O	12.185049382466666	-6.5453157543466665	0.8932487659333336
O	8.512372962466666	-6.808825664346666	1.7967843159333334
O	9.154527982466666	-5.506858114346667	5.341379525933334
O	10.848657982466666	-2.3084679943466666	4.062958955933334
O	8.572692982466666	-1.6029656043466665	1.1319763859333336
O	5.385457072466667	-2.1828455943466665	3.1898865359333333
O	6.663723852466667	-0.03362685334666671	6.025955065933334
O	7.563845912466667	2.735565465653333	3.5388634859333337
O	4.084636382466667	2.5322347956533333	1.9792558959333335
O	2.4960462824666667	2.745778505653333	5.469635665933334
O	4.5635072724666665	5.818896445653333	6.122348565933334
O	3.479682032466667	7.3339434456533334	2.7907644459333336
O	-0.15080274753333334	6.586599245653334	3.6472578959333335
O	0.13421478246666663	8.528959975653333	6.887956175933334
O	1.5020496824666665	11.558293175653333	5.073761895933334
O	-12.130189017533334	6.359377505653334	8.442949715933333
O	-14.430017017533334	4.220008955653333	6.344309975933334
O	-13.126154117533334	5.484393265653334	3.0050013059333334
O	-9.399976757533334	6.096648785653334	3.4615905059333336
O	-8.354296557533333	2.920637465653333	1.6107163459333336
O	-10.733519047533335	3.619215045653333	-1.2523777340666662
O	-9.430312207533333	7.200630625653334	-1.6001317340666663
O	-5.869953967533333	6.045364825653333	-1.4642842340666662
O	-6.129656167533333	3.276211995653333	-4.088003734066667
O	-8.270640227533333	5.447689735653333	-6.379588724066666
O	-5.8085008875333335	8.334930455653334	-6.152566764066666
O	-2.9810661375333334	5.951485735653334	-6.782886694066666
O	-4.6339793875333335	4.796940165653334	-10.020121794066666
O	-5.169637547533333	8.396784085653334	-11.074948154066666
O	2.0403232924666668	2.354208405653333	-10.038505854066667
O	2.942750302466667	5.928446095653333	-9.074935794066667
O	2.5805640124666667	5.856839205653333	-5.259155814066666
O	4.682250312466667	8.998528625653334	-5.0772017640666665
O	9.981193182466667	9.169738345653334	-5.223238704066666
O	8.321050702466666	5.746248665653334	-5.178249464066666
O	6.518446482466667	0.5478189166533334	-8.674729564066666
O	8.605066172466666	-4.065544154346666	-6.831031334066666
O	5.000602702466667	-5.331295994346666	-7.002362134066666
O	6.465502232466667	-8.833603984346666	-6.528380084066666
O	8.910229582466666	-7.675228714346666	-3.8302860240666665
O	6.191899622466667	-6.008776614346666	-1.7958607740666666
O	4.499832592466667	-9.389388934346666	-1.1738302490666666
O	1.106872852466667	-7.949358604346667	-2.3037936940666666
O	1.4926356424666667	-8.492807894346667	-6.069718094066666
O	-2.1287421465333334	-9.498073024346667	-6.8463042240666665
O	-3.418897517533333	-6.5229319343466665	-5.013208994066666
O	-1.1058609575333334	-4.131069094346667	-6.990284414066666
O	-2.340515407533333	-5.748107334346667	-10.264960754066667
O	-5.934986967533333	-4.996712944346666	-9.142350374066668
O	-5.139844187533333	-1.2955518843466667	-8.588404874066667
O	-3.1034593475333336	-1.2290691043466666	-11.793330054066667
O	-6.185748777533333	-2.5479437043466664	-13.621689754066667
O	-8.197324177533334	0.45444993965333336	-12.451867354066668
O	-11.048266647533334	-2.1671514443466666	-1.2987654840666663
O	-9.322109777533335	-7.222977514346667	-0.4677448940666664
O	-6.990664877533333	-4.380516814346667	0.27886662293333364
O	-8.407872047533333	-3.9885645643466665	3.8190023259333334
O	-8.174689827533333	-7.703832384346667	4.457456815933334
O	-4.450933647533334	-7.4806468343466666	3.8310114959333332
O	-4.194244437533333	-4.1834924143466665	5.831280555933334
O	-5.794772317533333	-5.639756814346667	8.818079885933333
O	-3.686557557533333	-8.841914894346667	8.556966205933334
O	-0.3055101475333333	-7.123450754346666	8.447323945933332
O	-1.6002941295333333	-4.821995314346666	11.210574045933333
O	6.059676092466667	-9.432917444346666	10.049731245933334
O	8.119633682466667	-6.410285354346667	11.134271045933334
O	5.826201062466667	-4.097318434346667	9.223744865933334
O	5.785100262466667	-0.5795017543466667	10.722202045933333
O	2.712083522466667	1.6832763056533333	10.834352745933334
O	2.7288557024666673	5.547137455653334	11.449306945933333
O	-1.9830342315333334	8.286439885653333	11.667388145933334
O	-2.6460621375333333	4.746574845653334	10.447830845933334
