94

O	2.3804420319314277	-0.26675996420714276	-1.5394698706171432
O	3.6069193719314274	-0.0061825492071426735	-2.3615462946171433
O	3.8620074319314277	1.4089597027928573	-2.6689557846171432
O	4.979153261931428	1.6564436277928571	-3.1584833846171434
O	2.679859971931428	2.226360845792857	-2.6811563246171435
O	1.5362999519314278	1.8975162857928574	-1.9895973046171433
O	0.4709318919314276	3.0583324857928575	-2.0833178246171435
O	-0.6507091040685724	2.8499166957928574	-1.1775115636171434
O	-0.9675695390685723	1.4075686307928574	-0.9119881336171434
O	0.2628140319314276	0.5369750957928573	-0.6614913380731433
O	1.1416912119314275	0.5370975447928573	-1.8802158446171433
O	-0.15027227806857235	-0.8074479742071428	-0.17370157861714336
O	-1.0613443050685725	-0.7712971642071427	1.0127849153828568
O	-2.2525645690685723	0.09918664479285733	0.7871570653828566
O	-1.7282551800685724	1.4718430077928573	0.3754687553828566
O	-2.9336688580685726	2.3626585357928573	0.38315991538285665
O	-3.6963154580685726	1.8000715377928573	1.5776716353828566
O	-2.993905318068572	0.5570279337928573	2.004213365382857
O	-3.1139444680685724	-0.5185112142071426	-0.2730647346171433
O	0.32037169193142767	-0.021345678207142726	-3.0062309746171434
O	-3.829272568068572	-0.4658231542071427	2.651324775382857
O	-4.796707698068572	-0.8184998142071427	2.0322434553828566
O	-3.2250472380685724	-1.5198877142071427	3.5362817753828564
O	-3.974615198068572	-2.675215434207143	3.597370255382857
O	12.024722451931428	-3.9273856042071422	-5.699940414617143
O	12.813243651931428	-4.471031294207142	-2.0056838746171435
O	10.100073451931427	-4.713182724207143	0.6575617453828566
O	6.279507121931428	-0.1423434882071427	14.010149805382857
O	-0.1263730480685723	-0.02861615120714267	11.942720605382856
O	-0.7675686500685724	-3.762981474207143	11.596470405382856
O	2.9207923719314275	-4.491580634207143	10.827220005382857
O	3.6082445619314276	-1.4937759642071426	8.583988295382857
O	0.43575493193142756	-1.9780670242071425	6.567263475382856
O	1.0798834719314276	-5.7249417242071425	6.2185594853828565
O	4.647630191931428	-4.9920166042071425	5.089163355382857
O	3.425060271931428	-2.425094244207143	2.5542968353828566
O	0.8793699419314278	-4.901140124207142	1.1824728153828568
O	3.649686771931428	-7.484021864207142	0.8589772653828567
O	5.7852278519314275	-4.909265434207143	-0.9708077516171434
O	2.8336156919314277	-4.115027354207142	-3.2609974246171434
O	2.528253981931428	-7.793104124207142	-4.243671204617144
O	6.218084301931428	-7.950949084207142	-5.1584811046171435
O	5.982365621931428	-4.739065864207142	-7.205202614617144
O	2.819941831931428	-5.776751594207142	-9.095852634617144
O	-6.571242578068572	-4.266650054207142	-12.184327194617143
O	-8.155777578068573	-0.8508384242071427	-12.529519494617144
O	-4.878580248068572	1.0684528957928574	-12.416303394617143
O	-2.6375288580685723	-0.7825223042071427	-9.954428244617143
O	-3.0945562080685725	1.7448614917928573	-7.096610204617144
O	-2.5186757780685722	4.668782215792858	-9.457190414617143
O	0.7083347719314277	3.0956217257928573	-10.812710494617143
O	1.8615918619314276	2.2862230357928572	-7.304467444617143
O	1.3195059819314274	5.756938395792858	-5.852928454617143
O	2.735230591931428	7.535972195792858	-8.877022834617144
O	5.885954401931428	5.349038045792858	-8.847513984617143
O	6.145656301931428	5.883360545792858	-5.085713294617143
O	6.151226271931428	9.702338725792858	-5.635037064617143
O	8.541777721931428	2.9276860857928577	-0.6958326014171433
O	11.624152851931427	0.7718381292928573	-1.1627181516171432
O	14.733369651931428	-0.8780154342071427	2.8110112353828565
O	11.521970451931427	0.9914543917928573	3.7005488653828564
O	6.136133811931428	6.2239169257928575	10.206090705382856
O	3.3849091919314276	8.043278555792858	8.275840835382857
O	0.9392143819314278	3.4838205957928574	9.637918205382856
O	-2.9037813380685726	6.321322925792858	7.047354595382856
O	-1.1160418170685724	9.637553275792857	7.660272345382857
O	-3.416678818068572	11.819678355792858	5.514505055382856
O	-3.0719026580685727	9.392438335792857	2.6565960553828565
O	0.7400386319314276	9.503284675792857	2.904950945382857
O	0.6509602119314277	13.306635955792858	2.9182529753828566
O	-1.4395901134685725	13.150817855792857	-0.25932094461714333
O	1.1329204319314277	11.008173555792858	-2.0097279446171434
O	2.5868599419314275	14.711355455792857	-5.538947194617143
O	-6.395062528068572	7.088713255792857	-5.833916114617144
O	-9.134358238068573	7.845839555792858	-1.3207616386171432
O	-6.336724878068572	5.334752515792857	-1.3310839066171434
O	-8.694334918068572	2.612672395792857	-2.6403116346171434
O	-11.390550848068573	3.4670037957928574	-0.13422103161714338
O	-8.883122418068572	2.760783975792857	2.617278105382857
O	-7.4931552680685725	-0.2784536942071427	0.7415308653828567
O	-10.936601938068572	-1.8549111642071427	0.3738065753828568
O	-11.826510148068571	-1.1372435042071427	4.032602415382857
O	-8.694457168068572	-2.7681590342071427	5.517732165382856
O	-9.275030058068573	-5.587811894207142	3.0361307953828565
O	-8.373126688068572	-7.570980114207142	7.436434725382856
O	-4.833945008068572	-8.137008954207143	11.487031505382857
O	-3.680847818068572	-6.560407254207142	8.207271705382857
O	-2.189642240068572	-9.186459644207142	5.899532085382857
O	-2.4718966880685724	-9.233623944207142	2.1298281753828565
O	-0.3036233980685723	-11.313051444207142	-0.30717110761714334
O	-2.053834163068572	-13.625307344207142	-2.8026438246171432
O	-1.3046286798685724	-11.148354344207142	-5.638669324617143
O	-3.3146709680685724	-8.398672974207143	-3.8718552046171433
O	-6.546844188068572	-8.095795944207142	-7.659774864617144
