95

O	-2.4975068723471434	-1.016330672714286	-1.3077191738571423
O	-5.9592405523471434	-0.49572769271428596	-1.2659462988571422
O	-3.8092468023471433	-1.171635512714286	-1.5568715388571421
O	0.8073993276528568	0.470914316285714	-1.5062704078571423
O	-4.777993372347144	-0.2969150427142859	-0.9602899498571422
O	5.154852317652857	1.911282929285714	1.2894489421428577
O	-4.3069510223471426	1.110117616285714	-0.8847189678571423
O	5.810769337652857	-0.6602429627142861	1.2456873421428578
O	-2.967535862347143	1.117555940485714	-0.6602628968571422
O	-2.671650342347143	2.671335167285714	-0.4443408748571423
O	-1.3886942993471432	2.952764797285714	0.18504607514285776
O	-0.4136079523471431	1.918074349285714	-0.14462174785714232
O	-0.9289321272471431	0.495191747285714	-0.0803493918571423
O	-1.959467217347143	0.394102092285714	-1.2166340728571423
O	0.14242125765285696	-0.35351195271428604	-0.5363373398571423
O	1.420665527652857	-0.3322270527142861	0.3796433421428578
O	1.938307217652857	1.054386108285714	0.4146674221428577
O	0.7759472376528569	2.013587282285714	0.7047383621428578
O	1.370656877652857	3.375865867285714	0.8806895821428578
O	2.636349087652857	3.052505167285714	1.6161598321428579
O	2.841290747652857	1.573579271285714	1.4958274821428579
O	2.598989367652857	1.618678425285714	-0.8509802259571423
O	-1.1422075533471432	0.898570116285714	-2.360901107857142
O	4.241815417652857	1.141450534485714	1.4497686321428578
O	4.639944717652856	-0.2519923327142861	1.8514473121428576
O	-9.836117542347143	-8.462305102714286	-4.954200137857142
O	-8.815451852347143	-10.362771472714286	-1.8033893078571424
O	-5.542903182347143	-9.689255472714287	0.030043887142857773
O	0.32654342765285693	-7.705394772714286	13.27994375214286
O	4.598464627652858	-3.2863903327142863	10.534841852142858
O	6.747526937652857	-5.643486892714286	8.467051972142858
O	3.878742377652857	-8.163145412714286	8.037550762142857
O	1.065532827652857	-5.663256012714286	7.487222482142857
O	3.0624325076528573	-3.6088556427142864	5.000672672142858
O	4.205704727652856	-6.754393162714286	3.1379664021428577
O	0.5839970076528569	-7.952408582714287	3.0002920521428575
O	-0.6129220823471431	-4.552868832714286	1.6978357121428576
O	2.086473707652857	-4.605407512714286	-0.9912358838571422
O	0.9746095776528569	-8.076920222714286	-2.0015589278571424
O	-2.6319147723471428	-6.8410153827142866	-2.1480075378571426
O	-1.5437583653471432	-3.8838643227142864	-4.276401957857143
O	0.10291610765285686	-6.229968772714286	-6.822130717857142
O	-3.102355742347143	-8.246129112714286	-7.132504067857142
O	-5.207706582347143	-5.090281132714286	-7.558471277857143
O	-2.9035135623471433	-3.5169441427142862	-10.191522557857141
O	2.7114152876528568	4.0204266472857135	-13.658905547857142
O	2.205089237652857	7.642034327285714	-12.697197647857141
O	-1.266420810347143	7.145603607285714	-11.242380847857142
O	-1.251406424347143	3.737244917285714	-9.554542687857143
O	-1.036637373347143	5.158042877285714	-5.999920577857142
O	-3.756354512347143	7.683640037285714	-6.678329627857142
O	-6.087778112347143	4.983673267285714	-8.099858247857142
O	-5.339445022347142	2.7207306172857137	-5.201207717857142
O	-6.001294982347144	5.263097367285714	-2.4422813478571426
O	-9.104318632347143	6.622927577285714	-4.113530297857142
O	-10.531103822347143	3.084554837285714	-4.550946177857142
O	-9.619984912347142	2.296079007285714	-0.9583410298571423
O	-11.618534612347142	5.341594737285714	0.24225036214285778
O	-8.470638642347144	-2.600490832714286	1.9997801621428577
O	-10.045154442347142	-5.911388392714286	1.0755025121428576
O	-10.243847642347143	-10.097024972714287	4.337610852142857
O	-8.239246162347143	-7.036128062714286	5.455155302142858
O	-4.013030842347144	-1.721535932714286	12.693625852142858
O	-3.421365282347143	1.816190341285714	11.385361052142859
O	1.2148356976528567	-0.5937900127142861	10.218317452142859
O	1.940092437652857	4.562137257285714	8.621930732142857
O	-0.847930169347143	5.847415427285714	10.870748952142858
O	-0.865409292347143	9.464901257285714	9.601547952142859
O	-1.042142381047143	8.212908007285714	6.045987842142858
O	-4.033422592347144	5.985735287285714	6.888755072142858
O	-5.772929212347144	8.920742577285715	8.563754582142856
O	-5.225929072347142	10.921382447285716	5.370707002142858
O	-6.907814362347143	8.271984677285715	3.264031492142858
O	-11.145022412347142	11.215788827285714	1.9990725821428579
O	-0.4741485183471431	10.778156157285714	-2.9934515778571424
O	3.0326848276528566	11.703343427285713	0.9173306421428578
O	1.998589147652857	8.167811397285714	0.22422420214285776
O	4.676857947652858	7.820360507285714	-2.4921327278571423
O	7.359642837652858	9.359833287285714	-0.3188650728571423
O	6.748655487652856	6.606530027285714	2.1996272521428577
O	6.371173127652856	3.963179187285714	-0.5695927318571423
O	9.715825487652857	4.893890517285714	-2.1370034078571423
O	11.462534887652858	4.944762387285714	1.2699096521428577
O	10.321619287652858	1.452100911285714	2.342336372142858
O	11.195735987652858	0.34330263928571403	-1.1937106458571423
O	13.050318787652857	-2.930888592714286	1.9536062121428577
O	12.026772787652858	-6.566215502714286	5.826968912142858
O	9.132806487652857	-5.137938442714286	3.7947880921428574
O	8.336303997652857	-7.373607042714286	0.8226396021428577
O	7.1767704176528575	-6.193480692714286	-2.583004327857142
O	5.518155637652857	-8.360794582714288	-5.329116207857142
O	7.074359367652857	-8.387385362714287	-8.823203977857144
O	4.2375003476528565	-6.149907812714286	-10.124614707857141
O	5.208261917652857	-3.3776570127142858	-7.659555377857142
O	6.209008657652857	-0.1788108327142861	-11.35787734785714
