28

O	17.299366033076442	69.63537031158796	18.59158151674999
O	18.34429360893551	68.38569209104074	15.58305907252528
O	17.490137607704533	68.78416797404378	17.623345854208367
O	17.719934529916404	70.65578093887005	21.593066797088294
O	18.369931449268634	69.15380260642193	16.549496868910136
O	18.451341743699775	75.36108164502029	21.41855017303283
O	19.66851138378591	69.78415723005516	17.0294369041313
O	18.82929496695799	75.4278858713664	24.600583459629462
O	19.385321009851687	70.43696051213766	18.131451543459587
O	16.310400391839806	76.41707121851127	24.472286276331495
O	20.609573801865356	71.45632436661249	18.18873169646806
O	21.02505705066732	71.99642693414016	19.396613257304036
O	19.788237756767284	72.11933229112732	20.183608904550482
O	18.497958648209263	71.62050286946425	19.73353748592473
O	18.548501438289673	70.18528851691742	19.214529749924992
O	17.40524413057421	71.71217906586786	20.786241100803444
O	17.412614782214394	72.93505985501915	21.635125551464682
O	18.80327168493042	73.25954937700895	22.015784916901044
O	19.675767135142305	73.39585344077705	20.76218879171779
O	20.564572496728143	74.5442606612496	20.861844002401444
O	20.44810215859787	74.87421515403291	22.303763014811288
O	18.896735601078394	74.65590674756123	22.43037120565662
O	19.478529983412532	72.56185143748763	23.147191111251242
O	19.14898604330368	69.47222447049914	20.297842283578202
O	18.22755436800937	75.2312529041035	23.58470011173879
O	17.224418246646	76.3949147903686	23.455470690670367
O	20.06512470969501	76.24202484311365	22.88550248159379
O	17.853516924212744	72.01699429334313	18.60951626334552
