96

O	-2.7549770162191427	-0.7038413303000004	-0.5331481436957146
O	-5.986974266219143	0.8969258286999997	-1.0010328881557147
O	-4.199703516219143	-0.5316778703000002	-0.8668155106957146
O	0.3772084937808571	-1.1690124503000006	-1.2960124906957147
O	-4.746401606219143	0.8245563416999997	-0.9318009420957146
O	3.426682683780857	1.1454829266999997	1.6755214933042852
O	-3.782552656219143	1.8184336696999996	-1.3233212836957147
O	5.803661773780856	-0.15750359030000038	0.2765920833042853
O	-2.470211476219143	1.5593784616999997	-1.1628288856957145
O	5.4872180637808565	-2.0777470603	1.9489717833042852
O	-1.656498710219143	2.8784572196999996	-1.4823459906957146
O	-0.23782941821914294	2.8922940896999996	-1.0971136656957146
O	0.329114783780857	1.5147868146999997	-1.0069294054957145
O	-0.563472220219143	0.5425264666999997	-0.3132624066957146
O	-1.775896995219143	0.26788059969999967	-1.0689122557957147
O	0.165401383780857	-0.7341080903000003	-0.15473897669571457
O	1.4564915737808573	-0.6343814103000003	0.6291824533042855
O	2.270944023780857	0.3443599826999997	-0.15133038869571458
O	1.5620268837808569	1.6949371666999995	-0.19158987069571465
O	2.536677563780857	2.7349980297	-0.5627531116957146
O	3.869651023780857	2.1013606056999996	-0.26480728569571466
O	3.5921937837808566	0.7443443236999996	0.3800712333042854
O	2.489391983780857	-0.24588122030000026	-1.5147613916957146
O	-1.184239338519143	-0.08602265030000034	-2.4604845766957144
O	4.627894583780858	-0.2832659803000004	0.5277476633042854
O	4.5385673837808564	-1.1363438603000005	1.7898308933042855
O	-12.598545476219144	-5.6666278503	-1.3546151336957146
O	-11.873082776219144	-6.4629454403	2.305248573304285
O	-8.365573156219144	-6.3505315803	3.779870953304285
O	-0.5712438472191429	-1.7252183803000005	15.250132873304285
O	4.541074493780856	-0.4608997903000003	11.058277973304286
O	5.536021423780857	-4.0099109103	10.118789073304287
O	1.967403653780857	-5.3229671703	10.665674073304286
O	0.07575347378085695	-2.4024559703	9.125093673304287
O	2.302221963780857	-2.2768269003000006	6.077934213304285
O	2.125100183780857	-6.0525616103	5.601984053304285
O	-1.678681898219143	-5.8935708403	5.9140873933042855
O	-1.8609181082191428	-3.0588237203000004	3.3593199333042856
O	0.32337701378085715	-5.0187670803	0.9339821033042853
O	-1.9849562622191428	-8.032621260300001	1.3904340733042853
O	-4.978890806219143	-5.773296530300001	0.7007989533042854
O	-3.231911966219143	-4.4031072103	-2.4098838066957144
O	-2.799986866219143	-7.9607366203	-3.7848739766957147
O	-6.499127356219143	-8.672382090300001	-3.3240702066957146
O	-7.491238276219143	-5.3892842003000005	-4.999429786695715
O	-5.139773726219143	-5.8272852503	-7.992590386695714
O	2.130089923780857	-2.6617022903	-14.084244626695714
O	2.980922553780857	0.9830195646999996	-14.639257926695715
O	-0.25396399421914295	2.3270451096999993	-13.172836026695714
O	-1.148191436179143	0.03872217969999969	-10.261878576695715
O	-0.03464808621914295	2.5014284197	-7.537474796695714
O	-1.832499249219143	5.3767488797	-9.236130946695713
O	-5.084421206219143	3.3510243997	-9.506378526695714
O	-4.771472376219143	2.2288431996999996	-5.928985116695714
O	-4.191992286219143	5.6891613797	-4.419769056695714
O	-6.854517116219142	7.3179522997	-6.542744916695715
O	-9.436100026219144	4.637689079699999	-5.5959650366957145
O	-8.386259366219143	4.9813927097	-1.9561880906957145
O	-9.101736736219143	8.7654925697	-2.0963557866957148
O	-8.533006336219144	1.4969939786999997	2.7083457033042855
O	-11.210521476219144	-1.1348825103000004	3.156516853304285
O	-12.347152876219143	-3.4131952803	7.803246753304285
O	-9.330275756219143	-1.0737791003000006	7.641035733304284
O	-2.754855506219143	4.7198520697	12.275382573304286
O	-1.201390188919143	7.0547490797	9.679881573304286
O	2.203683693780857	2.9153578796999997	9.638081973304287
O	4.3795215037808575	6.4701341896999995	6.123171763304286
O	2.477218173780857	9.4111095997	7.652762313304286
O	3.502177053780857	12.016974419699999	5.035838073304285
O	2.480415033780857	9.661114759699998	2.2746245433042853
O	-0.9643102172191429	9.144836839699998	3.882955703304285
O	-1.405056598219143	12.902584919699999	4.221853043304285
O	-0.620313843219143	13.2121047197	0.5085041933042854
O	-3.328785396219143	10.743919479699999	-0.40511674869571457
O	-6.482207716219143	14.2819139197	-2.8065424566957144
O	2.720045213780857	8.2679539797	-7.029216686695714
O	6.807842953780858	9.3108664397	-3.7524512766957145
O	4.591604743780858	6.3748949996999995	-2.999064286695715
O	6.6490547937808575	4.1218302197	-5.320954676695715
O	9.925277223780856	5.3154705097	-3.874590126695715
O	8.735068433780857	4.1105200797	-0.48512774369571465
O	7.181328223780856	0.9343470786999997	-1.9854808776957147
O	10.408940723780857	-0.017027470300000402	-3.718234226695715
O	12.525908023780856	0.7046086776999996	-0.6056867846957146
O	10.416394423780856	-1.4909192703000003	1.7387584833042853
O	10.451660523780857	-4.0762095603	-1.0570060959957146
O	11.519603523780857	-6.3622971303	3.1676550033042856
O	9.840158723780856	-7.638729410300001	8.143477453304286
O	7.347665703780857	-6.1537927703	5.658553133304285
O	5.502634573780856	-8.9147927803	3.8118986733042854
O	4.3602980337808575	-8.803932530300001	0.2085809733042855
O	1.756071853780857	-11.1196376803	-1.4752449996957147
O	2.774001083780857	-12.982245480300001	-4.651118626695714
O	0.6840130437808571	-10.568905580300001	-6.779137296695715
O	2.796983773780857	-7.5898370803	-5.587407546695715
O	4.328072573780856	-6.6079513003	-10.236699246695714
