99

O	-1.2842045044929575	0.9216655389859161	3.0475353763661976
O	-1.6124868054929575	3.854221457985916	4.778755496366197
O	-1.5055864514929576	1.7333496329859162	4.042813466366197
O	0.36700002250704244	-1.4017757420140837	1.597647856366197
O	-1.1944167254929576	3.125619137985916	3.873764256366197
O	0.7899721125070425	-0.208063642014084	-2.9959796136338026
O	0.1614391625070425	3.361673667985916	3.225742416366197
O	2.5136944525070426	-2.8562482920140844	-3.533144983633803
O	0.36466004250704254	2.360695117985916	2.4026212863661973
O	0.15860364450704245	-3.687518902014084	-4.583056483633802
O	1.4564192525070425	2.998922257985916	1.4321025963661975
O	2.338030502507042	2.190921707985916	0.7298122763661974
O	1.5641277225070425	0.973128859985916	0.4430285463661974
O	0.22430602950704248	0.734329303985916	0.9569038763661972
O	0.09218215050704248	0.9970086179859161	2.4553386263661974
O	-0.30318201149295754	-0.661235482014084	0.6657514463661973
O	0.031892902507042464	-1.2238670920140837	-0.6711356225338027
O	1.4376611825070424	-0.906486022014084	-0.9985595416338027
O	1.6718542925070425	0.6063413949859161	-0.9100318786338026
O	2.475970422507042	1.0807037169859162	-2.0267784536338027
O	2.9881166725070427	-0.1986784820140839	-2.576735863633803
O	1.6551515025070425	-1.0197866920140841	-2.437410513633803
O	2.561443622507042	-1.7230871020140839	-0.4571614766338027
O	1.1282749325070425	0.1881696779859161	3.016497656366197
O	1.5365685825070423	-2.247070562014084	-3.2061850836338026
O	0.5386340525070425	-2.390939672014084	-4.372598243633803
O	2.850809652507042	-0.6720510120140839	-4.030373063633803
O	-0.8583658554929575	1.511672941985916	0.7129925163661972
O	-8.026719607492957	1.059901272985916	11.449483906366199
O	-10.693683507492958	0.8538148839859161	8.721981356366198
O	-9.936664417492958	-0.4006242520140839	5.209448416366197
O	-12.087532707492958	2.359294197985916	-8.991151853633802
O	-5.887409297492957	0.016018417985915967	-10.216352293633802
O	-6.432075257492957	-3.671854172014084	-9.478736623633802
O	-9.228200437492957	-2.9428241420140844	-6.960105203633803
O	-7.682951417492958	0.09419234798591614	-5.292641783633803
O	-4.266336927492958	-1.5368188120140838	-4.916697243633803
O	-5.793350477492957	-4.742690982014084	-3.607203143633803
O	-7.872639907492958	-2.721149352014084	-1.1037480316338026
O	-4.772383107492957	-0.7973854320140839	0.04563941436619734
O	-2.8688152674929572	-4.061738142014084	0.4930354863661972
O	-5.786950117492958	-5.401304292014084	2.579416216366197
O	-5.714234717492958	-2.207549392014084	4.646558366366197
O	-1.9576336974929576	-2.589537282014084	5.121191026366197
O	-2.4550871374929573	-6.141651792014084	6.543718926366197
O	-4.986555617492957	-4.873625672014084	9.063291606366198
O	-2.700992227492957	-1.9957746120140838	10.114817206366197
O	0.4337852325070424	-4.1673206920140835	10.478419506366198
O	9.978984292507043	-6.345200902014083	8.466093516366199
O	12.550262292507043	-3.794590572014084	7.381901336366197
O	10.514723592507043	-0.768977192014084	8.446345736366197
O	6.887711052507043	-1.6269826720140839	7.729676666366196
O	6.701535992507043	0.5413422799859161	4.570649226366197
O	8.358550842507043	3.472717497985916	6.295726646366197
O	5.925011852507042	3.2417070879859162	9.257092536366198
O	2.9920801025070425	2.951873317985916	6.976137346366197
O	3.849643582507043	5.946432917985916	4.755086696366197
O	4.793246132507043	8.120463407985916	7.666699736366197
O	1.5329397425070426	7.301213947985916	9.529441506366197
O	-0.39068336949295757	7.928101177985916	6.319864316366197
O	1.1503401025070426	11.431354257985916	6.036428346366197
O	-5.544953477492958	6.119961027985916	4.172784456366197
O	-8.439994937492958	5.255646047985916	6.442438746366197
O	-13.453477007492957	4.9002279479859165	4.748815036366197
O	-10.711509607492957	5.408347367985916	2.1390420963661976
O	-7.946927127492957	8.188396967985916	-6.994487613633803
O	-4.1745206074929575	8.815402057985915	-6.953174893633803
O	-4.4275022074929575	3.681392417985916	-8.431976733633803
O	0.9148647525070424	4.802820617985915	-8.446489983633802
O	0.2596253465070425	8.557258517985916	-8.807783433633801
O	3.8890542325070427	9.716819157985915	-8.449426033633802
O	4.245628432507043	7.5941987279859156	-5.350576603633803
O	1.1114944125070425	9.166926637985917	-3.823710093633803
O	2.428304182507042	12.642533057985915	-4.6027098836338025
O	5.638477772507042	11.702789657985916	-2.791789783633803
O	3.758907502507043	10.707286927985916	0.32010765936619734
O	5.597911682507043	14.686174357985916	3.3264343763661977
O	10.387276292507043	4.225445257985916	0.9002442563661972
O	10.576424592507042	3.8737391079859163	-4.408515583633803
O	7.505301562507043	2.6344426179859157	-2.6227028336338027
O	9.109284112507043	-0.781380802014084	-2.0707387036338027
O	10.335739092507042	-1.038122092014084	-5.628825253633803
O	6.765017842507043	-0.718058092014084	-6.754649763633803
O	5.432963532507043	-2.9248543920140837	-3.9091940336338027
O	7.904047872507043	-5.730276152014085	-4.853933593633803
O	7.066736272507042	-5.441271902014083	-8.569541613633803
O	3.2823373525070423	-5.764804802014083	-8.098010883633803
O	4.087891532507043	-8.610210142014084	-5.692559513633803
O	0.48172786250704247	-10.095924842014085	-8.688029543633801
O	-1.8005207974929576	-7.7225738920140845	-12.542145893633801
O	-4.577754257492957	-9.267183442014085	-10.440531533633802
O	-3.3268768174929573	-7.364767692014084	-7.375413953633803
O	-4.204602307492958	-9.201794542014085	-4.1743515536338025
O	-2.068640127492958	-9.320192742014084	-1.0550583086338028
O	-3.311388477492957	-10.467270042014084	2.4598281563661972
O	-1.4151643234929576	-13.266851342014084	4.236359356366197
O	0.2175646285070425	-10.703579242014085	6.582981026366197
O	1.8475107025070423	-8.915180342014084	3.580023286366197
O	6.431824922507043	-9.876338642014085	5.295760296366197
