97

O	-1.6953116637763892	-0.9058347162694443	-0.7514069110277777
O	-0.622652896776389	2.3815180437305554	-1.3433380950277778
O	-1.5450771797763891	-2.0481410562694444	-1.4513565050277777
O	-1.352326904776389	1.8563542087305556	-2.421849495027778
O	0.24641133122361092	-0.8014993162694445	0.0920583869722223
O	-2.759462348776389	3.4618243837305553	-1.3471856020277777
O	-0.895768426776389	-0.06895527626944442	-0.06801033202777768
O	-0.821176659776389	2.7947574637305554	-0.14282154502777766
O	-0.011586518776389054	-2.1076491862694446	0.3073869699722223
O	-0.839742962776389	-2.8410230462694446	-0.5476066340277777
O	-2.610345678776389	2.3413910737305557	-2.1850309250277777
O	-2.117158089776389	3.3140002137305555	-0.15170168202777767
O	-0.631750427776389	1.8958003417305556	0.9328177049722224
O	-1.6203926247763891	0.9002618066305555	0.8836876749722224
O	0.0004627412236108963	1.3133914227305556	1.9916358149722224
O	0.302343991223611	-4.071149596269444	1.6238930249722225
O	-1.703494238776389	1.0288213020305554	2.451318764972222
O	-1.156251943886389	-3.9896143262694443	1.4823798849722223
O	0.8621445412236108	-2.8555691562694445	1.1261144749722223
O	1.123761761223611	0.9921575191305556	1.5926316149722222
O	0.655276941223611	-5.217425096269444	1.1862202749722224
O	-1.263223211776389	-3.979879386269445	0.03546676997222231
O	-0.731806714776389	-0.11414088626944452	2.186635314972222
O	-2.982135158776389	2.6559237737305557	-3.4631688150277777
O	-2.727776008776389	3.2370432537305556	1.0777374949722223
O	12.06358375122361	7.8468197137305555	2.871663124972222
O	11.17299915122361	4.321562403730556	1.7101416149722224
O	8.17389508122361	-7.275086806269445	-9.396520765027777
O	4.9227170712236115	-7.142247036269445	-7.413092905027778
O	6.422305501223611	-8.977308366269446	-4.4594113050277775
O	7.303901661223611	-3.331733726269445	-4.768848905027778
O	4.488872881223611	-4.346833666269444	-2.405647865027778
O	7.021168391223611	-5.364553676269444	0.2720851169722223
O	8.778820001223611	-2.0370759462694448	-0.14235046802777768
O	5.463248761223611	-0.1991912662694445	0.13357537897222233
O	4.581554751223611	-2.0201475962694446	3.276254794972222
O	7.97307497122361	-1.2028466262694444	4.707858784972222
O	7.568758051223611	2.4594436937305555	3.8537066049722224
O	4.177828181223611	2.3856420237305556	5.596663654972222
O	5.638838761223611	1.1147328487305557	8.800761744972222
O	8.11129194122361	4.0107460137305555	8.799984954972222
O	5.346068721223611	6.578733483730556	8.068960854972223
O	-6.008860378776389	1.7331608407305557	13.599158844972223
O	-9.256481638776389	2.4321585637305554	11.801698544972224
O	-7.903411698776389	5.326134923730556	9.732703944972224
O	-4.308840678776389	4.469317103730556	8.903642404972222
O	-5.1318402087763895	3.4640435137305556	5.299504014972222
O	-7.1596586487763885	6.580820753730556	4.724282894972222
O	-4.3705471687763895	8.818639993730555	6.126574094972222
O	-1.788542057776389	7.043198343730556	4.028314904972222
O	-3.647490418776389	7.362448193730556	0.7613863449722225
O	-4.718793858776389	10.843151753730554	1.3481519449722223
O	-1.1689322758763891	12.007891203730555	2.230367334972222
O	0.06691016122361093	10.066244203730555	-0.8130134910277778
O	-2.3248275987763893	12.083952703730555	-3.0556049350277776
O	5.071900891223611	7.5059674337305555	-2.1493962050277777
O	8.46095943122361	8.902811753730555	-1.0549401860277776
O	9.991900051223611	5.920034883730556	-4.583655465027777
O	5.501985961223611	5.544755943730556	-9.269995505027778
O	5.353682241223611	0.7673778107305556	-11.700665855027777
O	1.5840738312236111	0.9921188831305555	-11.100384655027778
O	4.242273051223611	-3.771631046269445	-11.956986955027777
O	2.8734564512236114	-3.4606949462694447	-8.428309335027777
O	-0.11329111877638898	-5.672031316269444	-9.327849585027778
O	-2.494704928776389	-3.0873968262694444	-7.804846315027778
O	-2.8717879487763893	-0.8432325962694444	-10.886747755027777
O	-6.6027171787763885	-0.059691676269444494	-10.470923355027777
O	-6.045106938776389	0.7885430167305556	-6.8994648650277774
O	-3.1765091887763894	3.2370383637305555	-7.949346075027778
O	-5.447391668776389	4.868487643730556	-10.494508055027778
O	-8.04537153877639	5.370072213730556	-7.716458765027778
O	-5.541074588776389	7.181808493730556	-5.511334275027778
O	-4.120065018776389	9.082088623730556	-8.496182785027777
O	-7.794455508776389	11.859281203730555	-5.756547215027778
O	-11.54823094877639	3.9533374237305554	-2.034338865027778
O	-10.226739078776388	2.8899450937305557	1.4055329749722223
O	-12.544649948776389	-0.07899542626944445	1.4634512649722224
O	-10.877049538776388	-1.3403252162694446	-1.7599381750277776
O	-7.520144828776389	-0.6837062762694445	-0.5648733370277776
O	-8.14244905877639	-2.5708618062694444	2.658757194972222
O	-9.694901028776389	-5.486532626269444	0.8207788349722225
O	-6.455245018776389	-5.862262286269444	-1.1159444480277776
O	-4.426653438776389	-5.141223236269444	2.065945634972222
O	-6.139411018776388	-7.873588886269444	4.051686464972222
O	-5.8545698387763885	-10.324140396269446	1.1271420649722224
O	-2.091357784776389	-9.947658696269444	0.6547423849722225
O	-1.814220804776389	-10.090874296269446	4.444979004972222
O	1.576086351223611	-13.074764096269446	2.5434748949722223
O	2.5976644112236107	-14.239990896269445	-2.2810224250277775
O	5.933753451223611	-13.520407896269445	-0.6179719070277777
O	4.725687271223611	-10.055273296269444	0.3832176979722223
O	6.516619091223611	-8.829925666269444	3.513468384972222
O	4.983692921223611	-6.717240406269444	6.258200654972222
O	6.853345211223612	-4.708987756269444	8.939916004972224
O	5.978276431223611	-5.332699506269444	12.600633444972223
O	4.137839061223612	-1.9868788762694445	12.776658144972224
O	1.7172906912236108	-3.1544703962694443	10.031096044972223
