29

O	17.436188698378164	69.94434551797926	18.710421876017826
O	18.76248980146396	70.41445088261203	19.23947116061111
O	17.747785152806117	71.95110553576815	21.022135147647663
O	17.910404074036443	73.3114074816346	21.575067896440636
O	19.13470164305699	73.72883643630689	22.282932915723926
O	19.972873173295874	73.68858433502484	20.984416182289575
O	21.09886678563212	74.51209848620522	21.378363883050728
O	20.589463723901325	75.67086854305168	22.366152091744123
O	19.43106984750084	75.01227339799739	22.91593599841975
O	19.76475353782816	72.70879344080956	23.177776987930297
O	19.311933705005206	69.53600451195139	20.356007072294712
O	17.444272570998958	68.86425203501835	17.64420652119715
O	18.83112253749161	75.5988162136245	24.20928737964499
O	17.38329793466196	75.26004176689023	23.98298409367056
O	17.550533276656278	75.40856906453251	22.49769730726583
O	20.573277994109315	73.77483534161827	16.815095697004033
O	21.96524751418901	73.50512812663037	16.51312082112182
O	18.444119294635374	69.02490518345354	16.5768404246896
O	19.623615164858283	69.76432718728803	16.982535420545926
O	19.612978547811462	70.560026584164	18.094755188691366
O	20.828175761365006	71.3121015732074	18.705799999600554
O	20.92203791187817	72.50704599609027	19.309389957030014
O	19.99018145285664	72.29226301380339	20.47100848321503
O	18.674600227939777	71.83046186373114	19.80295737677487
O	16.633698995147487	75.7175459615523	21.769307785227056
O	18.704971220262884	76.0664268280896	22.34052742745636
O	19.837320397001083	73.14023960599624	16.023264129829503
O	18.309188489645546	68.31580315133942	15.564618238076907
O	19.94340387348417	73.66234680282734	18.40289866477042
