94

O	2.3791599484528576	-1.3159079510285712	-1.3547161650257138
O	3.674856458452857	-1.597529971028571	-2.037422328025714
O	4.480646738452857	-0.39244385102857127	-2.297265858025714
O	5.6383325384528575	-0.6088834910285712	-2.706851058025714
O	3.742976558452858	0.8363437664714288	-2.3992352680257136
O	2.4995176384528577	1.0115820019714288	-1.865374818025714
O	2.0811165484528575	2.4977313189714287	-2.093096648025714
O	0.7502647184528575	2.8020013189714286	-1.609050919025714
O	0.2719138284528575	1.6276880549714288	-0.9913308020257139
O	0.8241497284528574	0.3177634309714288	-0.7624114360257139
O	1.6317309984528574	-0.09869887902857122	-1.9184148280257138
O	0.045574618452857596	-0.8797717310285713	-0.3507454090257139
O	-0.7931361965471425	-0.3131814110285711	0.539882291974286
O	-1.5545811885471426	0.8446902432914288	-0.12910463402571393
O	-0.5576750305471425	2.006362428971429	0.07334356197428615
O	-1.4002969125471425	3.199709728971429	-0.2615864220257139
O	-2.2598203815471427	2.993494328971429	0.9190386619742861
O	-2.557376351547142	1.5404979889714288	0.7491217819742861
O	-1.4677507045471425	0.4538683099714288	-1.6269765170257138
O	0.9155089084528574	-0.3984151810285712	-3.188699298025714
O	-3.1919825615471424	0.8207709018714288	1.781110991974286
O	-3.7829230615471423	1.7486696479714288	2.7076764519742857
O	-4.477721111547142	-0.0058976590285712005	1.801300171974286
O	-5.041978771547143	-0.23499979102857127	3.0274795519742863
O	9.997034298452858	-8.555050241028571	-4.415791468025714
O	10.136978598452858	-9.222827581028572	-0.6611907120257139
O	7.301682858452857	-8.28235118102857	1.6974535219742861
O	4.306512348452857	-2.072163961028571	14.587526281974286
O	-1.3075621975471425	0.46876318897142877	11.863819581974285
O	-3.3187383915471425	-2.7331819210285713	11.437348581974286
O	-0.1599629115471426	-4.863580661028571	11.038469181974286
O	1.8707712784528576	-2.464331061028571	8.902366881974286
O	-1.0271044865471426	-1.738065681028571	6.573579781974286
O	-1.8721963695471424	-5.445432971028572	6.264125921974286
O	1.7825609484528577	-6.208980481028571	5.5138676619742855
O	1.9316102784528577	-3.468957241028571	2.875005901974286
O	-1.2306991292471425	-4.809858461028571	1.2407309119742862
O	0.3032921784528575	-8.27510439102857	1.195475741974286
O	3.4522534884528575	-6.831853871028571	-0.3919336270257139
O	1.2949886084528575	-5.023734801028572	-2.9763879880257136
O	-0.34243098154714247	-8.320180811028571	-4.002749508025714
O	3.0548933284528577	-9.96026688102857	-4.525429058025714
O	4.318316398452858	-7.000625181028571	-6.578900138025714
O	1.2038874284528576	-6.771565091028571	-8.798835788025714
O	-6.4853035015471425	-1.7899085410285713	-12.830619918025715
O	-6.551194351547142	1.9567082889714287	-13.338122518025713
O	-2.8175079015471427	2.438035268971429	-12.848728518025714
O	-1.7360789045471425	-0.054477288028571214	-10.175440748025714
O	-1.4346076255471425	2.554336158971429	-7.380553138025714
O	0.45428424845285753	4.9300657889714286	-9.623483088025715
O	2.910436848452857	2.1708117389714285	-10.650957738025713
O	3.3373845384528575	1.1046313689714289	-7.086645148025714
O	4.055002858452857	4.559146238971429	-5.6622959080257145
O	6.326805168452857	5.516685448971429	-8.497885048025713
O	8.346061268452857	2.276053158971429	-8.153832358025713
O	8.471191638452858	2.812450748971429	-4.395641368025714
O	9.995070798452858	6.294449128971428	-4.916008128025714
O	9.045257998452858	-0.6906994710285712	0.23063096197428612
O	11.027058098452857	-3.9039863410285713	0.06837518997428615
O	12.833332798452858	-6.488380741028571	4.338964741974286
O	10.555185698452858	-3.4762736310285716	4.891344521974286
O	7.056963938452858	3.689511308971429	10.806759981974286
O	5.454622848452858	6.369538698971429	8.608362111974285
O	1.2921721584528574	3.196149268971429	9.717976581974286
O	-0.8468212695471424	7.2040979589714285	6.718988271974286
O	2.0308347784528573	9.568458238971427	7.528927831974286
O	0.9890605484528576	12.385125818971428	5.165222931974286
O	0.6439652284528574	9.931152438971427	2.3515467019742857
O	4.157482458452858	8.561705918971429	3.007089611974286
O	5.563587408452857	12.091243518971428	3.025163691974286
O	3.9012769884528575	12.649343218971428	-0.3545292760257139
O	5.585395708452857	9.607661678971429	-1.8361793380257139
O	8.698044748452858	12.298974918971428	-5.178422208025714
O	-2.4768357415471423	8.803498408971429	-6.434509118025714
O	-5.120488701547142	10.750925598971428	-2.239764318025714
O	-3.5509172415471424	7.3295926489714285	-1.955350678025714
O	-6.674032951547143	5.739800418971429	-3.5188453880257136
O	-9.049375121547143	7.6741386789714285	-1.3122423790257138
O	-7.330501511547142	6.149431468971429	1.7012452419742863
O	-7.050670001547142	2.7322684289714285	-0.006199742025713939
O	-10.778785521547142	2.609614978971429	-0.7630507262257139
O	-11.680986801547142	3.744825838971429	2.7868711319742863
O	-9.596851211547142	1.0687367079714287	4.5867845619742855
O	-10.999649771547142	-1.381847141028571	2.0454470319742857
O	-11.371995501547142	-3.4172971510285715	6.506617461974286
O	-8.741551871547141	-5.189836491028571	10.899803881974286
O	-6.753137921547142	-4.3098503510285715	7.7646205919742854
O	-6.192771701547143	-7.374118021028571	5.598161741974286
O	-6.099391481547142	-7.432131251028571	1.8159248119742861
O	-4.7027614515471425	-10.280703981028573	-0.3968726300257139
O	-6.978910851547142	-11.79437308102857	-3.0685396380257135
O	-5.039396031547143	-9.921584581028572	-5.796186558025714
O	-5.945214441547143	-6.529714781028571	-4.230320788025714
O	-8.420826961547142	-5.1546373810285715	-8.352154848025714
