103

O	-1.4373995956945944	-2.5552987060067562	-0.7818557908418917
O	-1.0658357196945945	-1.433748366006756	-1.7483760744418917
O	-1.0403288956945944	0.25872452399324397	0.13852550255810825
O	-0.2307478526945944	1.377321977993244	0.6061068855581082
O	0.21133951430540554	2.520313703993244	-0.1475754534418917
O	0.9371434043054057	1.870917046993244	-1.2445384404418918
O	1.5104809343054055	3.078906583993244	-1.8368870244418918
O	1.5731786743054055	4.274948233993244	-0.7274621375418917
O	0.9638244743054056	3.669143663993244	0.31812398555810817
O	-1.0247251246945943	3.070427473993244	-0.9209724034418917
O	-2.2477424256945944	-0.9247631460067561	-2.5304309444418918
O	-1.6747957236945945	-3.918308416006756	-1.4153073784418917
O	1.8987348543054055	4.348630923993244	1.3187789955581084
O	1.2637695643054057	4.225136583993244	2.6300345955581084
O	0.23094582430540567	3.300307403993244	2.0085420155581084
O	3.1172741043054053	-1.2431825460067563	-2.3104494244418916
O	3.5928428143054054	-1.3715806360067564	-3.6578400544418916
O	-0.7084923416945944	-4.309843096006756	-2.4454229644418914
O	-0.17680877869459444	-3.211928386006756	-3.2218206944418917
O	-0.09360864169459449	-1.9951375060067562	-2.6257479344418915
O	0.45631337430540553	-0.7493517860067561	-3.3944139244418916
O	0.9805397443054056	0.4065385149932439	-2.920800764441892
O	0.002768236305405569	0.8723436370932439	-1.8819464744418917
O	-0.2907571626945944	-0.3696271760067561	-1.0364082534418917
O	-0.3184786386945945	2.5985506839932437	2.880110695558108
O	-0.17388131969459442	4.226608113993244	1.0180500555581082
O	2.6277824643054055	-2.363331566006756	-2.054769094441892
O	-0.6882562596945945	-5.524780436006756	-2.7243736744418916
O	2.2092048543054057	-0.05964005300675612	-1.7149059004418916
O	-6.137509655694594	-12.549074666006756	0.6698373955581083
O	-4.115082905694594	-12.498615166006756	3.9040138355581084
O	-2.801028075694594	-9.288741966006755	5.466316395558108
O	9.027723584305406	-3.1059850260067563	11.478518375558108
O	8.778213384305406	0.676186339993244	11.381801175558108
O	7.275171884305406	2.6921642639932437	8.518913225558109
O	4.171407734305405	3.541456623993244	10.535715075558107
O	3.4116577643054056	-0.16072742600675605	11.232119675558108
O	4.2879856243054055	-1.5476412360067564	7.793221245558108
O	2.3612692343054054	1.133835779993244	5.978325165558108
O	-0.6484581586945944	0.7557903449932439	8.258990975558108
O	-0.5494051706945944	-3.030752756006756	7.725438845558108
O	-0.3681808076945944	-2.583315166006756	3.987815105558108
O	-3.322874695694594	-0.207693116006756	4.0096654755581085
O	-5.2748075256945945	-2.7746006760067563	6.041329645558108
O	-4.322333125694595	-5.415889586006756	3.458459955558108
O	-5.455201315694595	-3.0882529460067563	0.6584411755581083
O	-8.886536715694595	-2.706955036006756	2.2580020455581082
O	-9.299544215694594	-6.481457206006756	2.453485465558108
O	-8.190115515694595	-6.928138076006756	-1.1722493294418916
O	-10.457211925694594	-4.174048246006756	-2.5418805144418917
O	-12.088030295694594	4.183349033993244	-7.7625904544418916
O	-9.878113945694595	5.370718013993244	-10.592508554441892
O	-8.082558685694595	2.045881683993244	-11.058612824441893
O	-7.726648185694595	0.5377938019932439	-7.582006944441892
O	-4.024865885694594	1.4125685629932438	-7.236066484441892
O	-3.208751535694595	0.11128102399324391	-10.687485064441892
O	-5.010340475694595	-3.191345766006756	-9.973429064441893
O	-3.2902235256945946	-3.524679536006756	-6.654001814441891
O	0.2388407043054055	-2.9518285960067563	-7.960156204441892
O	-0.22793482569459445	-5.111003666006757	-10.995670624441892
O	-1.6120787766945943	-7.990994826006757	-8.880599284441892
O	1.2397302443054057	-7.489285156006757	-6.429684204441891
O	3.7752035443054055	-7.932950726006757	-9.312396254441893
O	1.9662393243054057	-8.728937986006756	-0.7965195747418917
O	0.3000621943054056	-11.598454166006757	0.9144292055581082
O	1.8616655643054056	-13.652180666006757	5.553271315558108
O	3.6155783443054057	-10.499184766006756	4.319158025558108
O	8.967776494305406	-8.003964576006757	1.5279476655581083
O	11.400862504305405	-4.294677616006756	4.556178045558108
O	11.319065704305405	-2.1611838660067564	1.378814495558108
O	8.564444984305405	0.8605612753932439	4.811363875558108
O	8.698177344305405	3.841179813993244	0.2430654875581083
O	11.753170104305406	1.968206653993244	-1.0676926404418916
O	11.857146404305405	3.6058636139932436	-4.5332474444418915
O	8.201341574305406	2.902561453993244	-4.9794438144418915
O	8.853103184305406	-0.7938694360067561	-4.092250854441891
O	11.649255804305405	-1.0157015360067563	-6.571471334441892
O	9.271064204305405	0.36319973299324393	-9.207678804441892
O	6.757777704305405	-2.363302586006756	-8.649019414441891
O	9.479698204305405	-4.990440166006756	-8.298201584441891
O	7.334869624305405	-4.825756456006756	-13.229429724441893
O	0.6369489843054055	4.4724523039932444	-10.475726114441892
O	3.9251020343054055	8.000654723993245	-8.194132574441891
O	2.2295956343054053	5.479608583993244	-5.993801334441892
O	-0.8537950912945944	7.6854897339932435	-5.6735867444418915
O	1.1975066643054058	10.787852753993244	-4.975735754441892
O	2.6435365543054052	8.989535093993243	-1.9760385544418917
O	-0.7388372996945944	7.482362733993244	-1.0485388434418916
O	-2.4462677556945946	10.896351693993244	-1.0539841774418917
O	0.4040190443054055	12.472177933993244	0.9598699555581083
O	0.3907734443054056	9.851353803993243	3.745745225558108
O	-3.415324155694594	10.176991863993244	3.669130915558108
O	-2.0031472156945944	10.382844813993243	8.366163935558108
O	2.6223212143054058	10.248086753993244	10.424589075558108
O	0.47641936430540555	7.838162113993244	12.450990375558108
O	-0.37403144369459446	5.887074953993244	9.281008675558107
O	-3.7380933656945947	4.146480343993244	9.597278475558108
O	-6.2364590956945944	3.627963553993244	6.800121765558108
O	-9.219424015694594	1.172842052993244	6.8203050855581075
O	-12.724228295694594	2.523291593993244	6.113863905558109
O	-12.623496195694594	0.992554269093244	2.5944065155581084
O	-9.560321935694594	3.1119108539932436	1.6864013455581084
O	-12.033464095694594	5.432989843993243	-1.9686767144418917
