94

O	-1.5243474290153844	-0.27743898872615413	0.9400682148569215
O	-1.2355557430153845	-0.22938935872615396	-1.0011154870430785
O	-0.8544877080153844	5.205105241273846	-2.8685295651430787
O	-3.6629491420153846	2.646271331273846	-1.2859161021430785
O	-0.24953033201538444	-1.018328078726154	1.1011511348569216
O	-4.670306792015385	3.147113031273846	0.12089102485692149
O	-1.5793639500153844	0.706492406273846	-0.19545764414307853
O	0.05421268798461565	-0.6670560587261538	-0.8209375631430785
O	-2.7165771420153844	1.621465861273846	-0.42893497514307855
O	2.1140961879846154	-0.858244078726154	-0.3269024581430785
O	-4.936592872015384	1.828298973273846	0.37037542485692154
O	1.9853246279846155	-1.8529220387261542	-1.1541345521430786
O	-3.6673058220153845	1.434714418273846	0.6705984648569214
O	-0.26022720801538446	-0.5151540087261541	-2.9694648351430786
O	-6.021397542015385	1.625378089273846	1.4411804348569215
O	2.7240780879846156	2.203801485273846	-2.6849618751430784
O	0.8750466579846155	-0.476937328726154	0.1580871348569215
O	-0.6706210000153845	1.8039628182738459	-3.1638965151430787
O	0.6454766179846156	-1.7101322987261542	-1.4131689031430785
O	-0.00678997201538456	-1.938229718726154	-2.5490518251430787
O	0.8052514579846155	0.443834443273846	-2.4261324851430786
O	2.140939587984615	0.08013067127384588	-2.4713655951430784
O	3.1074083479846157	0.9485962452738459	-2.5766475851430783
O	0.49667159798461546	1.7383601012738459	-2.4206661351430787
O	1.4778588279846157	2.5871397112738457	-2.7987767051430783
O	1.0610796579846153	3.748071141273846	-3.377805615143078
O	-0.2267312230153845	3.993839951273846	-3.2134304551430786
O	-1.1553536878153845	3.0019531412738463	-3.2280204451430787
O	-2.0043450900153843	5.447275491273846	-3.708354985143078
O	-5.0654934120153845	1.935438131273846	-11.335795335143079
O	-4.104614392015384	2.9417641912738457	-7.8319138151430785
O	-6.868878992015385	0.874846823273846	-6.2318647751430785
O	-8.974777512015384	-2.173456738726154	-6.955337925143079
O	-10.767811372015384	-4.445477938726154	-4.5409311451430785
O	-12.782325162015384	-7.587360138726154	-5.041194075143078
O	-9.855441552015385	-10.027673718726152	-5.399281015143078
O	-6.857772632015385	-7.883998468726154	-6.291399345143079
O	-5.696816302015384	-4.580255668726154	-7.649709535143078
O	-2.765712122015384	-2.2351442687261542	-7.641587365143078
O	-1.2064296050153844	-0.300777168726154	-10.431752285143078
O	1.4257711279846157	2.304063510273846	-10.893736795143079
O	4.526876487984615	0.700186791273846	-12.248341435143079
O	6.6136239879846155	1.340084975473846	-7.833951545143078
O	3.2603324379846157	-0.13249715872615409	-7.012253145143078
O	2.298156327984615	-3.3178179587261543	-8.807698145143078
O	-0.12356084501538445	-5.603594418726154	-7.056588275143079
O	-2.0975112520153845	-8.165851718726152	-9.183462665143079
O	8.375563297984616	-2.360967338726154	7.488726744856922
O	7.389739277984615	-2.4405427387261542	3.8439780748569214
O	9.848242337984615	-4.271777518726154	1.5903229948569215
O	9.394743137984616	-6.281621088726154	-1.6022890691430787
O	7.907754897984615	-10.713461718726155	-8.05862978514308
O	2.887001517984616	-9.300603618726154	-10.122260785143078
O	4.174435107984615	-8.350608608726155	-6.645068345143079
O	6.2421315579846155	-5.196722018726154	-6.833505625143078
O	6.441030267984615	-2.757436898726154	-3.962741615143079
O	8.134080387984616	0.558093722273846	-3.4586877151430784
O	5.6719378779846155	3.3333421812738457	-4.081804335143079
O	4.379886097984615	5.058982921273846	-1.0336638861430785
O	3.580437057984615	8.590686831273846	-2.0253783941430785
O	1.2456115779846157	9.273576501273846	0.8162483948569215
O	-0.6061789350153844	5.971320191273846	0.6604957648569214
O	-1.8397967210153845	4.621915031273846	3.897311904856922
O	-1.5645939400153845	6.197802311273846	7.3290897648569215
O	-5.293536292015385	6.284582121273846	8.13113047485692
O	-6.122236762015385	8.242584351273846	4.964597604856921
O	-3.1160908120153845	10.428868471273844	5.432175244856921
O	-4.102275022015385	11.586968881273847	8.971224864856921
O	-7.774697302015385	12.132844381273845	8.02460231485692
O	-3.9594132220153844	-7.212272428726155	11.135517464856921
O	-2.0937542430153844	-4.184009728726154	12.47427336485692
O	-4.255147182015384	-1.0994881087261539	11.916663064856921
O	-3.5746774820153844	2.3901546232738458	10.46912786485692
O	-5.214583412015385	1.278919355273846	7.175018874856922
O	-2.3535368220153847	-1.283607288726154	6.785837324856922
O	0.5394855779846155	1.1855286512738459	7.356750444856922
O	2.0279375279846157	3.151624281273846	4.496763084856922
O	3.729239187984615	6.479337891273846	4.366363524856921
O	6.433975107984615	7.352179971273846	1.9322040648569214
O	7.582928197984616	10.672170581273846	0.3907001448569214
O	9.831025837984615	11.242879021273847	3.4531899548569216
O	6.8967859779846155	10.558202921273846	5.865460794856921
O	8.478296717984616	7.264012591273846	6.833217524856922
O	5.830134137984615	4.803202281273846	8.102552994856921
O	6.009738557984615	1.278392516273846	6.683524354856922
O	4.0870496679846156	-1.468503458726154	8.498700174856921
O	2.3641717179846156	-3.6223188287261543	5.824752794856922
O	-0.7792366840153845	-5.600987078726154	4.9472431248569215
O	-3.1082891720153842	-5.217669918726154	2.0228416348569214
O	-3.9256242620153845	-8.978388518726153	2.123743614856921
O	-5.958516382015385	-9.804620218726154	-1.0625635524430785
O	-5.875469032015385	-6.157986098726154	-2.2796354451430787
O	-8.144252842015383	-4.859437118726154	0.5205625348569214
O	-10.779071312015384	-2.417621298726154	-0.9718856995430786
