93

O	-0.14860788149850035	-2.021546149818333	1.9346058955083332
O	-3.7375074864985	0.6140271811816668	-0.7394020904916667
O	-1.7892090144985002	-0.5219443198183333	0.4995556055083332
O	-2.3962842764985	0.7138665461816667	0.29553240550833326
O	-0.7631732799985004	-0.4723783598183333	1.3310259955083334
O	-1.7301903704985002	1.9687654901816667	0.3266665255083332
O	-0.3217473274985003	0.7626783471816667	1.6878047255083333
O	-0.5292712744985004	1.9691276021816666	0.9588154755083331
O	-1.8672140064985006	-1.880466729818333	-0.1936150544916666
O	-2.7000970364985	-2.843290429818333	0.5981409055083333
O	-0.4643416954985004	-2.429884679818333	-0.09506410449166669
O	0.4988109935014996	-1.7436831098183334	-0.7548075214916667
O	1.7598777335015	-2.3168937598183335	-1.0164043694916667
O	2.6595511635015	-1.9072398998183333	-1.9354402284916667
O	2.0147183335014995	-1.115464149818333	-2.830101254491667
O	1.2285110235014995	-0.16084276981833323	-2.1496740564916665
O	0.14823695350149968	-0.6486523598183334	-1.3658010794916666
O	-1.0550992524985003	-0.2143755998183332	-1.8203865814916667
O	-0.5330305794985004	-0.010763879818333377	-3.024745704491667
O	0.7005588635014995	0.6289469781816667	-3.0564857744916667
O	2.2532697935014996	-3.3933162298183333	-0.3366929074916667
O	0.8234869535014996	2.0390351851816666	-2.998977954491667
O	0.5476464235014996	2.7813529601816667	-1.8361116074916666
O	-0.08774730749850035	3.845018770181667	-2.2381043344916667
O	0.40987518350149965	4.037775150181666	-3.467172784491667
O	0.5420818935014996	2.815359460181667	-3.9785012144916667
O	-0.13204939549850037	5.1742892301816665	-3.982702214491667
O	-1.3432286094985004	5.740579830181666	-3.3966579144916667
O	-1.3206736154985004	6.742062240181667	-2.295161734491667
O	-0.7457974474985004	7.859435330181666	-2.9885248744916666
O	-0.008189395498500396	7.547769540181667	-4.136038434491667
O	0.7313125835014996	6.284788420181666	-4.421289934491666
O	1.0762860335014994	0.5571379361816667	1.6651918455083332
O	-4.8567735064985005	0.9463986401816666	-10.817056244491667
O	-2.6267605964985004	1.9588943941816668	-7.983339994491667
O	-5.6102823164985	3.1818902601816665	-5.895077284491666
O	-9.3122845964985	2.708557320181667	-5.413465294491667
O	-11.477654966498502	3.437998240181667	-2.4105114144916664
O	-14.816153766498502	-0.9629690498183332	-0.8572954724916667
O	-11.497608866498501	-2.074957099818333	-2.3439800944916667
O	-8.757159356498502	-1.3378858498183335	-4.794845764491667
O	-5.122316636498501	-1.9949975798183335	-5.5291189444916675
O	-3.4375875164985	-2.8510010998183337	-8.786212364491666
O	0.04489286850149965	-3.2399376398183333	-10.108268444491666
O	0.7750306235014995	-6.886214809818334	-10.474820434491667
O	3.7257847335014995	-6.386558969818333	-6.594446734491667
O	0.6194743835014996	-4.6663306798183335	-5.432398304491667
O	-2.6293525964985003	-6.6817617598183325	-5.840374034491667
O	-5.4415483764985	-5.751074679818334	-3.536032634491667
O	-9.045560756498501	-6.591158229818333	-4.505365584491667
O	-12.709527566498501	-6.266488929818333	-3.4337558944916666
O	6.2505530535015	-4.971668569818334	8.949488255508333
O	4.5091323735015	-5.403631989818333	5.562301045508333
O	4.5037308135015	-9.087914689818334	4.5061283555083325
O	2.0096137235015	-11.055012889818334	2.439781995508333
O	-6.5915134364985	-11.181883889818334	-4.576213404491667
O	-4.200079186498501	-10.357278089818333	-1.6871101274916667
O	-0.6597090704985004	-9.995064189818335	-3.0046685144916667
O	1.7609963735014995	-7.492019679818334	-1.3708496654916666
O	5.310041023501499	-6.573517099818334	-2.2217487964916667
O	5.3621979635015	-3.305148509818333	-4.1104437544916665
O	6.3015753735015	-0.35899571981833334	-2.1011626234916667
O	8.065985763501498	2.001167860181667	-4.494552604491666
O	7.5082092635015	5.068757770181667	-2.342097754491667
O	4.0460838835015	4.262299980181666	-1.1996767069916667
O	2.9192983035015	5.515082740181667	2.1555861255083335
O	5.020979253501499	7.312086540181667	4.696573485508333
O	2.6313894235014996	10.270224460181666	5.093264275508334
O	2.7797346535015	11.085275190181667	1.4726777955083334
O	6.4982918635015	10.433266910181667	1.3024270955083335
O	5.0368989535015	15.641642410181666	2.751226095508333
O	6.7701216135015	15.485546910181666	-0.6772898494916667
O	-0.5922297444985003	6.264566200181667	11.692287455508334
O	1.8400178135014995	7.479114520181668	8.971804855508333
O	-0.8635968275885004	6.872263130181667	6.259118485508333
O	-0.6570362384985003	3.2025771901816666	7.319556015508335
O	3.2004013735014993	2.8161996101816666	6.965891155508334
O	4.7899388835015	1.9928149711816667	3.5314773455083333
O	8.1545938335015	2.7362362401816664	2.170790435508333
O	10.083267833501498	0.5610447101816667	-0.2039537244916667
O	12.7881875335015	1.2583024212816667	-2.8420484344916668
O	15.438599633501498	1.0129546031816667	-0.10982665449166662
O	13.546282933501498	3.4975465001816666	2.1527338055083334
O	6.8356501735015	-1.2905501498183334	6.557683475508334
O	4.1252912535015	-1.0146175398183335	9.208250055508334
O	0.8122345935014995	-1.9672353098183333	7.625149235508333
O	-2.9715675064985003	-1.2193149598183335	7.549643745508334
O	-4.9495931564985005	-0.35577874981833335	4.398547015508333
O	-8.0001580664985	-2.044328059818333	5.889375125508334
O	-10.857489786498501	-2.1615903398183334	3.280595385508333
O	-8.6326180264985	-0.3976256598183332	0.6913676655083334
O	-8.6507326264985	3.0024977901816667	2.538627825508333
O	-9.097587046498502	5.919304950181667	-0.03434605449166672
