93

O	2.447266485015625	0.48832505016718797	2.7255021890468756
O	3.2844921650156245	0.7394027821671879	1.6696388590468758
O	2.642271315015625	0.809562030167188	0.4899302390468758
O	1.3952959550156245	0.39177838616718796	0.1604962590468757
O	0.35062811801562477	1.245625461267188	-0.48255145695312424
O	-0.8607044949843753	2.132932386167188	-0.5608792289531243
O	-1.9466059049843754	1.677759597167188	-1.2898132119531243
O	-2.162813814984375	0.4436872851671879	-0.7158204099531242
O	-2.295738984984375	-0.8706331518328119	0.17172522904687582
O	-2.4579417749843753	-1.584590441832812	-0.9513056664531243
O	-1.2081250999843753	-1.556717801832812	-1.2170945079531243
O	0.13987122801562468	-2.0501438318328122	-1.7088607519531243
O	0.5540719850156248	-0.8490223518328119	-2.4452133009531245
O	-0.43782762898437527	-0.17765488183281208	-3.2259838409531243
O	-0.45085657698437526	1.2349467830671879	-3.4743186209531243
O	0.47709516501562477	1.9959736821671878	-2.906258120953124
O	0.5520959850156246	3.312542528167188	-2.7730753609531242
O	1.797323095015625	3.853209458167188	-2.898617430953124
O	2.916023075015625	3.232940878167188	-2.409166650953124
O	2.7791507450156248	1.900295508167188	-2.474880210953124
O	1.5575802450156246	1.3273690941671878	-2.4305784509531243
O	1.632800105015625	-0.07287115183281201	-2.3285555709531245
O	-0.9673811759843753	-0.078348181832812	-1.2226616399531243
O	0.021743936015624743	0.1440651581671879	-0.1761676369531242
O	1.1536438450156248	-0.5769418718328121	1.2381522190468757
O	1.4882741950156249	-0.4346669218328121	2.5195116790468757
O	3.2903638650156246	0.126963258167188	3.7526025990468757
O	1.3435126850156247	-2.309262371832812	-1.1900042469531242
O	0.16613770001562478	-2.8706407418328124	-0.6872631529531242
O	5.613616675015624	-0.32252055183281203	-10.993051780953124
O	4.910466845015624	1.0910895184671878	-7.579368530953125
O	6.733814335015625	-1.7417871218328123	-5.800535130953124
O	7.615342425015624	-5.373165901832811	-6.3756097409531245
O	8.416602485015625	-8.088497461832812	-3.9093034709531245
O	9.144899935015625	-11.732409901832813	-4.160527750953124
O	5.550836725015625	-12.981997901832813	-4.524526670953124
O	3.5766784250156247	-9.973993101832813	-5.661152950953125
O	3.7375809250156244	-6.508962651832812	-7.121427840953125
O	1.8548057750156246	-3.287574011832812	-7.266673580953125
O	1.1997897350156248	-1.0325466318328123	-10.188700340953122
O	-0.2742751469843753	2.320623028167188	-10.879836980953126
O	-3.6676140949843754	1.874340735167188	-12.378333280953125
O	-5.556082144984376	3.4318373581671877	-8.144077280953123
O	-2.9340144849843757	0.898356617167188	-7.021959390953124
O	-3.2032627149843753	-2.523976401832812	-8.702403240953124
O	-1.8393530649843752	-5.457417021832812	-6.760695330953125
O	-0.8610008239843753	-8.661287241832813	-8.768263600953123
O	-8.832890264984375	1.384717071167188	7.231520259046875
O	-7.755759424984375	0.7229845451671879	3.6465468090468756
O	-10.702221934984374	-0.14530889183281204	1.3593578190468758
O	-11.059996734984374	-2.4055606218328123	-1.6979476549531243
O	-11.162850934984375	-7.392410091832813	-7.977613410953124
O	-5.877582404984375	-7.947933961832813	-9.908970000953126
O	-6.880095054984375	-6.475132921832811	-6.530537900953124
O	-7.698618814984376	-2.7915424418328123	-6.946239160953124
O	-7.062862464984375	-0.2932799318328121	-4.167766320953124
O	-7.392600444984375	3.445606808167188	-3.8248381409531245
O	-4.132956634984375	5.139842938167188	-4.415696180953124
O	-2.5195084649843755	6.5320152681671875	-1.3232561499531243
O	-0.44234503198437525	9.506353238167188	-2.473953650953124
O	1.9773012550156246	9.336093748167187	0.36603788904687584
O	2.5943225850156244	5.627116148167188	0.48604414904687565
O	3.2443686250156247	4.241978608167187	3.794776289046876
O	3.4618770650156243	5.9253212581671875	7.174136419046875
O	7.009662115015624	4.670832098167188	8.045878429046876
O	8.477010395015625	5.917608798167189	4.757780839046876
O	6.480442005015624	9.118697138167187	5.058753339046876
O	7.802561945015625	10.078735088167187	8.540676709046874
O	11.419447865015625	9.135969078167188	7.628252019046875
O	0.8662644950156246	-7.278638501832813	11.565348219046875
O	0.1550672110156247	-3.723074461832812	12.686592119046875
O	3.296628825015625	-1.6422967718328119	12.069855819046875
O	3.9314419450156244	1.8403740041671879	10.579925119046877
O	5.194246695015624	-0.0523630318328121	7.517246689046876
O	1.4446957050156246	-1.484824501832812	7.166803899046875
O	-0.30195290398437524	1.975251714167188	7.424394419046876
O	-0.9127399839843753	4.132452418167188	4.350261969046875
O	-1.3625156459843752	7.796809228167188	3.9477621390468753
O	-3.5424910549843753	9.509402038167188	1.447182659046876
O	-3.4339887749843756	12.916002098167187	-0.29259505295312427
O	-2.879410244984375	12.847774398167187	5.202832109046875
O	-5.536813754984376	10.375178978167188	6.262320179046876
O	-3.940020634984375	7.197217308167188	7.695940159046876
O	-5.327023564984375	3.903334998167188	6.4247903690468755
O	-4.544985414984375	0.7675115371671879	8.399848259046877
O	-3.6366723149843754	-1.999432491832812	5.933315379046876
O	-1.5119271069843752	-5.118988291832812	5.372487889046876
O	0.8692508850156246	-5.589845621832811	2.399785879046876
O	0.23305838701562476	-9.357628301832813	2.660238739046876
O	1.8891487550156245	-11.123386601832813	-0.3536567249531243
O	3.166234965015625	-7.785572041832813	-1.7239654399531243
O	5.759576055015624	-7.343492351832813	1.0906351390468758
O	9.159390425015625	-6.024580071832812	-0.41384543195312423
