33

O	2.0153016010714695	4.57945544784276	28.57019425921399
O	0.31857959078584586	0.9394622087829947	31.863877532762142
O	0.9179967546000083	2.7638592890415423	30.151105301311496
O	0.25442276658884444	1.5471951582257528	30.280690376129158
O	0.9102783441092419	3.2377139943499658	28.917431411377454
O	-0.8632271579181209	1.1370557092144806	29.504761214861755
O	0.10151244225051581	2.609240370781837	28.023881399516664
O	-1.0363753800682287	1.812328876623088	28.340353664305308
O	1.4432245082356734	3.8069439577752653	31.13510919449356
O	2.9315249848748444	3.706338387046879	31.284913498547976
O	1.2259198156110624	5.125118602798849	30.43167663178491
O	-0.060054506997075485	5.473663557860965	30.189636285630552
O	-0.4105580122124448	6.796290005332317	29.85037347279626
O	-1.6380171167602768	7.352543367678633	29.926411748222435
O	-2.399668112709987	6.57874538292246	30.741433838434318
O	-2.2702738210285975	5.221439833522266	30.376216303153793
O	-0.9887730817542695	4.626744668042765	30.529515428643265
O	-0.9974014245039696	3.609440637581926	31.42855957043203
O	-2.08521178764181	4.115209409498875	31.998963718564045
O	-3.091149084981569	4.532271154266228	31.13517556013621
O	0.48142488431756814	7.712316430405962	29.371425843894258
O	-4.048221043215527	3.6358790005357484	30.59920766027156
O	-3.7246755084534784	2.66044425555208	29.63836055314632
O	-4.3786286760763	1.5894694221705437	29.987740664396835
O	-5.462746128720532	2.091749381932469	30.59420303854621
O	-5.015805933575886	3.142786330118506	31.278893692904298
O	-6.2750215349747105	1.0620826381904758	30.956297166895546
O	-5.750191947714018	-0.29864891418664063	31.019949349400488
O	-5.771080006853255	-1.232060304446612	29.860175041456614
O	-7.185764554379162	-1.4382956155792423	29.73411036704454
O	-7.996490353064244	-0.4443666096924752	30.293411166274087
O	-7.665619468320049	0.9983607686786242	30.47345303362908
O	-0.4135155405321762	3.717018812705639	27.313368498912766
