121

O	-2.6241647499761904	-1.9191872591702375	0.3506978829035712
O	-1.7270721609761903	-1.8658786891702375	-0.7892990600964288
O	-0.8055691759761905	-0.8714167291702373	-0.5026967542964288
O	-0.8691660549761905	-0.8221302791702374	0.9564869829035711
O	-1.8553184719761906	0.34252198982976256	1.2986730729035711
O	-2.1096126899761902	-1.0198991891702376	1.3321602829035712
O	-1.5888832439761904	-3.151440449170237	-1.1918027430964289
O	-0.2364422409761905	-3.337146139170237	-0.9041146810964289
O	0.0637445000238096	-2.732435119170237	-2.171342207096429
O	0.5836253900238096	-3.6348508391702374	-2.9469818870964284
O	1.1235491400238096	-4.555623929170237	-2.0687892270964285
O	1.8402084400238095	-4.070383139170237	-0.9644184460964288
O	0.9229194600238096	-3.263643189170237	-0.25766000309642884
O	-0.7086417929761905	-3.895283779170237	-3.5963916170964287
O	-1.3095639699761905	-3.1275454391702375	-4.589896827096428
O	-1.6323048159761906	-3.956038369170237	-5.686360917096429
O	-1.0154336503761905	-5.103056279170237	-5.686357257096429
O	-0.29381262397619046	-4.857496529170237	-4.602036307096428
O	-0.9775980923761904	-5.853629659170237	-6.934608427096428
O	-1.6047190609761905	1.5616024738297627	2.0377133429035714
O	-2.1265006699761906	2.8216103408297624	2.2121137029035713
O	-2.4197300499761902	3.2034759908297623	1.0105866429035713
O	-2.0668903299761903	3.991893890829763	3.0034820229035715
O	-0.9238273037761905	4.814526950829762	2.499877512903571
O	-0.6104431169761905	4.605948740829763	1.3203547929035713
O	-2.6890516699761906	4.5979845508297625	4.107391832903572
O	-3.3456948399761903	4.925766960829763	2.925209622903571
O	-0.8813138759761905	6.129095840829763	2.902681292903571
O	-0.036677497976190465	7.114394290829763	2.4502391329035715
O	1.1491114900238095	7.535361390829763	3.065909722903571
O	1.8934596100238097	8.610946880829763	2.5822734729035712
O	1.4250262800238098	9.332197950829762	1.5234137529035712
O	0.07634192002380946	9.199202120829762	1.3511367229035711
O	-0.6380689059761904	8.280984880829763	2.064221782903571
O	1.9017734300238098	10.618835870829763	1.467601402903571
O	-2.8346755699761905	-3.156187319170237	1.0118508529035712
O	-0.034772131976190446	-0.5993283091702375	1.977785492903571
O	-6.35612517997619	-12.552161369170237	-1.994214337096429
O	-4.25733815997619	-9.954402669170237	-3.677898597096429
O	-7.31591093997619	-7.725604639170236	-4.420116897096428
O	-10.72337950997619	-6.8917651591702365	-3.071013467096429
O	-12.77524647997619	-3.7371477291702373	-3.507634667096429
O	-14.817152079976191	-1.5988883691702374	1.3513072229035712
O	-11.56577327997619	-3.4162915191702368	1.8502572729035711
O	-9.32010726997619	-6.199491699170237	0.7437533929035711
O	-5.60229880997619	-7.103227159170237	0.6094763329035711
O	-4.015665469976191	-10.459072969170238	1.288922072903571
O	-0.6542508039761905	-12.078571569170238	1.0507971329035712
O	0.8320594800238096	-12.366873669170237	4.446887762903572
O	3.90072337002381	-13.727825569170237	6.210844232903572
O	6.478765890023809	-11.632936369170238	2.736889642903571
O	3.9820152500238093	-8.777451219170239	3.2480554729035713
O	0.6397463300238097	-7.437191229170238	2.1945446929035715
O	-2.1738570799761905	-7.435723229170237	4.662902222903571
O	-4.955129289976191	-4.909016909170237	4.304941212903572
O	-8.35793337997619	-5.614672059170237	5.936214272903571
O	-15.33541107997619	2.9389738108297623	8.647105762903571
O	-11.05717477997619	5.768232050829763	9.19978003290357
O	-9.29469063997619	2.448893880829763	8.33360684290357
O	-7.03438545997619	2.7232587708297626	11.42868665290357
O	-5.13636718997619	5.640248500829763	7.297021122903572
O	-2.4387621599761906	3.275994850829763	8.65627356290357
O	-1.4145516139761904	5.669073650829763	11.42249345290357
O	-0.8160777009761905	8.551123160829762	8.94920657290357
O	1.9212421200238095	6.465356770829763	7.293314882903571
O	3.58360626002381	5.488354640829763	10.56015365290357
O	6.419038510023809	7.972799910829763	10.49976055290357
O	7.08797442002381	8.167908270829763	6.7569501229035716
O	10.55301592002381	6.906899470829763	6.2079113429035715
O	11.780371920023809	7.612009340829763	2.7101163229035707
O	12.87548262002381	5.068934750829762	-0.003758521096428824
O	7.28885981002381	6.407589590829763	0.10649537590357117
O	5.52958464002381	3.2429982008297626	1.1570389029035713
O	6.26290461002381	2.2954547308297624	4.842087092903571
O	4.111681150023809	0.5799014768297626	7.495513672903571
O	5.372941870023809	-2.7190886891702375	8.953404492903571
O	2.6945393800238095	-2.3567785391702376	11.64737955290357
O	-0.8588426139761904	-2.921135229170237	12.68248115290357
O	-4.894975519976191	-5.660436729170237	9.84853205290357
O	-2.5138627699761904	-3.043518959170237	8.38537992290357
O	0.7244022200238095	-4.664133589170238	7.323489122903571
O	2.7586446200238095	-3.340808739170237	4.444645282903571
O	5.888892190023809	-4.496494769170237	2.722686612903571
O	5.244983350023809	-6.602477549170237	-0.24820046909642882
O	5.77023343002381	-4.854299549170237	-3.6089046470964288
O	6.421031910023809	-7.537540619170238	-6.240242487096428
O	5.47295020002381	-5.471099339170237	-9.26705608709643
O	2.2834624900238096	-4.066287849170237	-7.914735267096429
O	1.0771591300238095	-0.6042017191702374	-8.877399717096429
O	2.9765526800238096	1.5868067068297627	-11.348746247096429
O	0.04492366002380954	2.0534634828297627	-13.74782594709643
O	-0.4321578249761905	-1.6970450191702373	-14.18474124709643
O	3.29837037002381	-2.2051567291702376	-14.39138584709643
O	-0.7207633769761904	16.762627830829764	1.4659662829035711
O	-1.3476926089761905	13.525249430829762	-0.5057180419964289
O	-4.5331596599761905	14.551818530829761	-2.414944247096429
O	-4.53359519997619	11.481822530829762	-4.628727377096428
O	-1.1535486169761904	11.298427530829763	-6.377292007096429
O	-1.6041210729761906	9.193200060829762	-9.55997666709643
O	0.2819321200238095	6.194273090829763	-11.13959704709643
O	-2.4485522899761905	3.870673020829763	-9.756829727096429
O	-1.3295880579761905	4.953519460829763	-6.135182997096429
O	2.40887678002381	4.314197740829763	-6.640479437096428
O	3.8080503300238098	0.8380415458297625	-5.992449117096428
O	6.84481677002381	-0.8814486891702373	-7.371028737096428
O	9.06809872002381	-3.2588107091702367	-5.533783337096429
O	11.34782112002381	-6.186374959170237	-6.603228087096428
O	14.18568932002381	-3.679062019170237	-7.151232287096429
O	11.913252220023809	-1.4236906891702372	-9.32202942709643
O	11.86965192002381	1.0970112901297626	-6.522050337096428
O	8.73555762002381	3.2711254708297623	-6.723682497096428
O	6.85464066002381	3.820819780829763	-3.4740410470964287
O	4.34158951002381	6.663262030829763	-3.248950577096429
O	1.2532060900238098	5.343070180829763	-1.5124658770964288
O	-2.5781014899761905	5.580019610829763	-1.489789467096429
O	-4.915433849976191	2.4681017808297625	-1.7743753470964287
O	-7.44079226997619	4.437358910829762	0.46678754790357113
O	-10.348507189976191	2.1479012798297625	1.437208792903571
O	-8.917842699976191	-0.7281206691702373	-0.6360022980964288
O	-9.37996714997619	0.9808361738297626	-4.0171024770964285
O	-10.82025035997619	-1.6413068491702372	-6.5424367670964285
