92

O	-0.8292526394703122	-0.79645986203125	-3.131700696171875
O	-1.6963680844703122	2.5728854079687498	-0.9084638831718754
O	-0.7641480104703122	3.4856365679687498	-1.2653407811718753
O	0.3936534695296878	3.33977334796875	-1.9752840261718754
O	-1.5305154304703124	1.66175056096875	-1.8564957861718754
O	-0.24106638047031237	1.23695289796875	-2.0487940261718753
O	0.8273567195296876	2.08851068796875	-2.0658647661718756
O	1.8145462395296879	1.1613528111687499	-2.3255892161718754
O	1.3505388395296876	0.12194727996874999	-2.9090743961718752
O	0.07560754952968773	0.3854022239687499	-2.9991064961718754
O	-2.663561240470312	2.14663046796875	0.11229346082812464
O	-3.5942606304703126	1.0339366550687499	0.007521027828124582
O	-4.322873640470312	0.92726487096875	1.1881307238281247
O	-3.2191700004703123	0.4352439659687499	1.5656812338281247
O	-2.5460291704703124	1.70520910996875	1.3880817338281248
O	-0.7310611734703123	-1.3092520120312499	-1.7515416631718754
O	0.37773263952968783	-1.9749823220312501	-1.4211415821718754
O	1.4991301095296878	-1.19970696203125	-0.9596195931718754
O	-1.2620895852703122	-0.7407522920312501	-0.7854901949718753
O	-0.3674551064703123	-0.44021257203124997	0.1784554008281246
O	1.0514788995296878	-0.4804384220312501	0.14079165582812458
O	1.6404932695296879	0.62312980596875	0.5825892038281246
O	0.7162416195296879	1.53592255296875	1.0651495638281245
O	-0.14388137047031235	0.86245577196875	1.9358697038281247
O	-0.5458438834703123	-0.35881620203125	1.5494788938281248
O	-5.352274160470312	1.68683163496875	1.9091972838281246
O	-6.199270070470312	2.79117998796875	1.5818380738281246
O	-6.077892530470312	3.97986024796875	2.257699143828124
O	-7.539387470470312	3.6145669779687504	-9.238550496171875
O	-5.760768810470312	4.10739545796875	-5.970765796171875
O	-8.154998520470313	1.61156343496875	-4.302919886171876
O	-10.286880490470313	-1.4298482420312502	-4.858383936171875
O	-11.332633080470313	-4.14434755203125	-2.4759775161718753
O	-13.312061480470312	-7.28798752203125	-2.9625256661718753
O	-10.508238180470313	-9.456473312031251	-4.411819866171875
O	-7.898848480470312	-7.03101954203125	-5.665997076171875
O	-7.233807210470312	-3.5090247820312497	-6.727847946171875
O	-4.446640450470312	-1.0277346620312502	-7.000281006171875
O	-3.5896420904703126	1.44216007296875	-9.683381466171875
O	-1.2031603123703123	4.25481954796875	-10.290038146171876
O	1.4939112295296877	3.07607215796875	-12.567227806171875
O	4.578888569529688	3.13386944796875	-8.775751096171875
O	1.5626474195296878	1.32535402396875	-7.478362206171875
O	0.26120644952968775	-1.5999035520312501	-9.505107916171875
O	-1.6487833364703124	-4.32573718203125	-7.757033886171875
O	-4.025037290470312	-6.60607407203125	-9.677652686171875
O	10.153350419529687	-2.91293071203125	4.7576580238281245
O	8.208318569529688	-2.4015880720312497	1.5336221138281247
O	10.138184519529688	-3.67918269203125	-1.5162206101718754
O	8.916974019529688	-5.21179597203125	-4.7627071161718755
O	6.0324424895296875	-8.603071432031252	-11.368511706171875
O	0.6382311795296878	-7.21167562203125	-11.936414406171876
O	2.711333019529688	-6.75029898203125	-8.735505676171876
O	4.641442089529688	-3.50676129203125	-8.892236506171875
O	5.449459019529688	-1.52871786203125	-5.742363436171875
O	7.186669059529687	1.78075641696875	-5.122941176171875
O	4.556790679529688	4.50005038796875	-4.651925826171875
O	4.208321919529688	5.76702972796875	-1.1444841071718754
O	2.9907191495296876	9.30023251796875	-1.2685598891718755
O	1.454242999529688	9.27235965796875	2.146802983828125
O	-0.36440817947031223	6.02109618796875	1.9499530038281245
O	-0.8317118364703122	3.99249485796875	5.0298113738281245
O	0.34514593952968764	4.96973862796875	8.481265463828125
O	-3.0881026404703125	4.70565040796875	10.117155293828125
O	-4.658581860470313	7.11551024796875	7.661550783828124
O	-1.6496649294703123	9.360598627968749	7.804701913828124
O	-1.8109886534703121	9.83688620796875	11.600517493828125
O	-5.614090030470312	10.32179701796875	11.630250493828125
O	-0.8150746334703123	-8.952638812031251	10.309165693828124
O	1.3022704995296877	-6.13378782203125	11.714565893828125
O	-0.9853999594703122	-3.1145191520312494	12.271785693828125
O	-0.7384296544703123	0.6235271109687499	11.353724593828124
O	-3.1566561504703126	-0.026038352031250156	8.419559073828125
O	-0.4135286414703123	-2.32684298203125	6.985282383828125
O	2.532141489529688	0.15742398096875	7.2471657138281245
O	3.2149249395296877	2.68217311796875	4.477043953828125
O	4.775345469529688	6.07023641796875	4.4583718138281245
O	6.786382429529689	7.51342550796875	1.6549140638281246
O	7.469799639529689	11.10477468796875	0.4608450138281246
O	8.139094569529687	10.01705096796875	5.836414723828125
O	9.976627919529687	6.70698449796875	5.7969929338281245
O	7.771298689529687	3.91792987796875	7.230095153828124
O	7.674882639529687	0.68758532496875	5.251330733828125
O	6.231530099529688	-2.43422435203125	6.885472933828125
O	3.901002899529688	-4.13004466203125	4.385948703828125
O	0.5558120095296877	-5.90828938203125	3.9562358138281253
O	-2.2799660884703123	-5.3228500420312495	1.7624221338281247
O	-2.860880970470312	-9.041229112031251	1.3996930838281247
O	-5.622838840470312	-9.638607912031251	-1.2156852831718754
O	-5.976232790470312	-5.90002849203125	-1.8114485661718753
O	-7.527832220470312	-5.16722980203125	1.6486377938281247
O	-10.524116750470313	-2.6706095720312497	1.2996718638281248
