91

O	5.229629007427692	2.2587468359292324	-4.366420778630769
O	4.036914527427692	2.0066066159292326	-3.5431132086307695
O	-2.5540863725723075	-2.4037964540707675	-1.1864614451307691
O	3.508286467427692	0.9799027759292325	-2.8797996986307695
O	2.9561412874276924	2.7260916659292325	-3.8591988186307695
O	2.096674407427692	0.9132276990292324	-3.053647868630769
O	0.7484761574276925	-3.0991606640707676	0.5459337113692309
O	2.041028147427692	2.299685055929232	-2.950552628630769
O	-0.5089130585723076	-3.4408533940707673	0.27332552136923094
O	1.4134299374276922	-0.15614333407076764	-2.379028448630769
O	0.6567771274276925	0.23659567692923245	1.2842617713692308
O	1.8662275174276926	-0.5137647740707676	-1.247836308630769
O	-0.026854992572307612	-1.7285416940707674	-1.242939655630769
O	2.1106124474276924	-1.8624385440707676	-1.0050728517307692
O	0.23576167742769238	-0.6194750840707677	-2.035056633630769
O	0.9638322074276925	-2.2087124340707676	-0.4245821776307691
O	-0.9221599089523076	-2.4449470340707675	-0.5070920316307691
O	-2.3416684725723074	-0.7883699540707676	-0.8223939146307692
O	-2.5845713425723074	-0.6533976840707676	0.5700498913692309
O	-1.3712892965723076	-0.8299852940707675	1.0721561413692309
O	-0.5224290825723076	0.13302772392923246	0.7560386313692309
O	1.4297259774276925	1.1008783339292325	0.5667718213692308
O	0.9306928874276924	2.1534256759292325	-0.13529352963076913
O	-0.20047960257230757	1.9206102359292325	-0.7610639286307692
O	-0.9743793869723075	0.9080772686292324	-0.38808525463076915
O	-1.7442590745723074	0.27404231492923237	-1.394482561630769
O	1.2696432374276925	-5.841033404070767	-11.03775009863077
O	2.4610163974276924	-3.8424217940707677	-8.16153916863077
O	0.6553475574276925	-0.6793893540707676	-9.47176440863077
O	-2.3536028625723078	0.38811631492923243	-11.48132414863077
O	-4.265155512572307	3.630057935929232	-11.28543644863077
O	-7.341968212572308	4.807546425929232	-13.060274248630769
O	-9.933642652572308	2.9200067059292323	-10.96015865863077
O	-8.015432192572307	0.15154726892923243	-9.24301616863077
O	-4.958935422572307	-1.9801456940707678	-9.33916250863077
O	-2.7881140925723074	-4.039462494070767	-7.090547288630769
O	-1.1213921275723076	-7.349756604070768	-7.491731728630769
O	1.3174317374276923	-9.619219464070767	-5.744602628630769
O	-0.5387118175723076	-12.407038564070767	-4.109980568630769
O	0.36033821742769245	-10.445888264070767	0.2795882913692309
O	-0.9090320713723076	-7.5596062640707675	-1.859066573630769
O	-4.1652369425723075	-7.987463694070767	-3.7087803686307694
O	-6.242762352572307	-4.959567394070767	-4.586187248630769
O	-8.822509182572308	-5.053468704070768	-7.345152588630769
O	-2.2526557225723076	0.7537782475292324	11.15382735136923
O	-2.4575325525723075	-1.3761983740707677	8.01254617136923
O	-4.542639832572307	-4.492009824070768	8.58660466136923
O	-6.815540812572308	-6.424053504070768	6.288272441369231
O	-11.639617142572307	-10.105941264070767	1.229998941369231
O	-10.203380202572308	-8.774256444070767	-3.9771966786307695
O	-8.998462462572308	-6.901236724070767	-0.8330266946307692
O	-6.045283222572308	-8.693679694070767	0.6476414113692308
O	-3.3784654125723077	-6.833775134070768	2.5498433513692307
O	-0.11093700657230754	-7.807882714070766	4.150275661369231
O	2.8326707574276924	-7.138281574070767	1.8820373413692308
O	4.953347577427692	-4.193065624070767	3.011504971369231
O	8.403072137427692	-4.642847094070767	1.5746776313692308
O	9.350681357427693	-0.9704129540707676	1.582311721369231
O	6.1933611574276926	0.3912884849292324	0.09364426136923076
O	5.001237767427693	3.8808038159292324	1.0802055713692307
O	6.779875907427693	6.1658467259292316	3.363248811369231
O	7.055184437427692	9.003283335929233	0.8016581913692309
O	8.851393617427693	6.926561735929232	-1.760034907630769
O	10.940221657427692	5.301237865929233	0.941517501369231
O	12.352707957427691	8.586535305929232	2.316563211369231
O	13.005114757427693	10.035070865929233	-1.179817509730769
O	-6.172259122572307	11.611287335929234	3.855684901369231
O	-3.2006948225723075	11.289730335929233	6.183727921369231
O	-0.03581651857230761	11.995563235929232	4.135118431369231
O	3.322764087427692	10.154550655929233	3.7015772513692307
O	2.0740358374276924	8.705260915929232	0.36797060136923077
O	-0.6564419625723076	6.960871815929233	2.519187381369231
O	1.7089349774276923	5.363139635929233	5.147577151369231
O	3.399294537427692	1.9989286359292324	4.506127411369231
O	6.619355237427692	0.5137294449292324	5.7057452513692315
O	7.220814117427693	-3.1576917040707673	6.336499211369231
O	10.342283257427692	-5.375996604070767	6.240979711369231
O	10.980703457427692	-4.392415614070767	9.88672675136923
O	10.616967957427692	-0.6185111640707677	9.07545195136923
O	7.284090717427693	-0.6033816040707676	10.88442625136923
O	5.067442717427692	2.2465627859292323	9.63004505136923
O	1.4650067174276922	1.3197437489292323	8.93556715136923
O	-1.0656025165723075	4.135969645929233	8.487282651369231
O	-3.1931462925723078	3.293010845929232	5.415963081369231
O	-4.945714962572308	4.687100715929232	2.3991346713692305
O	-4.829909942572307	3.8914244259292325	-1.1607943205307691
O	-8.380283602572307	4.777863415929232	-1.6845987346307691
O	-9.422976102572308	3.7729930559292324	-5.2297467486307685
O	-5.890479122572308	2.4381029659292324	-5.998092678630769
O	-4.315733342572307	5.948140885929233	-6.0700441186307685
O	-1.8742717325723075	6.220443765929232	-9.09093303863077
