29

O	-1.1291499462490844	0.8993478768881822	26.573352756786782
O	-2.034726723120233	0.6475808174599038	27.57103922425786
O	-2.035345216164691	1.5860710722781666	28.534531843552088
O	-1.1120400146562912	2.5397262440541475	28.810333923007896
O	-1.4035423298896466	4.000493299389411	28.933143094622384
O	-1.4964964384155959	5.437677940948189	28.501129949064175
O	-0.7255299325027368	6.365800126980561	29.18076863705455
O	0.5293416300623962	5.8053822553915175	29.07889990285042
O	1.880897224441132	5.040443370267006	28.73103419518246
O	2.2739871224935833	5.205074446614909	30.002104645639516
O	1.5210306261221498	4.259415651059845	30.417132681314143
O	1.0836440970813643	3.0664480338386673	31.246541310758154
O	-0.28935974234333983	3.4979425993529505	31.538334131252807
O	-0.49440962707293235	4.87524655161158	31.86266440739825
O	-1.6929529551538347	5.605312000411781	31.56638462188664
O	-2.666728212759033	4.998295036347113	30.898371701870502
O	-3.7418463077259703	5.491330815622458	30.300247050105774
O	-4.874123920317961	4.738075779632657	30.396300966181318
O	-4.848674345775112	3.3699256393675787	30.338835015583964
O	-3.7112022681351213	2.8999433413443234	30.872004689331526
O	-2.5850649666252834	3.6444021616766307	30.86586862823182
O	-1.4651430267789292	2.914142073652911	31.30087954118737
O	0.192787343212093	4.73136483494436	29.910576551674374
O	-0.2609315680528864	3.678361120337523	29.011516928568845
O	0.06332348708991226	1.962442320692674	28.14443531267608
O	0.08023700969548164	1.3448010481947041	26.9644629021807
O	-1.0364538268305679	-0.29073605269041636	25.886738994103574
O	0.7781517080798233	1.7821240539200562	31.040887323610374
O	1.982490728528437	2.350711847503854	30.6161737942564
