31

O	-1.6329701182562406	4.741529650281899	30.046431230841673
O	-2.351221474685441	5.950450076723506	29.89657232575625
O	-1.856519565547078	7.169528038561491	29.923584050147618
O	-0.6034378086150736	7.101740728029757	29.997473243674317
O	0.2523399317950612	5.993702547977786	30.211468564441816
O	-0.27438863879106634	4.743300205042121	30.177934876549102
O	-2.1997579618294383	3.9389637409532186	30.96892631124406
O	-2.7368830147988454	5.063951069862702	31.496000486607475
O	-3.410660761131213	5.832295084897558	30.65785806485634
O	0.4936882141043588	3.640983426121953	30.50138916488095
O	1.7964259070904667	3.7515673326296177	30.263889049507746
O	2.347815662821502	3.2864344895717403	29.10528778856
O	3.351983508412749	4.07646835151329	28.64109988839681
O	4.36300294939099	4.26303604356485	29.486581951439035
O	3.871501490739883	4.579964476814437	30.7885905261254
O	2.5854826765761576	4.383047394421752	31.16670221112963
O	5.780104137937262	4.075239423151379	29.19548189954
O	5.890234947896822	5.086997550979127	28.30149106344264
O	7.314200357189934	5.189602262752567	28.43656809108736
O	7.989727879787479	4.362955627138921	27.579801593453745
O	9.362775613079005	4.257070532402209	27.213142188918667
O	8.922989600658596	4.366919623772318	25.76498744753707
O	5.560785937834215	4.724866349960051	27.114783079668708
O	7.520212505485776	3.1695758208483857	27.592008477161876
O	10.040584995845062	4.3290430178278285	25.00809702762634
O	9.807408513571719	4.008886735237519	23.66727225235807
O	9.22903112428709	5.133824175752014	23.082033043336136
O	8.166416119364271	5.495148856251501	23.80655606793683
O	8.394802395266524	5.428781529974797	25.143577659822203
O	2.145949652461605	4.437956597333985	32.458424297377775
O	9.43540228035609	5.566689946920562	21.83137311944364
