45

O	-6.83415458700577	0.46854490930665094	30.518664563332777
O	-6.950486830244365	1.8473651521883623	30.675732255687507
O	-8.801344534188269	0.34204100056669606	30.68097594260675
O	-7.768668269031869	-0.40195161100340293	31.190488733081594
O	4.849385971729879	3.2952865797218305	30.783189958623215
O	-3.9128451744005006	1.7799019708293948	30.574777647381627
O	-8.935359532823828	1.3321695366157669	31.58933115986376
O	3.7720879407189427	3.0142954625282394	29.45900977293164
O	-5.517675007459895	3.4697807229104036	30.72773421123474
O	-8.152233399500105	2.48656823913624	31.100242947755714
O	-2.917089824683566	6.45876115415199	30.962636400806172
O	0.245393713297553	3.808883764591849	31.351850173765893
O	7.5841888328933305	3.8509264857915046	28.16134427901541
O	5.703599831639074	5.04711591010221	30.8905417293546
O	8.184198836679249	4.998794977908574	27.723186051823692
O	9.571817567997071	5.28430405989814	27.874389486757217
O	10.200857029537051	4.332316290547887	27.06722912575236
O	9.762678795990025	3.0877436193538177	27.14425353679713
O	8.408411698740311	3.221190971715805	27.17860158876828
O	4.29964144759927	4.493201406503117	28.74411687280022
O	5.275603062093319	4.39321768948769	30.00824521435401
O	5.310070805898753	3.073343028063968	29.371373572117587
O	2.9148286327519766	3.5149357748840075	28.861935851918687
O	1.3304805368136994	4.427633724080222	30.869920663929072
O	2.1418530559611946	5.347011697097935	31.489341825886264
O	3.424888172908545	5.501297582011583	30.79694858860966
O	3.90265637829373	5.493896296405759	29.32667535527311
O	2.366364856855185	5.575475732881199	29.36978793202501
O	1.211359659123567	4.828357729887659	29.581602292845417
O	-1.9663099423467707	4.362171968765086	31.35283425979014
O	-2.226195445485762	3.02670514878332	31.441106032155194
O	-3.5598619982152955	2.6782396609806463	31.54750416429024
O	-4.464203748158049	3.639594410639061	31.710813262892344
O	-4.272939178985286	4.9811615453667715	31.916703187970967
O	-2.9795423470918387	5.251708101566695	31.467247437349634
O	-1.6925488851717687	6.9034812985554845	30.748322858411527
O	-0.6244571715887459	6.142025654841596	31.039075768308784
O	-0.7283399911054675	4.809746894117575	31.422396458775246
O	6.175642070861535	3.4769622390992216	28.302301026090014
O	-6.4379015918166775	4.0615630270646985	31.40070577994779
O	-6.463414266763532	3.034177830003536	32.49117527779059
O	-6.319529391528432	1.6430455848844607	32.02804811205106
O	3.4324130200052796	2.743385303584218	31.2731642516038
O	-4.283942250835564	2.4410674353059347	29.46162311547611
O	2.0850492903568485	5.409189693516192	32.829854624584804
