92

O	-3.4011161591145163	-1.3950695243290323	0.40927745681500016
O	1.7306040208854836	-1.036340894329032	1.4677128568150002
O	-0.15865599911451622	-2.0213817043290323	3.2571410268150007
O	-0.37921472911451626	-1.457398434329032	-1.9663190131849997
O	-1.5687782400745163	-2.005767834329032	-1.4288104621849997
O	-1.5132017435145162	1.347757474170968	0.8669910068150002
O	-1.0959891101145163	3.648528905670968	0.9091908468150003
O	-3.6080721491145162	3.9314754356709676	-1.0339763341849997
O	-3.8914345491145164	1.8916853606709678	-0.5718526261849998
O	-4.797146879114516	-0.023931664329032154	-2.4601412331849994
O	-5.979433389114517	1.7438765516709678	-3.4895418931849997
O	-4.978354749114516	-1.0606560143290322	-3.565859183185
O	-6.439845009114515	0.6438053946709679	-4.454572663185
O	0.6272799008854837	-1.866771444329032	-0.9635280941849997
O	-1.7799578571145163	-1.5205624943290321	-0.0893035771849997
O	-1.9563750201145162	2.648304895670968	0.6120445168150002
O	-0.3953352891145163	1.229667453770968	1.6266666868150004
O	-3.1419933191145164	2.953083235670968	-0.2232009911849997
O	-0.8036360241145162	-1.5688235843290321	0.8593936468150003
O	0.41682018088548367	-1.653351614329032	0.39385227681500035
O	0.42840202088548374	2.335097565670968	1.821364856815
O	-4.747292049114517	1.3428110242709679	-2.7652980131849993
O	-0.9058217911145162	-1.1119309143290323	2.327901706815
O	1.7518821908854836	2.2137530736709676	2.3471010268150003
O	0.1611364108854838	3.5901556356709676	1.3545804268150003
O	-4.673659449114516	3.491288795670968	-1.7617742111849997
O	-5.610020839114517	-0.4697297343290321	-4.704477473184999
O	-4.573292719114516	2.193434410670968	-1.6682981141849997
O	-0.0642438291145162	0.09506797567096781	2.310807696815
O	1.747257150885484	-1.1015387043290323	-1.3451535451849996
O	-11.172584979114516	3.3768776356709678	4.930097036815001
O	-8.601769549114517	3.148642675670968	2.228203706815
O	-9.428466449114516	-0.5846307343290322	1.7122262668150003
O	-10.667914809114517	-3.6736124443290326	3.502724976815
O	-10.099221439114517	-7.346693544329033	2.7821403768150006
O	-8.472043189114515	-10.391900914329032	7.313703976815
O	-7.219203989114517	-6.8163989243290315	7.438227076815001
O	-7.896723459114517	-3.228965984329032	6.522407336815
O	-6.1634020491145165	0.04163886567096786	5.813734646815001
O	-7.118236389114516	3.484328065670968	7.0020589468150005
O	-6.033587749114517	7.034882385670968	6.443620576815
O	-4.057938059114516	8.189248605670969	9.349718736815
O	-0.07063398911451624	7.882517365670967	6.506595766815001
O	-1.7849611541145163	4.639336425670968	5.870593376815
O	-2.721932869114516	2.581204335670968	8.964763716815
O	-3.0582426491145163	-1.1146584543290323	8.585433176815
O	-5.176796239114516	-3.117376074329032	11.066031936815
O	11.312083020885483	-0.40463885432903224	-0.8015342361849997
O	8.305564860885484	0.5323773286709679	1.3676410468150004
O	9.376208820885484	1.591197435670968	4.8854259168150005
O	7.615163360885484	1.1857821136709679	8.209853286815
O	-1.6030228000145161	-0.7525793043290323	13.986720236815
O	1.1882063708854838	-0.9182145843290319	11.356712036814999
O	1.9298000708854839	2.538180925670968	10.090243836815
O	3.121565340885484	3.207921605670968	6.5697557868150005
O	3.964985120885484	6.326974795670967	4.668262686815001
O	0.9999118008854837	7.222066685670968	2.415682346815
O	1.504949810885484	6.375271975670968	-1.1614117261849999
O	-0.5648836441145162	8.925189185670968	-3.0739483231849993
O	-0.8974520631145162	6.8751476456709675	-6.214471093185
O	-1.7002128401145162	3.611792165670968	-4.548930863184999
O	-0.42224980911451615	0.4764672846709679	-6.224718423184999
O	1.4471275308854836	0.2194324756709678	-9.453904063185
O	-0.9834376741145162	-2.137655534329032	-11.196722763185
O	-3.8929246191145164	0.18560434567096795	-10.680616543185
O	-1.8307469631145161	3.203733515670968	-11.512959563185001
O	-4.320041869114516	0.6770613746709678	-15.819055063185
O	5.140026580885484	-12.270074614329031	-3.996067393185
O	6.666463110885484	-9.674751714329032	-6.322691083184999
O	3.8906872008854836	-8.436978614329032	-8.659941193185
O	2.6633371108854837	-4.952256764329032	-9.742457143185
O	-0.2803377391145163	-5.162787444329032	-7.225964013184999
O	2.473505630885484	-5.396821074329032	-4.5622412431849995
O	4.433618980885484	-2.1896872843290325	-5.644111923184999
O	3.360610510885484	1.326854902070968	-4.489263873185
O	3.7633766808854836	4.687789915670968	-6.008012873185
O	4.256970440885484	7.862379115670968	-4.082601173185
O	3.431400620885484	11.520892185670968	-4.8697503231849995
O	6.824390300885483	11.815806485670969	-6.641994663185
O	6.143120660885483	8.660225725670967	-8.759742183185
O	8.707940720885484	6.764001915670968	-6.725536943184999
O	7.989317330885484	3.005026065670968	-6.799351693185
O	8.199170940885484	1.233080328670968	-3.4591155531849997
O	8.390980590885484	-2.5768154143290323	-3.442330713185
O	6.0849430308854835	-3.9623415943290325	-0.7585718357149998
O	3.660555100885484	-6.843044034329032	0.14265616281500026
O	0.033861020885483706	-6.391036804329032	1.2560038068150001
O	0.27506645088548387	-9.588052914329031	3.334017196815
O	-2.9897869691145162	-9.959681914329032	5.399931146815001
O	-4.482487199114516	-6.7384736843290325	3.8376360868150003
O	-4.969089729114517	-8.392645724329032	0.3953764968150002
O	-8.474576199114516	-7.386158914329033	-1.0701812331849998
