43

O	-0.9933518904079157	6.675914984458606	29.973546288049562
O	-1.2776814704356265	5.696023489492137	30.935629326266685
O	8.020432726297678	4.179525734618035	23.32113534222716
O	9.371312702774194	5.850381830167357	23.776309726370197
O	8.051330201704763	3.998424379281875	24.737307023063156
O	8.809799898493536	6.002767293531832	25.078559363583604
O	3.324373539020361	3.4606197747768688	29.180162831414513
O	2.516719295101737	2.6563810275687065	30.03527592488655
O	1.35689737931518	3.695530760732284	29.64757334000205
O	3.784474422142198	4.581899706628185	30.902156032209863
O	-0.7026243584114289	3.5995057705650138	28.637927584437076
O	-9.25947131313919	2.9081934575104174	30.542093745763694
O	-8.941470301224829	1.073228625588662	30.147193494427853
O	-3.6351317113648527	2.533084375682951	30.495639376785228
O	-7.798920517469709	3.169709212538891	30.735429247493613
O	-7.527020098060369	1.3776127934077218	30.488514435428293
O	-5.260894668942652	2.6100604241214462	30.548393674460755
O	9.168647638933617	2.9686423394211587	28.084750003569276
O	8.953976071479614	4.071188107366328	28.98849512788856
O	0.26265375335701524	2.6786875652318214	30.051236778445606
O	-0.7547096650851814	5.695752631802552	29.006376227473417
O	7.628141198951861	5.216920719987883	26.950603420393648
O	6.8694004806899525	3.115793334779647	26.56176487461584
O	5.9445547623875115	2.596046083439835	28.38953433318891
O	7.464754513189758	3.9594072320639238	27.322154586502112
O	6.587213194089791	3.5101853263182976	29.108086616387574
O	8.419809831401857	5.429512890515365	22.84676608234102
O	7.835680552530083	5.111065000914772	25.59877205503642
O	4.295562460834296	4.197278008907755	29.74265014726555
O	2.715930100556876	4.102298195409945	31.585360934688694
O	-1.1465506693870247	3.021721404730993	29.975482279602222
O	1.7973379315694313	3.2529954096614784	31.116444403417
O	-0.26279810257283454	4.78117810651329	30.946187817738508
O	0.5411060864052288	4.788479431028064	28.7990380152558
O	0.9662788594153058	4.949214112231837	30.0687179818392
O	7.887330493753467	3.1714178557891697	28.581355940104665
O	5.62729047499274	4.51314360087228	29.26299927493907
O	-6.586424441265786	2.441843545411434	30.35026497868827
O	-10.02586401324898	1.7637690849894452	30.63894541237203
O	-2.3763690757554654	2.8401151471861006	30.540323375443123
O	0.4835588325656144	3.7090947827935423	31.65718365287041
O	8.518496155333613	5.769196607402183	21.53880579107295
O	2.441436301052326	4.648638284532626	32.764994801075666
