97

O	4.028909001893751	-2.682890417784376	-0.5319244024218754
O	3.8668668118937504	-1.5380925877843759	-1.3144343889218755
O	-2.4952756781062497	-1.8666528677843757	1.4657576500781244
O	3.2110200018937496	-3.2817979377843756	0.3033803500781245
O	-0.15422562810624996	-0.19910829178437572	-1.2001849929218755
O	2.5718584618937497	-4.323201147784376	0.8063193900781245
O	2.08664619189375	-2.464350667784376	0.41089504807812455
O	0.22847074589375005	1.4987305122156243	-2.377624239921875
O	1.13767507189375	-4.864412197784375	4.234774870078125
O	1.77794570189375	-1.8825665777843756	-0.7765847699218755
O	0.06583575789374996	0.46552934741562424	-3.1593973599218756
O	2.6035717218937497	-1.0616898777843757	-1.5104508699218755
O	-3.2896385281062503	-1.3743339877843759	2.5134928000781245
O	0.49035703189375	-2.337962077784376	-1.1596487659218755
O	-0.29293409710625	-1.957901377784376	-2.0990098299218753
O	0.80010626189375	-1.5623320577843758	-3.0700411699218755
O	2.09064344189375	-1.0103813977843759	-2.7170295299218754
O	-1.55406387010625	-1.5258292177843757	-2.5130391399218754
O	-0.72211678280625	-0.22228436378437577	-2.4809574199218756
O	-2.76649131810625	-1.6152128877843759	-1.7314947699218755
O	-0.13743833010624995	1.1039897482156242	-1.0903539499218755
O	-0.37354002510625	-0.8794120077843757	-0.08472038792187547
O	-0.45895703310625	-0.5317450337843758	1.2078272800781245
O	-1.02408915710625	0.6107732932156242	0.9877378800781245
O	-1.41257490210625	1.2514033242156244	-0.23584719292187545
O	-1.0750792801062499	-1.851000567784376	1.5428240700781246
O	-2.5688105381062503	-1.7453685277843758	3.664812510078124
O	-1.36872160610625	-1.8920184477843756	2.9759356300781246
O	-3.43610871810625	-2.9913521677843757	4.199562850078125
O	1.9710337818937498	-4.794319317784376	1.9076512300781245
O	1.02314467189375	-4.301017667784375	2.9404736600781245
O	0.18483311489374998	-4.447295167784375	5.132096000078125
O	-2.27881364810625	2.225360342215624	-0.46941194870187547
O	3.4112125218937503	-11.526230417784376	-3.8044735899218756
O	3.3276074218937506	-8.544625127784377	-1.5544396299218755
O	-0.29363775110625	-9.445921027784376	-0.5654949169218755
O	-3.4757735681062503	-11.042224717784377	-1.7544491899218755
O	-7.0471226381062495	-10.414228317784376	-0.6888358639218755
O	-10.30720688810625	-11.743970817784376	-1.9309953399218756
O	-10.64063793810625	-9.524114827784377	-5.037362369921875
O	-7.15037795810625	-8.243477707784375	-5.746083319921875
O	-3.4747578681062503	-8.745967837784375	-5.168310729921876
O	-0.21552328610625004	-6.861645697784375	-5.070743489921876
O	3.1626711818937503	-7.848350877784377	-6.414455709921875
O	6.68414365189375	-6.560973507784375	-6.287004349921875
O	7.47049427189375	-5.045114837784375	-9.595436489921875
O	7.233478171893751	-0.6622616477843757	-7.439893609921875
O	4.097391641893751	-2.370808827784376	-6.128030279921876
O	1.90093843189375	-3.8826330177843755	-8.852051689921876
O	-1.7605127451062499	-4.168917317784375	-8.035151589921876
O	-3.91221949810625	-6.7012783777843765	-10.033981009921876
O	-0.64624457210625	11.571054782215624	-1.0352361489218755
O	0.19071860089375003	8.310831302215623	-2.8661086599218755
O	0.8913265218937501	8.783765762215625	-6.622081449921875
O	0.33010681189375	6.501605982215624	-9.623261319921875
O	-1.97213112810625	-3.5734673877843757	-13.695251549921876
O	-1.93981681810625	-0.4076344487843757	-11.560106449921875
O	1.6261795418937501	0.5548394512156243	-10.710846449921876
O	2.4785643318937502	2.189123052215624	-7.339091289921876
O	5.6650271118937505	3.469628992215624	-5.917077399921875
O	6.88668956189375	0.9611724022156243	-3.4404512299218757
O	6.419593481893751	1.8958165822156243	0.09472194507812454
O	9.26659556189375	0.24210967921562423	2.0063569700781243
O	7.60145331189375	0.39851155641562425	5.362842150078125
O	4.20532006189375	-0.6650172677843758	4.086608060078125
O	1.21089418189375	0.8126963662156242	5.880247600078125
O	1.2572621518937501	3.0799674522156244	8.888751900078125
O	-0.78901518530625	0.8244807262156242	11.193032250078124
O	1.5704700518937498	-2.108994957784376	10.797721750078125
O	4.5529426218937505	0.16418537121562424	11.030185150078124
O	3.62438359189375	1.6585349922156243	14.447936050078125
O	2.64487992189375	-1.765043267784376	15.894247650078123
O	-11.898317338106251	5.477853222215625	4.300460650078125
O	-9.176897258106251	7.430460492215625	6.104038710078124
O	-7.56846988810625	5.0999725622156244	8.668683080078125
O	-3.9168459881062496	4.2148439822156245	9.561178350078125
O	-4.33076165810625	0.9964020992156243	7.605343990078124
O	-4.80637629810625	3.0954785422156244	4.403657430078124
O	-1.69976044910625	5.348581552215624	4.924604830078125
O	1.6757690418937499	4.197278742215625	3.5746622800781243
O	5.15688969189375	4.909003262215624	4.633982550078125
O	8.101161801893749	5.1338772622156235	2.3564014000781244
O	11.874570361893749	4.5630437422156245	2.8502206200781246
O	12.22437406189375	8.186618922215624	4.0382443400781245
O	9.334751161893749	7.7501414122156245	6.565493710078124
O	7.166030371893751	9.958142342215623	4.409980210078125
O	3.46408235189375	9.193896632215624	5.008231680078125
O	1.34390716189375	8.838959902215624	1.8771894300781247
O	-2.47073867810625	9.047842402215624	2.2745706100781247
O	-4.01154848810625	6.272131322215625	0.08972103707812457
O	-6.71159276810625	3.506951062215624	-0.13652754092187547
O	-6.30682614810625	-0.27502684978437575	-0.6965688759218754
O	-9.699612348106252	-0.3102325707843757	-2.4591082299218754
O	-10.18396637810625	-3.8106486777843753	-4.003044179921876
O	-6.81830933810625	-5.055043337784376	-2.5991857199218753
O	-8.03233868810625	-5.031505987784376	1.0253022100781244
O	-6.7945411681062495	-8.304444247784376	2.8565210700781245
