102

O	7.3491671243013705	1.1256195136575347	1.206151362521918
O	6.545052574301371	-0.03604730934246536	-0.45950574097808194
O	-0.18523995469862964	0.8043911256575347	0.495773116521918
O	-1.4352295236986297	1.3422555546575348	0.641332262521918
O	7.98877384430137	1.8767905956575346	0.26046470152191803
O	7.20309636430137	0.6999939156575347	-1.4447106674780819
O	-3.6669097456986295	-0.14341325834246532	-1.299080466478082
O	-0.9351381148986297	-1.0412052183424652	1.583000212521918
O	-5.32340944569863	1.2293206836575346	-0.890308155478082
O	-4.31164786569863	-0.1381787783424654	-2.5800144274780816
O	7.078967934301369	-0.19016906834246539	0.8337211925219181
O	0.1866644243013702	-0.4142601783424654	0.982625312521918
O	-2.4713984556986297	0.6034813006575346	1.068707882521918
O	-4.200005555698629	0.7291014906575346	-0.40152130816908194
O	8.16310449430137	1.5764554426575348	-1.053633272478082
O	-2.2257616956986297	-0.6714534883424653	1.423925782521918
O	-6.03359714569863	0.7961514796575346	-1.846182327478082
O	4.81952064430137	-0.16400546834246532	1.433492832521918
O	2.6916462943013704	-0.42660415834246546	0.979878012521918
O	6.09824787430137	-0.7335269783424653	1.872915642521918
O	-5.50944761569863	0.10030829165753463	-2.827878497478082
O	-6.7677008956986295	1.6017811236575348	-2.596295867478082
O	1.4961109743013705	-0.7656356683424653	1.486796462521918
O	3.7225460543013704	-1.0135690983424652	1.569549852521918
O	4.256109914301371	0.9503120611575346	1.7770000725219182
O	2.73705010430137	0.33076802865753463	0.035818510521918034
O	-3.75586371569863	1.0270855053575347	0.894465562521918
O	9.299067154301369	1.8485629626575346	-1.760146737478082
O	-3.1774591756986297	-1.3671528783424653	2.0624391325219182
O	-11.25098274569863	0.7275631796575346	3.7262645125219187
O	-9.49599619569863	2.3513157916575347	6.706355352521919
O	-8.387722065698629	1.5372439786575347	10.269646602521918
O	-5.617835115698629	3.1222223316575346	12.294747902521918
O	-1.9933396096986296	-0.5823173283424653	14.717828402521919
O	-3.40546758569863	-1.8624679183424653	11.471104002521919
O	-6.36642508569863	-1.9001584283424653	9.150599892521917
O	-7.218081435698629	-2.3267791083424654	5.484933352521918
O	-10.054571315698631	-4.197260488342465	3.9490189025219182
O	-11.57075824569863	-4.766061008342465	0.595929062521918
O	-10.57877177569863	-8.158590308342465	-0.6231216914780819
O	-11.18100904569863	-10.498615968342465	-3.5498859274780816
O	-10.402644795698631	-6.716668038342465	-6.3796091674780815
O	-7.6162500856986295	-5.964901198342465	-3.8525654074780817
O	-6.79997525569863	-4.235682148342465	-0.6051062204780819
O	-6.021563085698629	-6.480565778342465	2.3406221225219177
O	-3.8217691156986295	-5.120065818342465	5.106367972521919
O	4.85338280430137	-5.809904408342465	15.702911502521918
O	4.47482175430137	-5.990699218342465	9.599941002521918
O	5.85132628430137	-8.970332338342464	7.581503792521918
O	7.19236190430137	-4.218247608342465	5.379118782521918
O	5.49210450430137	-6.552125828342465	2.819962582521918
O	8.74034490430137	-8.377532058342466	1.9219472525219181
O	10.60697225430137	-5.117844168342465	1.1152506525219181
O	7.998285434301369	-4.384886138342465	-1.669543987478082
O	8.27388474430137	-7.740482978342465	-3.0975771674780823
O	10.61897305430137	-7.065815188342465	-5.994247227478081
O	9.47595215430137	-3.5022410283424654	-6.837406837478082
O	8.15900266430137	-3.663161968342466	-10.308338467478082
O	7.54172951430137	-0.28542021834246534	-11.832424197478081
O	4.24312986430137	1.3052650406575346	-13.088055097478081
O	4.67652736430137	4.195384131657534	-10.591889897478081
O	5.41493968430137	2.031701981657535	-7.562113117478082
O	2.82473342430137	0.031983884657534656	-5.622997837478081
O	3.29094719430137	-3.7504047483424654	-6.056353857478082
O	2.58200966430137	-6.765691438342465	-3.8166175174780816
O	0.051435554301370257	-9.356719568342465	-4.939421647478082
O	1.2979026943013703	-11.576705368342465	-2.089522397478082
O	1.0691862743013703	-12.533050468342465	1.5288396825219182
O	-0.5982992226986297	-8.459135578342465	2.9260857025219185
O	-2.4274459056986295	-8.232677368342465	-0.3890015395780819
O	-2.1853460956986295	-5.140912258342465	-2.5909856374780817
O	-3.8315491956986296	-4.077250398342465	-5.825275847478082
O	-6.85191273569863	-1.9859266983424653	-5.293034527478082
O	-6.26573734569863	1.6882092076575348	-5.998911837478082
O	-7.19544601569863	6.027292181657535	-2.7580342874780817
O	-4.36330606569863	8.295964081657534	-1.781234667478082
O	-3.12503379569863	11.272895831657536	-3.8372363474780817
O	-3.5769062556986295	13.832319731657535	-1.0548964994780818
O	11.90934315430137	5.698793201657535	0.906782692521918
O	12.16962575430137	8.057296681657535	3.9758406025219184
O	8.48881674430137	8.940955661657535	3.8570560425219185
O	7.65390979430137	10.295837961657535	0.416734176521918
O	4.54386835430137	12.527771231657535	0.770376582521918
O	1.2059155743013705	12.828635731657535	-1.147100624478082
O	-0.5624492436986297	10.865628221657534	1.6622615325219179
O	1.6637181243013703	7.828286771657535	0.7544953825219181
O	0.9856000143013701	7.872624321657535	-3.005674337478082
O	-1.9774642466986296	5.930580321657535	-4.322470917478082
O	-3.9776625856986296	6.519070031657535	-7.488182387478082
O	-5.543147035698629	3.7984411816575347	-9.538650237478082
O	-1.7667402466986297	6.086583631657535	-12.452239397478081
O	0.1613549143013704	7.226872811657535	-9.341123897478083
O	1.7076670143013701	4.465494481657535	-7.258970747478082
O	4.43241055430137	5.459124631657535	-4.800595557478082
O	3.74012560430137	3.5512524716575347	-1.580055247478082
O	4.05611382430137	3.9132830316575347	2.307611512521918
O	1.0433518943013702	3.0593473216575346	4.619436942521919
O	3.63428262430137	1.8768114706575347	7.332440462521919
O	1.6663227543013703	0.3667882246575347	10.239835502521919
O	-1.7223953146986297	1.2064279356575347	8.638491852521918
O	-1.3229522896986297	5.010791411657535	8.979959292521919
O	-4.715424235698629	6.561240481657535	10.130170602521918
