91

O	-0.9781866762500001	2.2721693013109374	-1.9010168160031256
O	0.034738641749999966	3.2446713113109373	-2.0132304360031252
O	-0.29958031225000015	4.443005301310937	-1.7564927700031254
O	-1.2910627832500001	4.649644341310937	-0.7640708354031255
O	-2.42100188825	4.064225191310937	-0.9127938753031255
O	-2.37086413825	2.7599106313109374	-1.5534352810031256
O	-0.31097521125000005	-1.2588917386890626	-1.4308032950031255
O	0.8528543717499999	-1.3093740086890626	-0.8939737140031255
O	1.50316793175	-1.9861736886890624	-1.9542381260031256
O	1.1966384117499997	-1.0092866686890627	-2.8997557060031256
O	-0.07602240125000015	-1.0601977986890627	-2.6861265060031254
O	-1.60492474125	-1.2893992186890626	0.4666780639968744
O	-0.6024450602500001	-2.2238366686890627	0.8474045639968746
O	0.6744835617499998	-2.1029265086890625	0.25585883399687437
O	-1.31521911425	-0.8310158986890626	-0.7378856110031256
O	-2.2205546282500004	-0.17847112268906262	1.2420154039968745
O	-1.17924279125	0.006095824310937359	1.8659478139968746
O	0.0700367717499999	0.6022595763109374	2.0835837039968745
O	0.30734671174999995	1.0839234073109374	0.7522374439968744
O	-0.8331718342500001	1.8530950213109374	0.9514541039968745
O	-2.00463148125	1.0656967193109375	0.6163876039968745
O	1.48091738175	1.0105453743109374	0.02939638499687447
O	2.33938899175	0.8085359243109373	-0.7483767490031256
O	-0.9150200072500001	0.03252182031093742	-2.8638940660031253
O	-0.38311300525000014	1.2059307733109375	-2.3283812860031254
O	0.7363801717499998	1.6342229213109374	-3.2428763660031255
O	1.03200344175	2.789473171310937	-2.8952511560031255
O	-11.59958926825	3.1588532113109373	-3.0465838460031254
O	-8.39692465825	3.3738052513109373	-0.9822460540031255
O	-9.02065519825	0.062219553310937425	0.7697502539968746
O	-10.90878356825	-3.1915304186890623	0.1188619849968745
O	-10.24000863825	-6.566430308689062	1.6553482539968747
O	-11.77534026825	-9.945107958689062	1.1109111839968744
O	-9.89480430825	-10.892422758689062	-2.0954763560031253
O	-8.63926250825	-7.615942098689063	-3.5256574260031255
O	-9.02961105825	-3.874893018689062	-3.5167501560031256
O	-7.08374920825	-0.7158061886890625	-4.1428625360031255
O	-8.20289983825	2.383111651310937	-5.982859276003126
O	-6.92468304825	5.826924541310937	-6.708646106003125
O	-5.62690125825	6.0051760213109375	-10.208120086003126
O	-1.0195839722500002	6.125248751310938	-8.414513486003125
O	-2.66897900825	3.3206649513109374	-6.553795836003125
O	-4.39713243825	0.6190266014109373	-8.564005666003126
O	-4.65282245825	-2.800651458689063	-7.055003566003125
O	-7.40889011825	-5.199261698689062	-8.418694746003126
O	11.55259673175	-0.6985435086890626	-1.4461159180031256
O	8.192181281749999	-0.08607571168906258	-3.1298416160031257
O	8.38877862175	-0.13446656368906262	-6.931398796003125
O	5.936195801749999	-1.2791438386890626	-9.605902506003126
O	0.6101235517499999	-3.944472898689062	-14.911398926003125
O	-4.48266189825	-4.042432338689062	-12.544139526003125
O	-1.1707360792500001	-3.6832647986890628	-10.662441066003126
O	-0.07527637725000014	-0.07315944068906266	-10.603806186003126
O	1.9366681017499998	1.3399986443109375	-7.710709826003126
O	3.2430631617499994	4.748297611310938	-6.889724316003125
O	0.91762761175	6.514000301310937	-4.541312266003125
O	2.24083557175	6.723436631310937	-1.0317142400031256
O	0.5577027617499999	9.714880891310937	0.5585353239968744
O	0.9193817417499999	8.525657351310937	4.099486063996874
O	-0.29198803925000005	4.994261371310937	3.581049173996875
O	1.2412880317499997	2.3742682913109374	5.776437243996875
O	3.77254565175	2.9488107913109376	8.514859923996875
O	1.6788767217499998	1.3589439023109375	11.285973873996875
O	-1.2660465922500002	3.651802321310937	10.684305473996874
O	1.0310065617499997	6.5923127813109375	10.244154673996874
O	2.7484590217499996	6.220802701310937	13.653024273996875
O	-0.5438012342500002	5.556030591310938	15.490694073996876
O	5.91969683175	-10.764634958689063	6.081615713996874
O	7.969055701749999	-7.784910818689063	7.244981983996874
O	5.82027221175	-5.757509668689062	9.667165673996875
O	4.95552016175	-2.0204509586890627	9.997271773996875
O	1.54563651175	-2.7055368486890625	8.323850083996874
O	3.55869709175	-3.7341521486890628	5.1736279039968744
O	5.8223570017499995	-0.6246170086890626	4.991778903996875
O	4.64937954175	2.5012320313109373	3.2101685739968744
O	5.43063398175	6.133436601310938	3.6270300939968747
O	5.50844568175	8.630571911310938	0.8068749339968744
O	4.894979171749999	12.367688741310937	0.6613354339968744
O	8.34068714175	10.475959901310938	4.572134983996874
O	10.40258983175	7.932195861310937	2.6786344139968743
O	9.68258153175	4.393666491310937	3.953858923996875
O	9.09725223175	1.7815403513109374	1.2587371339968745
O	9.239466831749999	-1.8773838986890625	2.2428123439968743
O	6.26283901175	-3.611342628689062	0.5615021039968744
O	3.56764822175	-6.318174728689063	0.9684877939968746
O	-0.17187848625000013	-6.259579198689062	0.7291942239968745
O	-0.39068987725000015	-9.747914058689062	-0.5311205560031256
O	-4.05098424825	-10.446334958689063	-1.6625993010031255
O	-5.1598195682500005	-6.884289078689062	-0.7921303738031256
O	-4.78502747825	-7.390433298689063	3.0413572239968745
O	-7.75553891825	-5.683957338689062	4.873758563996875
