90

O	1.13123584259375	-0.39462610444531265	0.04121383009374957
O	1.0546631625937501	0.12734282455468726	1.2241251260937496
O	2.11045849259375	0.07296255555468734	-0.8457361789062504
O	-0.28842532740624993	2.070133515554687	-0.9930923999062504
O	1.94479597259375	-0.5259937444453128	-2.11439608390625
O	-1.5082225154062499	1.4603691445546874	-0.7884323079062504
O	0.6263338325937502	-0.31891547444531276	-2.5514570239062504
O	-4.69694168740625	-0.27285611444531266	2.4134437160937496
O	0.6176266625937501	0.9454793325546873	-2.8622643539062507
O	-4.49428841740625	0.8618183125546873	3.08393484609375
O	0.94211148259375	1.8329431255546873	-1.6147810509062503
O	1.1696228525937502	3.733138155554687	-0.6311545563062504
O	-2.22392214740625	1.3704144875546873	0.34958765609374964
O	-3.26037741740625	0.8234016210546873	1.1963776460937496
O	-3.54010286740625	-0.4422446744453127	1.7248571560937498
O	-3.33287461740625	1.2264668425546872	2.56527225609375
O	-5.593547437406249	1.4607959215546873	3.825218876093749
O	-1.18324723460625	1.7647339555546875	0.9548212660937496
O	-0.82064913040625	3.1817747255546873	0.8291558960937495
O	0.052871492593750125	3.145887855554687	-0.1974350179062504
O	1.88316953259375	2.745569505554687	-1.1683199339062504
O	-0.36300748840624997	-0.8419319744453128	-1.8645735839062503
O	-0.058932307406249995	-0.8592316744453127	-0.5384394429062505
O	-0.8650146544062499	-1.4898488244453127	0.3314045260937497
O	-0.76689727040625	-1.374552094445313	1.6034744360937496
O	-0.021278077406249984	-0.30186054444531274	1.9435385160937495
O	-8.14517360740625	7.535889035554687	-5.64016627390625
O	-6.33209748740625	6.161758085554688	-2.6516913539062505
O	-8.32804149740625	2.866810715554687	-2.8068810539062508
O	-10.139873047406251	0.6214084985546873	-5.256355873906251
O	-10.87911873740625	-3.0747587444453126	-5.008227233906251
O	-12.485161217406251	-5.491310444445312	-7.386484143906251
O	-9.480704887406251	-6.039592074445312	-9.710071743906251
O	-7.198605807406249	-3.087336974445313	-9.099993223906251
O	-6.92115811740625	0.4170100055546873	-7.82599968390625
O	-4.42177086740625	2.8368609055546874	-6.40546361390625
O	-3.94743387740625	6.4955933455546875	-7.070118183906251
O	-1.93992891140625	9.395786225554687	-5.812486093906251
O	0.8240092125937502	10.099243355554687	-8.19735795390625
O	3.9901254725937503	8.268114045554688	-4.973833493906251
O	1.2202627625937499	5.703024835554688	-5.11158030390625
O	0.20304214259375009	4.399283155554688	-8.51963880390625
O	-1.32360872940625	0.9660535645546873	-8.789379103906251
O	-3.46624648740625	0.06034744255468727	-11.823073483906251
O	10.49074938259375	-3.9642659744453126	2.520935596093749
O	8.34887245259375	-1.8629907644453128	0.17134109709374956
O	10.30247388259375	-0.8780379544453126	-2.90766879390625
O	9.23583188259375	-0.34107037444531263	-6.4642126939062505
O	6.66387725259375	0.5734348675546873	-13.90498728390625
O	1.1451963225937503	1.4249358605546874	-13.786939083906251
O	3.22018666259375	0.0940324675546873	-10.83067468390625
O	4.7505943125937495	2.980029075554687	-8.96290964390625
O	5.386627272593751	2.7680715255546873	-5.238402323906251
O	6.77143559259375	5.257381625554688	-2.71531351390625
O	3.94498462259375	6.942191875554688	-0.8285470109062504
O	3.40866964259375	5.656631925554688	2.6623379860937497
O	1.91284786259375	8.528509785554688	4.67082155609375
O	0.4682628325937501	6.313467365554688	7.382032556093749
O	-0.9758800734062499	3.656801375554687	5.17044875609375
O	-1.0047216414062499	0.05187819855468734	6.419539536093749
O	0.007129552593750033	-1.0817775744453129	9.80626651609375
O	-3.38653051740625	-2.6199467944453128	10.71042281609375
O	-5.27802934740625	0.5669138425546874	10.14383141609375
O	-2.54973887740625	2.5905512155546875	11.77874491609375
O	-2.64832783740625	0.6658973670546873	15.10225291609375
O	-6.48936074740625	0.6224219765546873	15.19418641609375
O	0.54694863259375	-13.332254784445313	2.8820219060937493
O	2.34805184259375	-11.692029084445313	5.789671096093749
O	-0.28948542340624994	-9.881075084445314	7.8993828960937496
O	-0.5582380244062499	-6.329676854445313	9.36369621609375
O	-2.9137352274062502	-5.335549924445313	6.502914296093749
O	0.09518403259375008	-6.087520634445313	4.177553876093749
O	2.72038615259375	-3.919001134445313	6.051037326093749
O	3.0301384525937505	-0.15897687044531272	5.325116256093749
O	4.159511602593749	2.7066564755546874	7.42181934609375
O	5.899848362593749	5.753614325554688	6.105627496093749
O	6.164493102593751	9.389470605554687	7.34145346609375
O	7.04122279259375	5.378850865554687	11.04915141609375
O	9.24259868259375	2.982977765554687	9.10789821609375
O	7.440105702593749	-0.3305881144453128	8.50596458609375
O	7.671698892593749	-1.6959913244453126	4.973868406093749
O	6.649862742593751	-5.321316794445313	4.33964833609375
O	4.44016608259375	-5.355843814445312	1.1882332460937497
O	1.5183761825937503	-7.104691954445312	-0.4197156729062504
O	-1.50166464940625	-5.6059339344453125	-1.9647768539062505
O	-1.79984735240625	-8.395847324445313	-4.40590759390625
O	-4.567222697406249	-7.545261714445313	-6.937701173906251
O	-5.31359954740625	-4.213839354445312	-5.15962502390625
O	-6.85621274740625	-5.938819364445313	-2.1022980639062503
O	-10.122254387406251	-4.046597864445312	-1.0397394289062505
