32

O	-6.021390040809247	-2.564783449156789	29.862356760515528
O	1.0813283725942677	1.3523360006227816	28.35302841186749
O	1.1276256740180888	1.8915957887108292	29.580735675562586
O	2.0549705022970293	2.1288979866309816	27.72354387683252
O	-3.9293189650419245	4.238329329445753	30.76332116769237
O	2.8414279715138453	3.3675756130955268	29.539186498230375
O	0.5450150270876996	4.232819298224403	29.910358107148507
O	-2.4080088823998302	2.6535634567929574	30.439450323586072
O	-0.7566440840235971	5.558836537204074	29.405876091970317
O	-4.245862358789332	-0.7846018696532107	29.844074480307874
O	-6.196580445856695	-0.1766126665739347	30.599039707038358
O	-3.7000249647934456	0.3405938584565571	30.593207831708494
O	-5.740027333224108	1.2205120442009418	30.54871743228342
O	1.5573607317402616	2.5946524662490518	31.708895556889455
O	1.8515972933444071	2.7349635983045824	30.21725937803268
O	2.9765514518163676	2.9673306699831397	28.255122601257263
O	-3.570993359960411	2.815151175102333	30.99703740405354
O	0.07669718468765643	4.612719796962232	28.7786409073234
O	-0.29001028515170313	3.536039347582926	30.79538772569482
O	-3.036297239597478	5.444450892844918	30.59168218660195
O	0.05387229625791354	2.522815499415585	31.573958274507813
O	5.248773977529662	3.4748031121042198	28.132459901447817
O	3.8791778572933997	4.957986578455196	27.844950551960164
O	-1.793734675155927	5.132858701145252	30.335544623267918
O	-1.5936242211168004	3.79770929514493	30.708976896134008
O	-0.007583758950949232	4.151365242734965	27.441081070866684
O	4.0063949834564845	3.7538780132594463	27.726530677466485
O	-5.585322826541916	-1.240227407280568	29.921090438873275
O	-4.400326359749602	1.647414799874492	30.692554378223605
O	0.5422512872728779	3.5278538262390584	26.520857602345323
O	-0.9111629846890911	3.223371579558022	27.59836423214639
O	0.934975030213476	5.025417550283905	27.45793509647101
