31

O	-3.2209046886588313	0.1329082569209703	29.778623924332578
O	-3.7219227247582682	1.4054816610718053	30.33348177566707
O	-2.541717471880132	2.060831689425261	30.573574147111156
O	-1.9790140074300757	1.4840190331259584	31.854087680525218
O	-4.6399073891258364	2.5102073887404037	30.077422131651772
O	-5.0312520703545625	3.5036311579785893	31.136452286705687
O	-2.983591151483669	3.5134625086311795	30.30272385669572
O	-2.03639697967615	4.271565969529359	30.979857395938183
O	-1.4505305114421443	5.177800751455394	30.36069524181718
O	-0.05794463034307379	5.142290545990677	30.212561819279845
O	0.7683016783401828	4.074860488664726	30.387420091895272
O	-1.9165562816388764	6.47977842894252	30.04606782288624
O	0.47615028361638373	6.344164714538482	29.87970991244581
O	1.7507599850607496	6.080126438662596	29.372784920849035
O	2.357932824460335	4.911659847943553	29.08629163177592
O	2.1587298430522113	4.041951899963187	30.1019406075295
O	0.45227358543852586	2.113077009349522	29.274959748691682
O	0.9637073614871581	2.749727322076228	28.182925373852076
O	-3.7197107311079094	3.378677768072886	29.294712057677106
O	-0.6669405257568755	7.165551183699316	29.83605615507297
O	1.0994402618237507	1.6326333527849277	30.53665504667543
O	-3.1200419969006714	6.46732685487344	29.621544616062735
O	3.5139473041192697	2.022104193511807	31.349657128032742
O	3.347829549773201	2.0084294672136047	29.082079923138448
O	2.686855575140956	2.4386464751007573	30.324167022291604
O	1.3088213185676636	2.283960863066304	26.887345119602525
O	1.1730816191833542	0.9506990182371906	26.974610206799298
O	0.061548863252457675	0.45915493938794594	27.59975927318375
O	-0.14331933715828513	0.8963107171238098	28.856889930481135
O	0.7443545259562698	2.2535572019673626	31.81651108105072
O	2.576328158238608	3.246994634988191	26.274595861958943
