94

O	-1.7911966909046146	4.068366493715385	0.05751756065692282
O	-0.8124700569046148	-0.5987849862846149	1.062481564656923
O	0.5913901390953852	0.2132465437153852	2.505760424656923
O	-0.6219133484046148	3.404485863715385	0.16867916265692284
O	-0.31831527890461475	-1.8461431162846147	1.067713054656923
O	3.854541189095385	4.859830313715385	1.798910024656923
O	-0.5751905761046148	2.0007271217153852	0.14908278165692285
O	1.369002499095385	-2.858993956284615	-0.02563925334307718
O	-1.750090630904615	1.2490850997153853	0.1920903726569228
O	1.4401783490953854	-3.059089116284614	1.217478094656923
O	-2.7323492309046147	2.025581014715385	0.6777408296569228
O	4.301403359095385	0.1605773837153852	1.012084884656923
O	-2.867620830904615	3.1910367237153854	-0.16128967264307717
O	-1.8119062509046149	-0.20066311628461464	0.2982316146569228
O	-1.919698150904615	-1.1079589962846146	-0.7469727393430772
O	-1.1835538289046146	-2.2970079862846147	-0.7595353773430772
O	0.1464037660953853	-2.262855216284615	-0.13598197904307718
O	0.7176375290953853	-2.1240072562846146	1.814877724656923
O	0.8679490490953853	-1.0531760762846145	2.904156074656923
O	1.690399099095385	0.1589156537153853	1.6259777146569228
O	2.519068809095385	-0.9080117362846145	1.2666257346569227
O	3.7761868090953854	-1.0767313362846147	0.8175279756569228
O	2.343074659095385	1.2401478707153852	1.936592724656923
O	3.6748110790953854	1.2473189817153854	1.465534544656923
O	4.403268349095385	2.360574686715385	1.856565884656923
O	3.6849561790953853	3.5316886737153856	2.147460734656923
O	2.459245669095385	3.366499563715385	2.8122056146569228
O	1.630959629095385	2.3143726627153853	2.398903214656923
O	2.716236599095385	5.7546964237153855	1.7876813846569228
O	3.203787279095385	3.9908289337153855	11.351884554656923
O	2.827044989095385	4.232683323715385	7.572909484656923
O	-0.9042796749046147	4.8283795637153855	7.743950964656922
O	-3.7991792909046147	4.0288928437153855	10.061392554656923
O	-7.464666650904615	3.8251386637153857	9.253505254656922
O	-10.492225350904613	2.913075783715385	11.260357654656923
O	-10.108768280904615	-0.8955273762846148	11.109036654656922
O	-6.476614110904615	-1.5125613862846146	10.231775654656923
O	-3.020345190904615	-0.03155395628461477	10.101308654656922
O	0.2805260700953852	-0.3521691062846146	8.357470924656923
O	3.735980229095385	-0.2539425962846147	9.802217154656923
O	7.251212119095385	-0.2303211362846147	8.542918674656923
O	8.750385589095385	-3.6345730762846147	9.023315334656923
O	8.498833679095386	-4.244408736284615	4.149926714656923
O	5.061288759095385	-2.9188750462846142	5.020411224656923
O	3.247520389095385	-4.7307593062846145	7.832794484656922
O	-0.5003498117046148	-4.576486976284614	7.752927654656922
O	-2.4058309109046148	-5.234804766284615	11.086652354656923
O	0.2775733650953852	-6.866060646284615	-9.246472605343078
O	1.2491265690953854	-6.4588703362846145	-5.556847025343077
O	2.6127441190953853	-9.711943046284615	-4.042067975343078
O	2.5061644690953853	-11.133902846284615	-0.5115746533430772
O	1.602409689095385	-13.870468846284615	6.922768544656923
O	0.3474562810953853	-9.575288546284616	10.315995354656922
O	0.19641849709538528	-9.481624446284615	6.487473704656923
O	3.6318649990953853	-8.684857746284615	5.085278834656923
O	4.069290659095385	-6.700727376284614	1.8295832446569231
O	6.911411409095385	-5.406726986284615	-0.11749587404307717
O	7.617189559095386	-1.8663615862846148	0.6338847716569228
O	6.373945879095385	0.5073616237153853	-2.014662215343077
O	8.665924819095386	3.4867366737153853	-1.7600383653430773
O	6.4086038390953854	5.840162453715386	-3.623596525343077
O	3.222418239095385	4.735259453715385	-1.8987219653430771
O	0.1293694360953852	4.930615013715386	-4.010604875343077
O	-0.27709644990461474	6.143106993715386	-7.451164325343077
O	-2.855676790904615	8.866604183715385	-6.704936335343078
O	-0.6887721629046147	10.491209513715384	-4.043733865343078
O	2.351797679095385	10.095703663715385	-6.256818595343078
O	0.8886438990953852	11.942488553715384	-9.257092655343078
O	-0.5722501203046148	14.748244153715385	-7.084348805343078
O	-12.115252490904615	-1.4394403062846146	-6.534782665343077
O	-9.614752540904615	-0.47212515628461493	-9.235377935343077
O	-8.694163130904615	3.1954643537153853	-8.703313575343078
O	-5.353063690904615	5.104049643715385	-8.551293695343077
O	-5.660413570904615	5.164752493715385	-4.785077905343077
O	-5.382038370904615	1.3015197737153852	-4.910784345343077
O	-2.2226691209046145	1.1247887037153852	-7.063357265343077
O	1.1955122090953854	1.2442493757153854	-5.509744865343078
O	4.470071349095385	2.3996094137153854	-6.908029585343077
O	7.809743449095385	0.9806851177153852	-6.035617215343078
O	11.386997709095386	2.4278872227153854	-5.9980610653430775
O	11.745946009095386	1.5731850102153853	-9.716882685343078
O	8.410281959095386	3.3231764637153853	-10.555507345343077
O	6.816802539095385	-0.048169406284614746	-11.153532345343077
O	3.0245858990953853	0.1335924737153853	-10.649739145343078
O	1.498594619095385	-2.6483378662846144	-8.552814445343078
O	-2.2564293409046146	-3.1556642962846144	-8.764185405343078
O	-3.5369385909046147	-3.7446902162846145	-5.223180775343078
O	-6.366192610904615	-3.042184226284615	-2.706900225343077
O	-6.135853710904615	-1.2852974962846149	0.7223839116569228
O	-9.128948400904614	-3.5283024462846146	1.8858284546569228
O	-9.516281640904614	-3.0394594162846147	5.705786564656923
O	-6.544534840904615	-0.5979533362846146	5.828072664656922
O	-8.435745720904615	2.150561690715385	3.9071596846569228
O	-7.748135680904615	5.644426913715385	5.559387464656923
