23

O	-3.5648059810002364	-0.8539433721310474	28.85925365577653
O	0.1467184138237405	3.9330958257845676	30.124929272548492
O	3.4348218827473818	1.702584226252571	26.412604029379995
O	-3.9091761614452647	0.4159894115945577	29.21657523150933
O	-0.4145261668637848	2.799726390806865	30.371093254041696
O	-2.970309530164502	1.4264763818476465	29.501870003156483
O	-0.19445380281595703	5.903556880361591	29.555171094928028
O	-1.6828278818838904	0.9876741171437495	29.512102225793722
O	0.8657315194183306	5.986127586036986	30.306581741293495
O	-1.2299114823863184	-0.09683159821805232	28.94442051219471
O	-2.2319504208362	-1.0503498385936525	28.598443162795412
O	-0.8500173128980053	2.1255614827907925	29.355192664103804
O	-0.5705873299060329	2.4977854124853076	28.091065684079712
O	-0.17229989026168613	3.8341276249134957	27.990742000877137
O	-0.4041437761179818	4.677208346696238	29.131606234967297
O	1.0367912386460647	4.687391030184472	30.69466094681264
O	2.3245129442980086	4.097764264755456	30.918117907585813
O	2.8421046956257987	3.5051646448848652	29.68441868150759
O	2.1323146852882013	2.353664492267815	29.3534310932993
O	2.175720395119903	1.874896005274418	28.091137983319662
O	2.715339297921854	2.6146503594741057	27.126760862706394
O	3.064234733292371	3.9060764837232305	27.385124561552523
O	2.6011204063489606	4.365725703136007	28.57250535869294
