40

O	-4.832676626771194	3.457815407547696	31.211981925488818
O	-0.9301047741261796	6.050915339455776	31.014571448127406
O	-2.118406269261303	6.719277225054121	30.888749714269785
O	-3.4278336673412597	5.148430656502153	31.626926871125495
O	-2.290912687773108	4.353050437522655	31.73500155664718
O	-1.1295047174848158	4.725483670322794	31.138331732186735
O	-4.703543357431869	4.699972362676802	31.911992073660823
O	-3.721320548754798	2.689333211833268	31.55483610657844
O	-2.422363856540111	3.004847311380593	31.583324892672916
O	1.0229235022743004	4.091214427731062	31.008569757726132
O	1.2042028407501846	4.145154727099494	29.63158779375318
O	1.3726112408842432	5.269189884483621	31.674170438993674
O	2.726817693248337	5.5244892713655975	31.419579057421753
O	3.1146424742113754	5.4188328485616	30.130850261127538
O	2.3030318844103634	4.865806535879867	29.261065595143698
O	6.692299682042636	4.906079377642618	30.433211461856875
O	6.168311818728355	3.6143354574347417	30.73678316139566
O	4.768415836455397	3.9288391444048854	30.669119483763303
O	7.036629079798226	3.1300183847215823	29.748041021558155
O	-3.376676261607939	6.388903132080856	31.224353978708233
O	4.558077583415671	5.2149672772216915	29.98923346886304
O	6.468879621440042	3.776894935651437	28.674049458855798
O	6.268290612082832	4.999711578108514	29.18485311248094
O	-0.2334078297742339	3.703218414994842	31.219572716099414
O	4.492002967518068	3.061449098787456	29.74729028095984
O	7.511962383005294	4.691804128090693	31.235892900347178
O	7.959158818112089	5.49281757816204	28.677373612095046
O	8.5467117984627	5.515574742618353	27.49534418736906
O	9.164041681171792	5.041202140985114	29.30584548189743
O	10.429085844241975	4.975540607602479	28.695432992590018
O	9.723847011481901	5.226953984988105	26.754743408514805
O	10.657262304640478	4.6708618409833464	27.439245554153892
O	6.673618095451792	1.6359745887209804	29.69662805420578
O	7.924749826804774	3.5481663737515614	27.84871246543918
O	8.71152508319166	2.3781358182380536	27.745348283852234
O	9.150181298710084	2.137122797827877	29.064903915231135
O	-5.924943884945369	2.25009234962247	32.93288927254462
O	8.36812543273831	1.0613746676327867	27.34135886693307
O	-5.986560120744533	2.8947224835684824	31.703220644837863
O	0.8885794098456476	5.465875113814777	32.9127726716674
