105

O	-3.7911964254445945	-1.0908805498378378	-2.421578880331081
O	-4.949056455444595	-0.4937211198378374	-1.8714951903310812
O	-4.997292525444594	0.5814526541621625	-1.1143391123310813
O	-3.8246974354445946	0.9522824291621625	-0.8540034543310813
O	-2.5795668954445947	0.5099225771621625	-1.3637738403310813
O	-2.5479894054445946	-0.6021555098378374	-2.1411789503310814
O	-3.9284050954445946	-1.3135889098378377	-3.7436728403310813
O	-4.850550435444594	-0.3229491498378375	-3.7299674803310814
O	-5.824191855444594	-0.44958233983783746	-2.845208690331081
O	-1.3791659054445946	-1.0017406598378376	-2.7607355203310813
O	-0.25126956414459456	-0.6675051298378375	-2.1427573203310812
O	0.3792429495554054	-1.5358692198378376	-1.2994697753310813
O	0.9444216345554055	-0.9188474498378375	-0.22809954933108129
O	1.8337780945554054	0.026633193162162505	-0.5229201277310813
O	1.3262906145554054	0.8874746945621625	-1.5420629103310814
O	0.25658745855540543	0.5772381201621626	-2.3134756403310814
O	3.1853074145554054	0.14078575516216252	0.014220709668918696
O	2.8224923445554055	0.3989618651621625	1.2935616496689186
O	4.084055114555405	0.9847850466621625	1.6424478696689189
O	4.992101734555406	0.06299721316216256	2.0890902896689187
O	6.265862644555406	0.1802020461621625	2.7173474196689185
O	5.742576784555405	-0.7293661698378374	3.813471629668919
O	2.6073189945554054	-0.6746134998378376	1.9637018296689188
O	5.054834454555405	-0.9621378698378374	1.3210331796689188
O	6.734898864555405	-0.8698549598378374	4.718400909668919
O	6.581870674555406	-1.9745064898378377	5.561614859668919
O	5.562400914555406	-1.6561617098378374	6.4570742896689195
O	4.485714414555406	-1.2768422198378375	5.763170339668919
O	4.7927301545554055	-0.4644412498378375	4.719169549668919
O	-0.09665941144459458	1.2520329121621625	-3.4468859303310815
O	5.505495664555405	-2.0127212598378375	7.746934419668919
O	-5.802487505444595	1.7656845941621624	-12.658301920331082
O	-5.973978695444594	-0.36353320983783755	-9.525386580331082
O	-3.0703356054445945	-2.5531353898378377	-10.585132320331082
O	0.04565648455540544	-2.3385799198378376	-12.787488020331082
O	3.2056420945554054	-4.390880969837838	-12.589383220331081
O	8.070359304555405	-1.3581916898378377	-12.490399720331082
O	5.187121304555405	0.4734082921621625	-10.895997020331082
O	1.4776353045554054	1.0645564851621625	-10.920626220331082
O	-1.3164497254445946	2.0759074901621624	-8.590528590331083
O	-4.211537965444594	4.330120860162163	-9.242175760331081
O	-7.369368785444594	5.533530030162162	-7.673730470331081
O	-6.860914765444595	8.977609480162164	-6.350395870331081
O	-8.786122175444595	11.748232910162164	-4.598120850331081
O	-10.447676315444594	8.304111570162164	-1.6592984903310815
O	-6.846502435444594	7.0692252301621625	-1.8363630903310812
O	-4.4590631654445945	4.886361720162163	-3.7438215803310815
O	-1.6672451254445946	6.537248040162162	-5.694207240331081
O	1.5156221245554053	4.578303430162163	-6.350615640331081
O	3.719112884555406	5.627327310162163	-9.300215800331081
O	10.825192184555405	4.247649020162163	-4.883723760331081
O	11.090696484555405	7.373640370162162	-2.6562778303310814
O	10.117278784555406	2.9016383801621624	0.19515897666891874
O	7.605199114555406	5.719074290162163	1.0359301296689187
O	6.472036274555405	3.9007317701621624	6.297083729668919
O	6.290435744555405	7.574239750162162	7.286658799668919
O	6.2163584245554055	7.181812550162163	11.070861279668918
O	4.3126041045554055	3.8333198001621622	11.270763479668918
O	1.1621480245554054	4.634157380162162	13.155695479668918
O	-0.6896662884445945	1.5163242321621624	14.182314779668918
O	-4.2309218854445945	0.33442997016216247	13.190457679668919
O	-2.7725296654445946	-2.9045300498378377	11.732342379668918
O	-0.037410562444594564	-1.2358845298378376	9.659990479668918
O	-0.6052323184445946	0.6208723351621626	6.338233019668919
O	-0.016265072444594575	4.409409890162163	6.765552579668919
O	1.2816266345554055	7.039964730162162	4.329955529668919
O	-0.9758191484445946	9.989705800162163	3.498537589668919
O	2.0527303645554054	11.679194410162163	1.8978863996689186
O	4.204502214555405	12.067562410162163	-1.1403219143310812
O	3.4577254445554053	9.853833020162163	-6.2482242903310805
O	3.1559067945554053	7.910133230162162	-2.9297428103310814
O	-0.30083402184459457	8.394517350162163	-1.4974783903310813
O	-1.9246012854445946	5.618840640162162	0.5480244396689187
O	-5.330634585444595	5.226983740162162	2.1867091496689186
O	-7.660789545444595	3.2395949301621623	0.05204067266891871
O	-8.189982665444594	-0.38043848983783757	1.0644691896689187
O	-7.629392665444595	-5.140106349837837	-1.5379412503310814
O	-5.008636595444594	-7.595385869837837	-0.4384334930310813
O	-5.7155964754445945	-10.336098489837836	2.1510636596689188
O	-4.743664695444594	-13.253672089837837	-0.1014331953310813
O	9.634663454555405	-6.549520399837838	7.385190689668919
O	11.380155984555405	-9.327770389837836	5.319744069668919
O	8.342014354555406	-10.001543489837836	3.099795739668919
O	5.395126804555406	-10.744439689837836	5.376889469668919
O	2.8641789345554054	-12.756903889837837	3.3439143596689185
O	-0.9226651594445946	-12.524417289837837	2.8517192296689187
O	-0.31979930214459457	-10.894012089837837	-0.5817550241310813
O	1.3200090745554054	-7.817185119837837	1.2649286096689187
O	-1.4616243654445946	-7.325552359837837	3.793504459668919
O	-4.303981545444595	-5.025641949837838	2.8375880096689188
O	-7.942247325444595	-5.055557249837838	4.113492919668919
O	-10.001338625444594	-1.9553192998378375	4.589968399668919
O	-12.154399315444595	-5.537777119837838	7.5567234896689195
O	-9.183057575444595	-4.086699289837838	9.340643009668918
O	-5.950493745444595	-5.787701039837837	8.173902849668918
O	-3.0929784854445947	-3.438050989837838	7.293068669668919
O	0.4220300675554054	-4.920675749837837	7.112929459668919
O	2.1831564245554054	-3.4347349698378373	4.035614409668919
O	4.614934684555405	-4.316933009837838	1.2202119596689187
O	3.856281854555405	-3.8617969898378375	-2.538650260331081
O	7.654471364555405	-3.1851147998378373	-3.1276267703310814
O	8.094239334555406	-1.9197364998378377	-6.663982700331081
O	4.340637494555406	-2.2629729398378378	-7.4334656603310805
O	4.288184154555405	-6.100835149837837	-7.231685670331081
O	2.120571104555405	-7.557928629837838	-10.116627800331083
