103

O	0.684108949368333	-1.4047329925566674	-1.3831757978499999
O	-0.7820112086316671	-0.7498987625566673	1.6978264001500003
O	1.741191961368333	3.4852775374433325	2.34116347015
O	0.480848141368333	1.3988674404433328	1.26438489015
O	0.672595670368333	0.10496277744333282	1.1024695901500001
O	1.911997961368333	-0.42362988255666734	1.1961049201500003
O	3.044942091368333	0.09993995744333262	1.7026458901500003
O	2.7309725913683334	1.2822314638433328	2.30073550015
O	1.656927841368333	1.9336684964433326	1.7795697701500002
O	-0.951975178631667	1.6571255454433327	-0.9658919098499998
O	-0.642363790631667	0.8904972054433327	-2.10915079785
O	-2.1070487386316668	0.5640500704433327	-2.5804436298499995
O	-1.575068098631667	0.6380434934433327	-0.3291108748499998
O	-0.26997812363166696	3.078896027443333	-0.35655979184999986
O	1.1960031373683329	3.261343597443333	-0.3124215238499999
O	1.183179654368333	3.2988392474433326	-0.3125279028499999
O	-0.583496042631667	2.409339647443333	1.32812588015
O	-1.499512218631667	-0.6671766925566673	-0.9407928518499998
O	-2.4676979986316674	-0.7192622025566673	-1.82791563285
O	-2.4331160786316666	-2.1739852025566675	-2.08291981485
O	-1.065582128631667	-2.550145652556667	-2.4082625898499996
O	-0.505073250631667	-1.6162513825566671	-1.51168587985
O	3.327167651368333	-0.9572654225566672	-2.3651321898499997
O	2.828446111368333	0.1778468074433328	-1.58075182285
O	1.675994781368333	0.26312739944333274	-2.13598942485
O	1.360135101368333	-0.9741012925566672	-2.58480855985
O	2.418679181368333	-1.7831063725566672	-2.7967078498499998
O	4.728280161368334	-1.2293975325566675	-2.71804720985
O	1.202836793368333	1.4852792464433326	-2.79086891985
O	2.835043811368333	1.4943461544433327	-1.00165320385
O	3.336072221368333	2.2345048874433324	-2.00509639185
O	-0.442400029631667	-3.229748812556667	-3.24485666985
O	6.752805331368333	-0.23962441255666733	-0.9862241528499999
O	6.697634601368334	-0.23424867255666726	0.41527753015000024
O	7.830010441368334	0.5406575194433327	1.0083477701500003
O	8.508915741368334	0.8585523514433326	-0.24465644284999988
O	8.118776121368333	-0.2604787725566673	-1.2422642288499999
O	3.952332341368333	2.0432093784433327	-0.2462803698499998
O	5.171490521368333	1.3539163514433328	-0.26429783784999983
O	6.210488041368333	2.4736926174433327	0.15189925015000028
O	5.483486691368333	2.6850414274433327	1.47666576015
O	4.305419231368333	3.1292041974433324	0.6011468101500002
O	5.875433301368333	0.8036893894433328	-1.36526035185
O	4.121497791368333	3.8140919074433324	-10.28184296985
O	4.235871501368333	1.7840856214433327	-7.210014569849999
O	4.861802441368333	4.975060417443332	-5.20288571985
O	4.433682171368333	8.644710387443332	-4.99259626985
O	4.472525831368333	11.015977857443332	-2.0930845098499997
O	3.876771411368333	14.682362557443332	-1.8547105098499999
O	0.043864288368333004	14.640937357443333	-2.0658827008499996
O	-0.831807908631667	11.240332257443333	-3.5393286098499996
O	0.390934544368333	8.282261727443332	-5.50719700985
O	-0.20239222563166703	4.623601937443333	-6.1590369998500005
O	-0.16147613163166696	2.732692637443333	-9.359071019850001
O	-0.286602108631667	-0.8410484325566674	-10.45304701985
O	-3.7216673786316665	-1.5064636925566675	-11.82600193985
O	-4.4099524586316665	-4.085130492556667	-7.72949784985
O	-3.0076548686316666	-0.9338218825566671	-6.37137077985
O	-4.711936878631667	2.2947371874433324	-7.647695189849999
O	-4.414156798631667	5.285364477443333	-5.408924119849999
O	-4.725224238631667	8.829815897443332	-6.778067189850001
O	-4.488729818631667	12.541427257443331	-5.864697839850001
O	-7.705136498631667	-5.272673422556667	7.64475653015
O	-7.061609858631667	-3.7997835625566667	4.17086637015
O	-10.320945158631666	-3.9360205425566672	2.11495317015
O	-11.419925858631666	-1.5260454325566675	-0.5972349728499998
O	-9.199995168631666	6.446642407443333	-7.94763908985
O	-9.330129628631667	4.272003857443333	-4.77756400985
O	-8.722434828631666	0.6400387994433328	-5.660170439849999
O	-6.928272098631667	-1.6719918625566674	-3.2066365798499996
O	-5.916321608631667	-5.261220732556667	-3.47391178985
O	-2.286516108631667	-5.651557372556667	-4.40860518985
O	-0.11564251863166697	-6.536646712556667	-1.5366672818499998
O	2.7030378613683332	-8.587138942556669	-3.04821277985
O	4.944554241368333	-7.990574502556668	-0.12731986984999977
O	3.984467941368333	-4.452540792556667	0.4901610701500001
O	4.323742041368333	-3.144132292556667	4.0225550101500005
O	5.220199671368333	-5.088862832556667	7.126923390149999
O	8.102241731368332	-2.8082002425566674	8.19307799015
O	9.861074101368333	-3.271021732556667	4.936990690150001
O	9.060464351368333	-6.9612559825566676	4.8142020701499995
O	13.790382141368333	-5.539194442556667	7.46313579015
O	14.448168241368334	-7.621968282556668	4.287003340150001
O	2.6160406213683327	1.1466091908433327	13.14745856015
O	4.375031351368333	-1.5990816425566672	11.062112160149999
O	4.771816091368334	0.9034434284433327	8.231731600149999
O	0.904073567368333	0.9880968804433328	8.06598983015
O	0.395814790268333	-2.8271730925566674	7.86762951015
O	0.472824960368333	-4.662455172556667	4.46967425015
O	1.364166771368333	-8.226866022556669	3.63793139015
O	-0.130763495631667	-10.155284642556667	0.8172156401500001
O	1.109632702368333	-13.097786042556669	-1.33712854285
O	-0.11258950563166698	-15.544452742556667	1.35929265015
O	1.724946821368333	-13.616479142556669	4.1417727301500005
O	-3.554190578631667	-6.210892792556667	6.45153961015
O	-3.905071508631667	-3.3053120225566675	8.894359560149999
O	-4.169520878631666	-0.12109991255666719	6.83211488015
O	-3.1789601886316667	3.550570527443333	6.72548436015
O	-1.440508678631667	5.164217967443332	3.75946705015
O	-2.5070501686316673	11.122903187443333	1.8624113501500004
O	-0.24900098163166695	8.696053377443333	0.04818550015000023
O	2.5240352913683326	8.706834597443333	2.77849789015
O	6.082520861368333	8.829303707443332	1.04854942015
