31

O	-0.9956308197097574	3.8065178966996838	31.083859265241724
O	-1.523375494883032	4.562304506241773	30.00657722195612
O	-7.372078067932488	3.908979096120553	30.87258242972754
O	-0.5256251492268491	2.1196292371415044	30.647784711741295
O	-1.4944615315260572	5.903524080604559	29.835429405641797
O	-0.6886360513276195	4.059174405176233	29.103086968883233
O	-5.581912974384261	3.899835630348466	31.90785254070785
O	-0.11501294815685065	6.195651770968945	29.145345867212963
O	-0.057457980111021156	4.822636309336392	31.294372429045257
O	0.6601666453796133	3.8085928265622417	29.528291828591062
O	-0.6505694536633857	6.117339086746939	30.870542864166637
O	-1.3265713273301634	0.6074185862732939	30.62548020065296
O	-3.380510620638751	2.960533032247824	29.041518105410624
O	1.0240508081780857	5.363841460160001	29.479400366533504
O	-4.692109574348766	2.097826394337323	30.203789467934286
O	0.2800803324350352	2.9312723675624333	28.441834952898017
O	-5.471841137436981	3.8980436525690725	29.813482845520372
O	-2.305837648983206	0.5202582453308886	29.422339281313974
O	-2.016323285195394	1.2011662406544623	31.737983004353186
O	1.2812513321738397	2.5097402539884164	27.303799615227494
O	0.5185081892432328	1.3894416321969785	28.260161079752024
O	-2.7878219772277464	1.922292841805502	29.499747906880362
O	-2.824961292817184	2.422949625317856	31.55087398647856
O	0.9496277253194834	1.5944013787514315	26.22067393745971
O	-0.4921311817726302	0.7375787874266249	27.396443253539818
O	-3.6493228896749828	1.4581121633010312	30.596439728897877
O	-0.5085694124365006	1.1211887130032125	25.981918162695674
O	-4.147944009061652	3.557950097424541	30.180567229490407
O	-6.088092789157167	4.6622076173055955	30.79514398078284
O	-7.293445841981746	2.506309766612245	31.201249058377932
O	-0.28567979084600786	-0.21078154576047448	25.620329618219692
