26

O	-6.141420003632618	-0.25353878546589614	29.225344877827034
O	-4.802112821378288	0.34613255699851386	29.108286938711554
O	1.5953185609423888	4.805908336679318	31.80026447542595
O	-4.243378624084041	1.5339680914873899	29.337726583561885
O	-3.779112466353626	-0.49079869793555453	29.30225196107342
O	-2.976635506917432	1.4100092322393447	29.972070062450822
O	-1.1238979126426467	6.6590040807951	29.87913222128969
O	-2.708060101393738	0.32442984978797806	29.13533057853553
O	-0.045959103708600846	6.681754620410301	30.67017263299392
O	-2.2696593353213523	2.6273570892561757	30.283255203410082
O	-0.4748758141234476	4.272372169395516	27.413837165273506
O	-2.4216328816686286	3.6152503302953845	29.501048297355062
O	-0.765367934587601	4.4658062654894675	30.728221633349563
O	-2.7342578568808213	4.8661236441283595	29.96485306493393
O	-1.1011470716339402	3.1210868577024473	30.62460643195477
O	-1.515232612503469	5.400156464940838	30.061931140618718
O	0.23293272680065694	5.390000406790745	30.830354656800917
O	1.6865196819298798	3.762651367560049	30.51617799666581
O	2.3059049725599907	4.44395727210476	29.430468835524426
O	1.2462174266148822	4.941862324692421	28.80424438417907
O	0.465138203356122	4.0246032915485275	28.270410458972183
O	-1.3731428533054624	3.258394242420723	27.326367666737653
O	-0.928990693880587	1.9765380596648359	27.38204360497551
O	-0.044112299439524744	1.7320272710401599	28.32090281404561
O	0.6762939339998588	2.710191734170075	28.849031290751295
O	1.0723791711239856	2.6022696215458305	30.200014036646408
