102

O	-2.797558961859376	-0.14086482469531225	-1.2643455929374998
O	-2.112768061859376	-1.1820682246953123	-1.8836872329374998
O	-2.019075021859376	-2.379051874695312	-1.1625828029374998
O	-2.257143211859376	0.05393060030468766	-0.15380432893749982
O	-1.2514694438593759	-0.6664372446953123	0.5003251380625001
O	-0.947781963859376	-1.9343689346953123	-0.35323912193749984
O	0.24156352814062398	-2.5153277246953123	-0.2340601169374998
O	0.5381053781406241	-2.2305659446953126	1.0320938750625002
O	0.563635628140624	-0.4771977046953123	0.8490608440625002
O	-2.9676803318593756	1.0283474293046877	-2.7345123529374997
O	-1.131125349859376	0.9748688443046877	-2.8716814329375
O	-0.614547769859376	-0.2528202046953124	-3.2816127629375
O	0.5183606781406241	-0.4436940246953124	-2.6010958829374995
O	-0.7845022058593759	0.9603421437046877	-1.5383150529374998
O	0.5009469681406241	0.7055056013046876	-1.7653325029374998
O	1.056792008140624	1.9836233153046878	-1.2723677629374999
O	0.475286908140624	2.668495955304688	-0.16087165293749986
O	-0.09391736785937599	1.5817584063046877	0.6361818160625001
O	-0.9949063988593759	1.5246804553046878	-0.3208850149374999
O	-0.23055977585937593	2.2967361253046876	1.9517551970625002
O	-0.7974727501593759	-1.6777489046953122	1.6477735170625
O	-0.724931417859376	-1.0345099246953122	3.0037197370625
O	-0.7715721973593759	-2.3558618946953125	3.6905974570625
O	0.389029908140624	-0.5755395046953123	3.0525572870625
O	1.0458072681406239	2.446756465304688	2.4906406370625005
O	1.3439986581406242	2.288119955304688	3.7605261770625003
O	0.43612560814062407	3.0648627353046876	4.3628605170625
O	-0.812024196459376	2.1535045753046878	3.4602179770625003
O	0.32784275814062414	-3.0455945346953124	4.4701290870625
O	0.996802198140624	-1.6947715646953125	4.7156924270625
O	-0.23723324085937592	-0.9618300346953123	5.2564379170625
O	0.04491830814062403	0.3248738913046877	5.9516154770625
O	1.5015483081406242	0.12332538830468764	6.0490072570625
O	1.6428525081406242	-0.5089505846953123	7.2631161470625
O	1.2013770481406243	-1.8312237546953125	7.1325679570625
O	-0.09364045785937591	-1.7703459346953125	6.4808199570625
O	1.3413512981406241	0.4145861963046877	8.243444047062502
O	2.195055478140624	1.6245332493046876	8.157640937062501
O	-7.849823631859376	-7.145588714695313	5.6957876670625
O	-4.432720231859376	-5.997948514695312	4.9201953070624995
O	-5.1878670018593755	-2.7272298446953123	6.9890857270625
O	-7.700145561859376	-0.2620182146953124	8.094311887062501
O	-7.462431671859376	3.3843412853046875	8.9574036870625
O	-10.035086401859376	5.906883745304688	9.920948187062502
O	-11.370350671859375	6.658265395304688	6.4027132970625
O	-10.271573551859376	3.7163617053046876	4.2871770970625
O	-9.074749931859376	0.1604722383046877	4.2594798970625
O	-7.083543021859376	-2.2797331346953125	2.1799516770625003
O	-7.806211421859376	-5.878839384695312	1.3592211170625002
O	-6.1370638418593755	-8.827958794695311	-0.2680289189374998
O	-7.739878581859376	-9.368112074695311	-3.6098383229374997
O	-3.6175707118593756	-7.619368164695311	-5.6218192029375
O	-4.437327841859376	-5.120697074695312	-2.9493261329375
O	-7.983207521859375	-3.667041924695312	-2.9225801129374998
O	-8.403521741859377	-0.2263924446953124	-1.3405396029374999
O	-11.903434571859377	0.8127313073046877	-0.16093863293749985
O	-13.868256971859376	3.6185334653046874	1.5530876170625
O	6.121894968140624	4.413822125304688	-9.1952122029375
O	3.1472402181406243	2.4238848853046875	-8.085718752937499
O	0.634722268140624	1.6270153923046877	-10.8394937429375
O	-3.1307867518593757	1.2336010433046876	-10.8213517429375
O	-14.012976671859375	-1.3634126246953122	-9.5890163629375
O	-12.508641571859377	-0.27957409469531236	-5.1898089329375
O	-9.015353441859375	0.9065075489046877	-6.2563813229375
O	-6.935675291859376	-2.0558375246953124	-7.2900531729375
O	-3.1983555018593757	-2.1002376746953124	-6.8375876329375
O	-0.517530863859376	-4.655983784695312	-7.5880735129375
O	0.38058251814062405	-6.492474574695312	-4.3862919129375
O	3.608751868140624	-5.446233634695312	-2.7825982029375
O	4.930774418140624	-8.379543434695313	-0.9172599229374998
O	7.222187038140625	-6.400011894695312	1.3168263270625002
O	4.821965098140624	-3.6806314046953124	2.1094640670625004
O	6.088621288140624	-0.15229333469531225	2.7379982770625
O	9.817218428140624	0.7979696952046877	2.7001837370625004
O	10.003947128140624	2.241862555304688	6.1987650870625
O	8.871098338140625	-0.9908371746953123	7.7256355070625
O	10.949017428140625	-3.069521934695312	5.4380514270625
O	13.386467128140625	-1.4117025546953124	10.2023317570625
O	12.903445128140625	-5.240745004695312	10.0536005170625
O	3.984347728140624	13.528882525304688	0.8656178200625001
O	8.441801888140624	9.778718655304688	2.8507678370625005
O	9.647670128140625	6.131542775304688	3.3118907470625003
O	6.220633708140624	5.279513375304688	4.7702427870625
O	4.708397698140624	6.071909345304688	1.3422515470625
O	7.2078224481406235	3.9461499253046877	-0.7501845979374998
O	6.205522968140624	0.23539455130468767	-1.2564399929374999
O	8.440222618140623	-2.7137497146953122	-2.0212120629374994
O	7.635524128140624	-5.654632014695312	-4.2286864829375
O	8.682468358140625	-9.336354374695311	-4.2556096529375
O	11.692624628140624	-8.339590724695311	-6.4069712229375
O	12.671489928140625	-5.522870604695312	-3.9530454029374993
O	10.619271328140623	0.2977136293046877	-4.6729885729375
O	7.381361348140624	1.8803959623046875	-5.7805612829375
O	6.886108368140624	5.590720275304688	-4.9485902429375
O	3.2323716081406237	6.012045615304688	-3.8440212629374995
O	0.8186236081406241	7.446712575304688	-1.2360726129375
O	-1.591798030859376	6.113761855304688	1.1945937270625002
O	-3.914231921859376	8.844448755304688	0.7795292930625002
O	-7.233637451859376	8.134953435304688	2.5529767670625003
O	-6.0120328618593755	4.733955895304688	3.6508702970625
O	-3.432974521859376	6.251397485304688	6.1086853870625
O	-3.4954359818593757	4.226697345304688	9.476655657062501
