127

O	1.5642213079523253	-3.719529633558139	-6.773824043593024
O	3.9857632679523256	-4.600545313558139	-4.075218883593024
O	0.6582285079523256	-2.18083934355814	-3.600347703593024
O	2.8063827879523253	-4.261540073558139	-7.101982433593024
O	-0.12073946804767455	0.6296500768418605	0.5968973664069761
O	2.7053149779523253	-4.998757103558139	-8.259384463593024
O	3.1379754879523256	-5.2001812635581395	-6.077367893593024
O	-0.8003961850476745	3.0012993164418607	0.8295964064069761
O	-2.6172514920476746	1.0755824914418604	2.487146046406976
O	2.9678366979523254	-4.5126480935581395	-4.8865077435930235
O	-0.4894996780476745	1.9672362864418604	1.681471876406976
O	-3.4986378720476745	5.04228145644186	2.0424956264069762
O	1.8311154079523253	-3.764829313558139	-4.592982153593024
O	-1.2445768050476747	1.7417280464418605	-0.9208811735930239
O	1.1103257879523256	-3.224942283558139	-5.616317583593024
O	3.7706582279523255	-3.840455163558139	-2.9880659735930237
O	2.6701384879523253	-3.1501238735581394	-2.556602613593024
O	1.8340623979523256	-2.8694595735581396	-3.5704918035930238
O	0.44448946795232547	-1.5051975035581393	-2.481878423593024
O	0.5980595879523254	-2.2800883235581395	-1.3264315865930238
O	0.18759514795232546	-1.4920260935581393	-0.24216847359302385
O	0.7045886879523255	-0.24908454555813953	-0.205756833593024
O	1.2777178979523254	0.2654438514418605	-1.270106278593024
O	1.2354011579523254	-0.3644361975581395	-2.4882557235930243
O	1.5695066979523253	-5.78024189355814	-8.424581773593024
O	-2.3138540520476747	1.4915092304418605	0.818724716406976
O	-2.2039641620476744	2.8712796364418605	1.031948466406976
O	-1.5750557650476744	1.2896772584418605	2.015530656406976
O	-0.7896051320476745	2.9526986864418605	3.1898847064069757
O	-3.0083228320476745	3.5567215264418603	-0.05639199359302394
O	-1.4158726440476745	0.7583129234418605	-0.10432068359302393
O	-0.2400962750476745	3.9995472764418603	3.7160571564069764
O	-0.5631277820476746	5.208087016441861	4.384847666406976
O	-1.7912198900476746	5.360340216441861	4.739092106406976
O	-2.4593654720476747	4.328006596441861	4.532274396406976
O	-2.0990543120476746	3.27140483644186	3.689953236406976
O	-1.0637193552476745	4.531177586441861	1.7291575164069761
O	-2.208386012047675	5.356319816441861	1.7557583964069758
O	-3.0151846020476745	6.48932953644186	1.665228416406976
O	-1.5687057370476745	6.679139106441861	2.2642635464069762
O	0.3078217879523255	-3.6070342435581395	-1.352872352593024
O	-5.180282682047674	-1.0802246735581396	14.755996856406973
O	-4.405536962047675	-3.2129992935581395	17.888477956406977
O	-2.7024612120476745	-11.18914693355814	-7.075164103593024
O	-0.4414762720476745	-8.11068289355814	-7.507801353593024
O	-3.3664932520476745	-5.863172023558139	-8.565875243593023
O	-7.089100082047675	-5.650878443558139	-8.155306863593024
O	-9.282999252047674	-2.6466210735581397	-8.583286523593024
O	-12.834627772047675	-1.7993836335581397	-4.201646943593024
O	-9.645093052047674	-3.474029233558139	-3.1349119835930237
O	-6.826337862047675	-5.715981543558139	-4.038104903593024
O	-3.1987237320476747	-6.342326773558139	-3.263260433593024
O	-1.6308637100476746	-9.78732813355814	-2.863472723593024
O	1.8398101879523256	-11.11786233355814	-2.5087964735930237
O	2.3248250679523257	-12.14142913355814	1.0516638364069761
O	4.904436327952325	-13.74418703355814	3.3058731364069764
O	8.074009057952324	-10.86261233355814	1.116757446406976
O	5.307412077952326	-8.27794009355814	1.601591726406976
O	2.2658758779523254	-6.71085931355814	-0.18542272359302392
O	-1.0343586518476746	-7.467123723558139	1.3772019564069762
O	-3.8799570220476745	-5.117065273558139	0.8002352064069762
O	-7.459457382047675	-6.280165513558139	1.173751386406976
O	-11.092175472047675	-5.182364723558139	0.7732238664069762
O	-18.299020272047674	2.4594232664418607	6.075180246406976
O	-15.885473372047674	1.0215384614418606	3.4444440964069765
O	-14.289531972047673	-1.0881039135581396	6.272308736406976
O	-13.803232872047676	1.9760543864418605	8.560577656406977
O	-12.184614972047676	3.9377175664418607	5.7161666064069765
O	-9.930733722047673	0.9931967954418605	4.774666926406976
O	-8.624694802047674	0.6802172014418605	8.383306276406977
O	-8.166531092047673	4.40777969644186	8.820116756406975
O	-6.109897662047675	4.426564506441861	5.723655476406976
O	-3.5354126320476746	1.9300142564418605	7.1808019564069765
O	-3.5132333520476746	3.6949841464418602	10.650418556406976
O	-2.5165247420476744	7.0946926164418604	9.256498856406974
O	0.8518530579523256	5.4457643564418605	8.080053776406977
O	1.6159728079523257	3.79370856644186	11.302829456406975
O	4.155124807952325	6.36730574644186	12.578660156406976
O	5.775904097952325	7.498091006441861	9.246788756406975
O	9.399712727952327	6.5224929664418605	9.497808956406978
O	7.980354597952325	7.310842536441861	2.658505796406976
O	6.353425427952326	3.8572360064418607	2.496669896406976
O	6.167181517952326	2.1525535764418606	6.042513806406976
O	3.4859044779523254	-0.2258298045581395	7.540819466406975
O	4.491806937952325	-3.689215073558139	8.505422686406977
O	1.1579113679523254	-4.045532503558139	10.353725156406977
O	-2.4850830320476742	-4.912230843558139	10.195092456406975
O	-4.035335582047674	-8.362163423558139	10.264030556406976
O	-5.260603722047675	-7.096180843558139	5.818156836406976
O	-2.8654970920476748	-4.0759860635581395	5.646473356406976
O	0.7107623079523255	-5.3957609035581395	5.264451186406976
O	3.3314699579523257	-3.3499586335581393	3.4018609964069757
O	6.9569699479523255	-3.9613845335581397	2.521682206406976
O	7.374441427952326	-5.438931503558139	-0.9566810565930239
O	8.367988697952324	-2.885575543558139	-3.657856113593024
O	9.846234227952326	-4.9370699135581395	-6.447682013593024
O	9.667500827952324	-2.3145714135581397	-9.070876633593024
O	6.033165457952325	-1.4056057335581396	-8.306833073593024
O	5.005953267952325	2.0296401564418605	-9.015905813593024
O	7.302508237952325	4.932258326441861	-10.297718283593024
O	5.078304057952326	5.783284956441861	-13.268520643593025
O	5.126435707952325	2.2420865064418605	-14.590140543593023
O	8.811915317952327	1.9493389764418605	-13.822095243593022
O	-0.8774902441476745	14.14244506644186	0.970501286406976
O	-3.5284843320476744	15.42317566644186	-1.584656291593024
O	-2.6923441020476746	12.82689306644186	-4.261149943593024
O	1.6635511179523257	11.70754206644186	-8.421651063593025
O	4.1736220679523255	9.201069356441861	-9.934852473593025
O	1.4357348979523255	6.467846166441861	-9.873810023593023
O	1.4168690079523256	6.719257946441861	-6.019146163593024
O	5.191367187952325	6.4501585864418605	-5.512216983593024
O	6.7145452579523255	3.015883306441861	-5.182357033593024
O	10.214843827952325	1.8199300564418606	-6.000850313593024
O	12.058533827952324	-0.8940562535581396	-4.180357593593024
O	14.707389727952325	-3.4614011235581392	-5.203580743593024
O	17.403368527952328	-0.8236832035581396	-4.3482898135930235
O	15.641580127952327	1.8738055764418604	-6.487963373593024
O	8.668100567952326	5.538758006441861	-1.349584960593024
O	5.955596997952325	8.159091936441861	-1.315602335593024
O	2.6864996379523256	6.302778616441861	-0.900621683593024
O	-1.0998026960476746	6.270682466441861	-1.8997202335930239
O	-2.8020978020476743	3.0558945964418607	-3.478037183593024
O	-6.187959522047675	4.569930276441861	-1.663806816593024
O	-8.995312622047674	2.0261984064418606	-2.139015891593024
O	-6.696810812047675	-0.22475182655813952	-4.192945763593023
O	-6.461121262047675	2.1667099064418602	-7.167959503593024
O	-6.779983992047675	0.11753952744186047	-10.453426433593023
