39

O	-2.9821625500535816	6.502502132622444	29.706223874138097
O	-3.9888372567221038	4.945887060214764	30.949096768479386
O	-1.0782189954537102	2.9766892625715755	31.443947851620695
O	-3.765187948736977	5.343215643698485	29.62849730973819
O	-1.8115672890977041	6.201379115934137	30.3952731278708
O	-1.662418603516628	4.896644068891403	30.903802807715763
O	-2.8118683818861303	4.296477032866889	31.196300443463308
O	-0.7521833164506853	6.718573029427464	29.72262593348576
O	0.6441385353651237	6.4854465391847	29.74011069501569
O	0.9933934865238288	5.14389878286953	29.50277569333459
O	0.2964918264840237	4.120313109329487	30.082141834202005
O	-0.6465711995587524	4.135262607133813	31.049473374698543
O	2.3905760850193083	4.9973016660789105	29.5526808265355
O	2.769676403206254	3.8161498185526117	30.212039590202263
O	2.039668267158488	2.702365208985246	30.11228634807645
O	0.814354685189308	2.8995127150299864	30.47273818715717
O	1.8900891278882535	1.414944572197204	29.396349726835766
O	-0.7671083827354115	0.563219842377694	29.914522923201503
O	1.3687533777634862	-1.0241918594754673	30.25298278434186
O	1.0179349877733892	0.7843115493014827	31.702538931665973
O	-4.993892940564352	3.9270077624385458	31.131661140395764
O	-4.726241793164416	2.624058160716513	30.813268544160007
O	-5.916121791949375	2.0751307444749783	30.729418271194312
O	-6.802168528720424	2.961456625200381	31.073223979809185
O	-6.248008269336302	4.165081374911088	30.777711545582626
O	-1.215648353197074	-0.8104813920033211	30.310624756789906
O	-1.9722159074270773	-1.0567648010930415	29.068315621142446
O	-3.1695258665562327	-0.3347701590645018	29.246981956090867
O	-4.133378440664319	-0.6929384728457593	28.416350736739847
O	-4.451048941881963	-2.0184200791144096	28.11889018016831
O	-3.3129247110118527	-2.6198832333798614	27.693370253578344
O	-2.168953113217158	-2.2252141205319504	28.41090406033574
O	-6.19431248118771	0.924706223742835	30.002668668681252
O	-7.656380789382279	1.2185105253481923	29.61388024242564
O	-8.380524408182742	-0.06200185376891554	29.642518171605985
O	-7.447552188287682	-1.0157575044815919	29.0198249400881
O	-6.790681871651836	-1.4964085805370684	30.18622155827493
O	-6.315485737289814	-0.20275402516236207	30.915422730989544
O	0.8933220083004716	0.3109764300152831	30.312616386067198
