110

O	-1.167320754554054	6.714343523521622	1.364959536351353
O	3.008646155445946	-5.551061436478378	-2.1469270336486472
O	4.638865155445946	-6.179776646478378	-0.7978689436486472
O	0.23880427544594574	0.584300361521622	0.14589542635135283
O	0.5558105054459458	1.8569056735216218	0.6064819863513529
O	3.847070835445946	-5.795515026478378	-3.226993553648647
O	4.864777995445945	-7.149175636478378	-1.7794750936486472
O	-2.064852014554054	3.355419733521622	-0.3731352466486472
O	-1.2684548255540542	0.36297165452162206	1.985894356351353
O	-2.755296794554054	3.940467873521622	-1.4413135836486473
O	3.624555485445946	-5.235573126478378	-0.9736435686486471
O	-0.6160122365540541	-0.17413944247837798	0.8476342663513527
O	-0.3418874385540542	2.4061883835216222	1.448689836351353
O	-1.3677947475540542	4.296707873521622	0.3761118543513528
O	4.7775921154459455	-6.729481786478377	-3.0693134536486473
O	-1.4123846645540543	1.714199059521622	1.9471448363513528
O	-1.608879279554054	5.570437933521623	0.16914457035135283
O	-2.4628784645540542	6.016416193521622	-0.7705957886486472
O	2.308955175445946	-5.1910449064783775	2.285128156351353
O	2.793971475445946	-5.6811614164783775	1.0782034063513528
O	1.584503845445946	-3.097058836478378	1.4018759863513528
O	2.1809103054459458	-3.7754286664783785	2.462719316351353
O	2.012871635445946	-3.693695656478378	0.17949229135135275
O	1.073060135445946	-1.771942746478378	1.6000030263513527
O	5.087446095445945	-4.8270153964783775	2.414572516351353
O	4.616449035445945	-3.710234426478378	3.4053011063513527
O	-2.873572184554054	5.2344560535216225	-1.731926803648647
O	2.640571975445946	-4.852638106478378	0.014110804351352813
O	-2.183038684554054	7.178568783521622	-1.4424875636486472
O	-0.2771969245540542	-1.461186216478378	1.2188328263513528
O	2.4292417254459457	-2.732159596478378	-0.4527804165486472
O	1.3519160454459458	-0.513480416478378	1.8589528863513527
O	-0.5830049705540541	3.7203223435216217	1.4824211063513528
O	3.220384945445946	-3.287768296478378	3.1924448363513527
O	5.2027787154459455	-7.399841306478377	-4.154189423648647
O	-2.512752274554054	2.290759183521622	2.5370086363513527
O	-3.251138444554054	10.364211503521622	5.837375176351353
O	-0.15370413955405415	9.331960223521623	7.821423036351353
O	0.6922076454459459	7.722829383521622	11.163937736351352
O	3.8431004154459463	5.926123703521623	12.175923536351352
O	2.926718335445946	0.846639448521622	14.639692236351353
O	0.2859838454459459	1.6878339815216221	12.087428236351352
O	-1.6838247445540542	4.3909768535216225	10.466266236351352
O	-3.508035314554054	5.1960869935216225	7.2729822363513525
O	-6.821960104554054	6.905650443521623	6.882732946351353
O	-8.967737474554054	8.217866083521622	4.1392695063513525
O	-11.816413874554055	5.850935683521622	3.544551676351353
O	-14.931051274554054	5.523714493521623	1.394159226351353
O	-12.142536274554054	6.832589723521623	-2.3012600436486474
O	-9.589416804554055	4.5168414235216225	-0.6501569706486472
O	-6.819923304554054	4.414296773521622	1.8727082163513527
O	-7.447552974554054	2.415543373521622	5.001980766351353
O	-4.466670304554055	0.9668403905216221	6.781004436351353
O	1.653398805445946	-7.765173696478378	15.392838236351352
O	1.8982045054459458	-9.941766636478377	10.633152336351353
O	-0.4727201295540542	-7.0649850664783775	9.688779136351352
O	-2.972372894554054	-9.511735236478378	8.093932706351353
O	0.8925323254459457	-8.426032776478378	4.702739636351352
O	-2.447798954554054	-7.682109686478377	3.055205096351353
O	-2.899591574554054	-11.387565836478379	1.990545346351353
O	0.4810266554459458	-11.420687536478377	0.08004775235135281
O	-0.9240926535540541	-8.607724546478378	-2.2186784336486474
O	-4.0633802845540545	-10.319995436478377	-2.833017663648647
O	-3.291070584554054	-11.839415036478378	-6.215744663648648
O	-1.0085506825540542	-9.104713436478377	-7.607088513648647
O	-2.730527784554054	-7.785126406478378	-10.594025763648647
O	-0.6427150515540542	-5.5088775064783775	-12.724838163648647
O	-1.1081660475540542	-1.7568563664783783	-13.573390263648648
O	2.289694665445946	-0.958594326478378	-11.967486063648648
O	1.708482075445946	-2.888855266478378	-8.741390863648647
O	-0.5196075205540542	-1.6994434764783781	-5.870875073648648
O	-3.690838154554054	-3.8645583864783783	-5.5532073936486475
O	-5.882932314554054	-4.813132306478377	-2.576091283648647
O	-9.449258844554054	-3.701159436478378	-2.482374123648647
O	-10.006062054554054	-6.054928706478377	0.46626212535135275
O	-9.859125594554055	-6.553117446478377	4.175839286351352
O	-6.597255614554054	-3.2839639764783777	4.877444636351353
O	-8.142380114554054	-1.344902976478378	2.063391026351353
O	-5.988373634554055	0.07908640852162208	-0.7044182676486472
O	-6.875670954554055	2.182865553521622	-3.6947036436486473
O	-6.240512034554055	5.801329973521622	-3.033351673648647
O	-3.042175874554054	7.023868023521622	-4.568294153648647
O	1.1543299254459458	9.780116893521623	-2.4766041436486472
O	4.594244315445946	8.255570773521622	-2.672883983648647
O	7.0045757954459456	8.711535373521622	-5.580784803648648
O	9.846295925445945	10.092844763521622	-3.447731893648647
O	10.965330325445946	-11.129411436478378	-4.1524031036486475
O	10.101892925445945	-7.539682456478378	-3.048682883648647
O	13.120812525445945	-6.917649176478378	-0.7579040706486473
O	12.374363225445945	-3.2351325464783782	-0.3176484236486472
O	12.067071925445946	-1.5836613264783779	-3.677730463648647
O	12.802681025445946	2.204367043521622	-3.167920193648647
O	10.994767325445945	5.409992083521622	-4.300485743648648
O	9.446155025445945	5.827575393521623	-0.8039287416486471
O	7.544961005445945	2.551263583521622	-1.4422545236486473
O	6.105854275445946	3.420234113521622	-4.8347759736486475
O	2.796920895445946	5.235048693521622	-4.9863067336486475
O	1.479073135445946	7.496574383521622	-7.711299863648647
O	-2.1243597045540543	7.7392195735216225	-8.675869983648647
O	0.5422908954459459	5.746054913521623	-12.813307263648648
O	3.285265795445946	4.3645155135216225	-10.540358163648648
O	2.228184345445946	1.531906524521622	-8.232560123648646
O	5.0123504454459455	-0.5792114064783779	-6.747049963648648
O	4.051196485445946	-1.1208591464783781	-3.1181294536486472
O	5.7013031054459455	-1.351453596478378	0.35225678735135274
O	4.306551155445946	0.771262016921622	3.468391696351353
O	5.334034855445945	-2.305306976478378	5.8823011163513526
O	3.991249945445946	-1.5616962364783782	9.442317886351352
O	2.756998185445946	1.9452074035216222	8.296751466351353
O	6.299400025445945	3.328106333521622	7.673382036351352
