31

O	-1.442702793653795	5.422208786600553	29.7799216455618
O	-0.06688882649839517	5.734913710757951	29.876817622350114
O	-0.9669174133135972	3.605103850552452	29.342337454136835
O	-4.4239358592681945	3.8389165930969336	28.5603948859101
O	-3.5447483102454123	2.2173615361848116	28.313540515458214
O	-3.88201705336957	1.5342530610029264	31.529986526865287
O	-1.9438031770559732	4.375830107568231	29.003090950372407
O	-3.0573537752891817	3.4662516029632005	28.496795669417683
O	0.7985557678169231	4.622619491988211	29.862123839113778
O	0.24278139843584107	3.439641794471337	29.917753022890565
O	-4.034465392035903	3.0263989025947513	31.38601179880746
O	-2.411633566301207	2.1899168080411933	31.50370316301762
O	-1.860558132239249	3.4531912653779964	31.53568598721668
O	-1.174054883925973	2.4045188598627596	31.068885657490323
O	-0.9497181387376612	1.1827105130539608	30.11575955285857
O	-6.398786534989554	2.681959861031371	31.20377694694933
O	-8.495502255996858	1.2028088675385473	31.32378390462909
O	-9.06756179002706	2.523714047318018	31.243371864817924
O	-7.750102786043479	2.5336793115079677	31.747153090224973
O	-5.234907465926334	0.30238687178775914	28.537318376033905
O	-0.2293452229356629	1.583552643548594	28.911596612517087
O	-5.326148646622011	2.7824889688346213	28.52246551398185
O	2.080100667955041	4.25058902442316	29.754855566543586
O	-3.207081285547924	2.30178465047686	30.556045279617926
O	2.112469452728211	2.8560641999398455	29.69796354453505
O	-1.960419234701605	0.34998096583653826	29.83859313686844
O	-2.74198865882178	0.9254070099710678	30.921556628956424
O	-4.6803670245262285	1.6617069527558437	28.44039379392327
O	0.9219563331213221	2.2753957692075724	29.68026375724593
O	-5.341913315623217	3.6723865995198652	31.32052692427624
O	-5.871496209081858	1.4787931977928293	31.057395887304704
