38

O	1.5463492804985064	4.662621042163586	27.469670584657923
O	2.531359973928513	3.6618803738222083	27.805322912187453
O	1.9326540231431562	2.766315699854099	28.784907780209107
O	1.6858473120483506	3.6530117857810525	29.547720079528816
O	1.0517344117218326	1.7132994056040218	28.35395993414109
O	0.22393176993733466	2.5755668011031823	27.595734711059354
O	-0.6199260448504575	2.266652000745312	26.624286026847294
O	-1.3253381093406584	1.1626512215062474	26.808178465189044
O	-0.6849049661383358	0.31106578109725325	27.641994444450706
O	0.2152363858016444	0.8324235925394152	28.66421490290153
O	0.737130172927084	5.416036555529731	28.428739863073595
O	1.4125771596321286	5.010116932953905	29.50461975541889
O	2.049836797215649	6.225670723550692	29.667215194156217
O	0.971311986379302	7.0966081209453495	29.74441304097031
O	0.12116754025831888	6.626527609635958	28.826668187219973
O	2.824333852248442	5.712380550525889	31.230215667176857
O	1.2519663348410521	4.6782575638842605	31.689281280020797
O	0.33204135666519186	5.6890382712826355	31.377582125090186
O	-0.9906060623931519	5.581294734584882	31.81383035046868
O	0.7225095953558576	3.7201154625890007	31.057336940452522
O	-0.5580713310976713	3.4295743062406987	30.651818082113756
O	-1.4128726019168443	4.690892664103568	30.818106763155832
O	-2.679759494084254	4.677871207105005	30.334285481795327
O	-3.011850661379389	3.362514935877891	30.274953342953868
O	-1.5855991802896894	3.182618803791621	29.25362656926931
O	-2.4397463544955285	2.212214277590303	30.96385030030785
O	-2.7550267493100473	0.913645821458295	30.298464064024692
O	-4.020247873175494	0.24140985943560844	30.349052763329293
O	-1.6878669229042291	0.4937914391458511	30.655502283098443
O	-4.018370796605675	-1.175222919909555	30.408774873826843
O	-4.6220991344574145	-1.6102014567456133	29.151681007355315
O	-6.047842309791515	-1.554229643948576	29.0250834694935
O	-6.484265381229901	-2.778152932504524	28.49685667069886
O	-7.926982167292751	-3.075533615155845	28.524399798275475
O	-8.624339162210875	-1.9639086487772874	28.89961587291124
O	-8.20085041609916	-0.7730082050902314	28.40487389871514
O	-6.771784101151704	-0.415990852728358	28.66255758166402
O	-2.6378256865666705	0.9323512833999561	26.753448836236693
