98

O	0.9860499526249994	-2.243373021585937	-0.2958663690515625
O	-0.6752474073750006	-0.6334550685859374	-0.7569282220515625
O	-1.8695838573750003	-2.9214635915859373	-0.6152540570515626
O	1.8926893126249995	-1.1887608715859375	-0.46389128105156247
O	2.4875964326249997	-5.637430301585937	-0.08923197174156246
O	0.42284328762499945	-4.897657291585937	2.9117829069484373
O	1.1919050326249994	-0.025681215685937335	-0.39745559405156244
O	3.5102470526249996	-4.816855471585937	-0.03883928555156246
O	3.6710056126249992	-6.559235311585938	2.4096282269484375
O	-0.07805306537500051	0.08234791641406267	0.27089435694843755
O	-0.9818390553750005	1.0100357214140627	0.7290843659484376
O	0.01188006162499955	-1.7847998215859375	-1.2744886230515624
O	-2.0635224673750003	1.0201692684140626	-0.06503485955156246
O	1.5217590226249995	-3.5714977615859373	0.059131007948437536
O	-2.7512924673750003	-1.0783301815859374	-0.06243845035156246
O	1.3684555726249994	-4.871909591585937	-0.12500592345156247
O	-0.8074514693750006	-1.5957488915859375	3.5718288769484374
O	2.8770286426249996	-3.786615041585937	0.46109349694843754
O	4.676923742624999	-5.396967411585937	-0.7207698380515624
O	-1.7666001073750004	0.14277318441406267	-1.0548373590515625
O	-2.884318577375	-0.6762777495859373	-1.4667617530515624
O	-2.8631773673750005	-0.3125941885859373	1.0061363969484376
O	-2.4987418673750006	-0.38761599958593734	2.3611899569484374
O	-1.6814527973750004	-1.4600289715859374	2.5919006069484376
O	-1.5567578733750005	-2.3292990915859373	1.5594159969484376
O	-1.7716584673750004	-1.9853694615859376	0.19658350294843752
O	-2.3330644473750004	-1.8348611715859375	-2.2972452030515624
O	-0.3672287253750005	-2.862818201585937	3.7754771269484375
O	-0.2574159003750005	-3.7488680815859374	2.7550209369484375
O	-0.9827384783750005	-3.5003100315859372	1.7134202469484374
O	1.7186369726249997	-5.146259381585937	3.0147033969484376
O	2.5790202426249995	-6.292685941585937	3.1134497269484376
O	4.972709452624999	-6.5693697515859375	2.3335104869484375
O	1.4714158426249995	1.0454099484140627	-1.3197611130515625
O	-5.374793867375001	-11.391949651585938	1.0063056969484374
O	-2.5665240973750003	-8.846101781585938	1.2029075269484375
O	-2.0827233473750004	-8.767575691585938	-2.5904013030515625
O	-4.0861584173750005	-9.247814681585938	-5.762089003051562
O	-3.4611601573750006	-7.796367981585937	-9.183123183051562
O	-5.369131847375001	-8.046089141585938	-12.400967003051562
O	-8.069674877375	-5.437592051585937	-11.620873203051563
O	-8.035466037375	-5.069406321585937	-7.8415374130515625
O	-7.0723226473750005	-6.663685921585937	-4.590350063051562
O	-6.267294847375001	-5.785463331585937	-1.0239774450515624
O	-7.307166567375001	-7.441137391585937	2.1861163269484374
O	-6.505312307375001	-7.1625880815859375	5.832835226948438
O	-9.360502427375	-5.459482731585937	7.558804246948438
O	-6.494301597375001	-1.4769234115859375	8.046309456948437
O	-5.999037797375001	-2.4710144515859374	4.471456686948438
O	-9.209558237375	-2.9187804015859373	2.4268068669484375
O	-8.885463207375	-2.345252291585937	-1.2986398930515626
O	-11.483075297375	-3.869802871585937	-3.6372091230515626
O	1.0404677626249996	11.310667948414062	2.3308695369484376
O	-1.2323311133750003	8.247520028414062	2.6372939969484377
O	-4.687440057375001	9.078230128414061	4.036608336948438
O	-8.103963717375	7.540380328414063	3.4378608069484375
O	-14.207356797375	-0.8470065145859373	-0.41845143705156246
O	-11.483024897375	1.8235917584140626	-0.012164249751562453
O	-10.150993417375	1.6954681584140625	3.5140031869484374
O	-6.536202017375	2.634319358414063	4.213279146948438
O	-4.473299057375001	2.7040485784140627	7.362901536948438
O	-2.3333250973750004	-0.46115826658593734	7.476713206948438
O	1.2444191426249995	0.10302470991406266	6.629901816948438
O	3.2013252026249996	-2.5306009615859373	8.636464846948439
O	6.3242453926249995	-2.409498621585937	6.481391146948438
O	4.5224480126249995	-2.279016881585937	3.2218301569484376
O	6.138783612624999	-0.4312763945859373	0.32069046194843753
O	9.429954302625	1.3069699384140625	0.41562697894843753
O	10.951759602625	-0.6733787295859374	-2.5018182730515623
O	10.355397202625	-4.039101921585937	-0.8778648950515624
O	11.413996402625001	-2.669645441585937	2.4762421169484377
O	14.880524402625	-1.4687495915859374	1.3229548169484375
O	15.550587002624999	-4.6670049615859375	-0.6910073500515626
O	3.6589994026249992	7.804928168414063	-10.700714103051562
O	6.146307432624999	8.608563778414062	-7.945626053051562
O	8.395830442625	5.556251598414063	-7.444353153051562
O	9.548553502625	3.619413038414063	-4.361921173051562
O	6.964749692624999	0.8466751414140626	-5.1795480930515625
O	4.237518192624999	3.472317468414063	-4.5616550130515625
O	5.474658902624999	4.727666218414063	-1.1331495630515624
O	4.383646982624999	2.9937259684140627	2.0610522969484375
O	6.112384542624999	2.606325198414063	5.365263556948438
O	4.287112232624999	2.3925825484140626	8.629894766948437
O	5.143929842624999	0.7635927484140627	12.008422896948439
O	7.041419342624999	3.9434096084140626	12.992997896948438
O	9.039061152625	3.9113355084140626	9.679652186948438
O	7.056455682624999	6.907063108414063	8.500954686948438
O	6.983387182624999	7.075698678414063	4.678874336948438
O	3.5924629126249994	7.7657521184140625	3.0963639569484376
O	3.5303396426249996	8.878531188414062	-0.5619064730515624
O	0.6849926226249995	6.874226628414063	-2.2690488730515623
O	-0.3859390223750005	5.053748838414063	-5.420515363051562
O	-1.4885389913750005	1.5329242384140627	-6.003215423051562
O	-3.7367571573750005	2.7159271884140628	-8.891827573051563
O	-5.962400517375001	-0.2595258055859373	-9.963569103051562
O	-4.386846227375001	-2.561701491585937	-7.328617943051562
O	-0.9610597043750004	-2.6714234015859373	-9.062216103051561
O	0.42342762662499955	-6.328762741585937	-8.981292873051562
