31

O	-0.3638998854266673	-1.444958941778613	31.010696611222215
O	-2.196474157765905	-3.1014663975195202	29.6557375227916
O	-0.42017387613352664	-3.0101227865454283	27.90070963811065
O	-1.5245660214524837	-0.62626840597069	32.715181553889025
O	-0.5436196175119753	-0.00676679590078999	31.90942217248856
O	-2.65630879595683	-0.608221874071333	31.923822997451683
O	-2.573160663332553	0.8615149123740284	31.890360812027225
O	-3.5255133685648135	-0.7233979878387413	30.794567005400296
O	-4.838178821520455	-1.051517599061464	30.907294314530024
O	-3.4225218436501796	0.43971699384357943	29.862273481139248
O	-3.661995055936563	-0.02184228674467903	28.62384990188286
O	-2.2258008258014574	0.9288935410443124	30.519949016993746
O	-2.5728396334008483	5.888327587487005	29.841906809538745
O	0.7750323874119701	-1.962642629126083	31.726983121383267
O	-1.7476729818805172	-4.5027928120890035	29.54374701922624
O	0.6680998740397287	-3.0023016516390606	27.065607753229514
O	-3.5335660726155935	4.995922137505891	30.195163715413624
O	0.17028569772305832	-0.7813920222436317	29.676494398866218
O	-3.7152686602855263	-3.2099076052328797	29.145611096500698
O	0.46031055834304113	-3.718696242970489	29.173502652874483
O	-3.287889529335599	3.694055438959278	30.305872539413752
O	-1.6077872767575792	-2.5113596717283087	31.02886937376591
O	-1.4156807280252415	-1.9942888708460882	28.596140088023777
O	-1.3554710159854946	-4.344678943203542	27.48957462368094
O	-2.063590037911002	3.258843148373106	30.035847082994103
O	-1.1059927719571838	4.181958612643173	29.726596804795033
O	-1.3219226393564445	5.524064344978368	29.572367591666147
O	-0.35204577655782593	6.455358680416721	29.176312752997504
O	0.03321890668078009	3.538903519808588	29.482765522018198
O	-0.23175507610178372	2.2816581612580644	29.794766794364453
O	-1.5209197440412627	2.069658558527853	30.15121629889529
