39

O	-3.528227540817988	2.979451735806812	30.697058412412417
O	-2.7646708520598873	6.63921623621771	30.734092890965293
O	0.03327465510198602	3.618727244894606	31.404190355157528
O	-4.544826005396498	3.8673549819681106	30.697401594269213
O	4.4134222693835214	5.760841506802702	29.62421939162394
O	-3.9777586441433144	1.7588731679220087	30.987802657135585
O	-4.313186337340981	5.1846060329371335	30.981176690263684
O	4.30125252638028	3.4132045315829505	28.75510199750544
O	-5.741354499015028	3.371383018937114	31.18867578222967
O	-2.2337599286426864	3.1620691922451996	31.0049139767116
O	5.962845125699786	3.438204859407411	28.865555984651888
O	5.981976271877818	5.836851002251973	29.59127032450116
O	-1.9488971465247973	4.492542698130698	30.925008163589467
O	7.588396065814258	3.4198088297973337	30.66392421204865
O	-2.942447992274082	5.394574360690875	31.137559590508758
O	-1.4656180777117962	6.940224753200752	30.69731555458824
O	-0.42538926499044116	6.109064488208794	31.06802352948133
O	-0.7430412735471448	4.811341793295531	31.347571508659833
O	1.2249361058109156	3.977204344118644	30.939986760990404
O	-5.947113566060322	3.777564256186011	32.47651937318073
O	-4.316478419236082	1.9690842562959916	32.30820113083835
O	1.8510385607620343	4.781123458906769	31.822799376022203
O	2.867963204169258	5.4876954718117315	31.316684734956066
O	3.0541164901318503	5.659119690362956	29.977004350371352
O	2.249421174011152	5.029867241583744	29.1721132651844
O	1.314687201201032	4.133740741064839	29.60139440422745
O	5.298354375837734	5.461128671349123	30.64363491385634
O	5.443992016128805	3.9663531948814965	30.744127689922816
O	4.7094407924302235	3.0932360860857946	30.121376233628837
O	6.509113739283601	3.5936269937095995	30.07889015531737
O	3.7462742928441233	2.3063245416634803	30.704511485905535
O	5.884332245145361	3.377325435473475	27.88604266742156
O	7.534312390334028	3.5620360832695033	28.196930670107413
O	8.55757505436693	4.494977612301767	28.55299154147731
O	9.603251051040054	4.599931349126974	27.540619266533362
O	10.156824939573983	3.609250215440822	26.974128322946914
O	9.826358801882908	2.551744937581347	27.681584792128334
O	8.558761302830419	2.545229052741626	28.4687375387568
O	1.4449331101872747	5.089321725595506	33.0932822464912
