36

O	-0.9521895706566395	3.9485764681887994	30.65333302452796
O	-1.3906664582912858	5.232530698519375	30.469145600208133
O	-1.9403820232342333	3.325347788048478	31.38123231032114
O	-2.7006631471481546	5.585504955365625	30.88228430434164
O	-3.261183209802038	3.3291426418125294	30.953969572978025
O	-3.7369613632971665	4.6513717960396175	30.907136805884058
O	2.559386545190903	2.716550605431854	28.773907879092366
O	1.4216952733707613	1.8702256404839632	28.74251675752862
O	2.806210405753772	3.192420917417906	30.461302742559926
O	0.26400414870664335	2.6626005258184042	28.962945238294704
O	1.0968156179231263	2.7791020927184755	31.12929408324915
O	0.1960369633701336	3.226922342500125	30.02033042193323
O	1.0490515127286102	0.797668278941011	27.81595256073491
O	0.04236456345686879	-0.11960155826863339	30.64995496268537
O	-0.8961175238058928	0.7707647927453554	30.33772721851038
O	0.4368313398910806	-0.84533648923236	29.577183576137656
O	-1.2188991505261983	1.232174468662513	28.999144058227103
O	-0.5674422109048043	-0.8255518949955709	28.429746326292538
O	-0.4544125156131562	0.5290213102478818	28.048943856667062
O	-2.0413350395587315	0.7796281836892405	31.1513077939302
O	3.574419768567262	2.1536245477331146	28.23044756778419
O	-4.227171757379046	2.391126499118033	31.215010339596873
O	-4.878603712692624	4.666746684211354	31.652381389506097
O	-5.592037918479857	2.417726632909285	31.320045015685952
O	-6.163843463508721	5.046877697672153	31.65825985911287
O	-2.543223554274666	-0.18937960610111615	30.202502702242707
O	-2.390903050986561	-1.34158713684573	30.57229451070113
O	-3.7117509324655997	-0.04940206505676947	29.51340759304766
O	-5.012268303189336	-0.0985444474460162	29.40996745336148
O	-5.562169202191735	-0.8815868273325114	30.560429184702915
O	-4.786128624632286	-2.0998591774671427	30.228738344495333
O	-4.551706927019017	-2.460106955551794	28.884508390766715
O	-3.4280267079734745	-3.2563073410501104	28.521605255176475
O	-3.7379997442960913	-4.411952582499324	27.651690646509888
O	-5.655876829706002	-3.4106413023565354	28.747035733625204
O	-6.903762165175869	-2.609063220039693	28.931518541515675
