27

O	-3.483329721041215	-1.6893506386604509	28.67444774593974
O	-0.264577910091947	0.5959461629090117	29.73333626673749
O	0.43323244366955993	1.0865163442436616	31.724774072193778
O	-3.630824067643685	-0.668415429908932	29.529003855730775
O	2.3597563061847056	3.9817904724553568	29.104794732318595
O	-2.533810193632679	-0.30109640510073366	30.313152545849565
O	2.9141302041030244	3.5711970193643507	30.28685567146033
O	-1.2706401425613296	-0.33387801877551126	29.818954524639853
O	1.7236116907259689	3.4509997279988704	30.91473114234098
O	-1.1409621063869162	-1.4107600760925774	28.948563207004106
O	-1.9280445456736124	3.6456325983358764	28.025542295913862
O	-2.217482556368815	-2.0040152546679773	28.291330159459743
O	0.46591709456569086	0.7829298136056275	28.558699876597593
O	1.288940846811108	1.9492121398609197	28.353969533111275
O	1.037416089040807	3.371647173512447	29.11261835110873
O	1.2620897107048337	2.4636532283515016	30.161951889207167
O	0.25808944986091276	1.5329732920725307	30.61373162054601
O	0.9579877787883962	4.3277591744858555	31.812966632951078
O	-0.374098271631231	4.712411017511411	31.23336534479606
O	-0.2856066933850817	5.544770036335075	30.21753935367451
O	-1.2524884179027485	5.717757296892585	29.24110582198932
O	-1.9560269354272717	4.5484975263326515	29.043805860942676
O	-2.26416323684936	3.9514988453751254	30.27001936637623
O	-1.292189588246869	3.7828501088626334	31.250595156793636
O	-2.4214309463504913	2.3665697737619418	28.209928594190686
O	-3.48924650174652	2.333071471975921	29.104084964907663
O	-3.2540593191505383	3.0198225356407598	30.20811066986706
