103

O	-0.5312411865490644	-4.074033383126984	-0.23479866409523842
O	-0.0668797094920644	-3.678340213126985	-2.3796412730952383
O	-1.7758992114920644	-0.4145704531269845	-2.4181841740952383
O	0.4827210685079355	-3.8066688431269844	-1.1453865630952382
O	-1.4464296444920643	-3.0368645931269844	-0.29001504409523826
O	-1.3210365634920644	-2.0456298531269845	-1.2932949680952384
O	-0.5972501860920645	-2.3842843531269846	-2.3415892410952384
O	-1.5418323514920644	-2.5772027031269844	1.0146702859047618
O	-2.2686728814920647	-1.4731888231269843	1.5733506559047616
O	-2.022869161492064	-0.28376322312698443	0.9921298759047619
O	-1.3156653574920645	-0.09202490312698441	-0.20577963409523825
O	-1.7416104714920644	-0.8509794031269844	-1.2585680380952384
O	-1.7319653514920643	0.8611956748730155	1.6262785859047617
O	-2.4330733714920645	1.9560566138730155	1.0146600859047616
O	-1.8428725714920644	2.2133640068730154	-0.18390264409523827
O	-1.0262467064920644	1.1133978158730156	-0.5582236440952383
O	0.8875701585079356	-3.6934036931269842	-3.4592435640952384
O	0.48083148850793567	3.2869467668730157	-1.1175938680952382
O	0.5695906085079356	2.8177004168730155	-2.4349639940952383
O	0.6798898985079356	1.4397168938730156	-2.4763920940952384
O	-1.5443013814920645	1.9759368528730157	-3.896171294095238
O	-1.2569015344920644	4.059863846873016	-3.017960934095238
O	-2.2464566214920643	2.8407831068730154	-1.3401301917952384
O	0.9158422385079357	0.7624812628730155	-3.7880646240952385
O	0.9640509485079356	1.7094007428730156	-4.932083304095238
O	1.3322433785079355	2.9494119268730152	-4.450400884095238
O	2.7353480985079353	2.8198297668730152	-4.356063364095238
O	2.7632423585079353	1.7955496008730156	-3.316438534095238
O	2.2223248785079353	0.5755973718730155	-3.491122454095238
O	1.2442934985079355	-2.4557403431269846	-3.8590497540952384
O	2.286984748507936	-2.6173208231269847	-4.637579014095238
O	2.444037798507936	-3.9010279231269847	-4.780359634095238
O	2.004372558507936	-4.420074093126985	-3.5901296240952383
O	3.1409667385079354	-1.5548093531269847	-4.836288234095239
O	3.018753008507936	-0.7472686431269844	-6.033160904095238
O	4.179031088507935	0.3066388298730155	-5.981272324095238
O	5.406417498507936	-0.31371245312698437	-6.253389984095238
O	5.131694888507936	-1.7023389031269844	-6.402114354095238
O	4.367101888507936	-2.3519179831269845	-5.3249452840952385
O	-1.2731262884920644	2.635887366873016	-2.6926325540952383
O	-4.871579761492065	-4.1425329531269846	-10.519124264095238
O	-2.2030840314920646	-3.5549593831269846	-8.004417954095238
O	-2.0591911414920645	0.08543477887301554	-8.976141304095238
O	-3.978230151492064	2.9536498368730157	-10.378451394095238
O	-3.4997959114920647	6.657615996873016	-9.995061964095237
O	-5.507126091492064	9.576928196873016	-11.178145314095238
O	-8.240022061492065	9.424162626873015	-8.502117844095238
O	-8.070144761492065	5.921458216873016	-7.062860344095238
O	-6.936459011492064	2.4076817268730153	-7.617916724095238
O	-5.993158241492064	-0.7024832031269845	-5.763792694095239
O	-6.878164901492064	-4.243175443126985	-6.512012714095238
O	-5.933329831492064	-7.628125043126984	-5.2803625340952385
O	-8.718549111492065	-8.932410913126985	-3.2399045140952385
O	-5.905613481492064	-8.216512963126984	0.6188172959047615
O	-5.457260461492064	-4.915559303126985	-1.2196795960952382
O	-8.808707911492066	-3.3289559931269848	-2.1503924330952384
O	-8.694694161492064	0.3961810158730156	-2.6388725240952384
O	-11.372822821492065	2.0659930868730156	-4.805190714095238
O	0.7194526685079357	1.1370303398730155	11.568804365904763
O	-1.4155144484920643	-0.1000197031269845	8.677509165904763
O	-4.820217561492064	-1.4606069931269845	9.882583865904762
O	-8.221231751492065	-1.5054701431269844	8.162225435904762
O	-14.130226621492065	-0.4119427431269844	-1.1746319290952383
O	-11.526523821492065	0.0743646378730155	1.6049455859047619
O	-9.964045291492065	-3.251417163126985	2.4752342059047616
O	-6.381194961492064	-3.3957898631269847	3.6422825359047617
O	-4.178970571492065	-6.321786083126985	4.573786445904762
O	-1.9016510614920645	-7.3443220631269845	1.6958464759047618
O	1.6333553985079357	-6.1082116331269845	2.083970535904762
O	3.770557538507936	-8.590802833126984	0.1399123359047616
O	6.647528698507935	-6.185243783126984	-0.3299722640952383
O	4.569252518507936	-3.086814363126985	-1.1485466090952383
O	6.032135548507936	0.1486528188730155	-0.1049018040952383
O	9.313857618507935	0.6966433458730155	1.7813543359047617
O	10.936993678507935	3.0823127568730158	-0.6998411750952384
O	10.596589378507934	0.6512947118730155	-3.4744973040952383
O	11.623776478507935	-2.2136518031269845	-1.2885029740952383
O	15.798942478507936	0.5602688728730155	-3.8420944940952384
O	15.372415378507934	-3.023573533126984	-5.165449834095238
O	5.357254958507935	10.526434766873015	6.420869515904762
O	7.835876828507936	9.345830036873016	3.782425215904762
O	9.236090268507935	5.911743226873016	2.806014265904762
O	6.812678948507936	5.840379166873015	-0.18568615409523836
O	3.9024509385079362	5.740730806873016	2.300768935904762
O	5.1897873285079354	2.8772821268730153	4.4417506359047625
O	4.259865328507936	-0.6222341631269845	3.550359425904762
O	6.199206988507936	-3.812784113126985	4.235420455904762
O	4.626074688507936	-7.116864683126984	4.871726005904762
O	5.736019698507936	-10.760968963126984	4.2277420959047625
O	7.497165668507935	-10.750159463126984	7.624187505904763
O	9.330189838507934	-7.464114253126985	6.790599205904762
O	7.148927598507936	-5.633578533126984	9.280579265904763
O	6.8742975285079355	-1.9227912231269846	8.364630735904763
O	3.4283075585079352	-0.3905641031269844	8.431425605904762
O	3.129348298507936	3.3740961668730156	8.506142525904762
O	0.3452681295079356	4.3119280768730155	6.050335895904762
O	-0.7172218554920644	6.955514266873015	3.511573295904762
O	-1.7810028714920645	6.2370569368730155	-0.03859398409523829
O	-4.136347671492064	9.326663836873015	0.1671722359047616
O	-6.274473251492064	9.392087296873015	-3.0318970140952386
O	-4.538791251492064	6.254273026873015	-4.430108114095239
O	-1.1255912394920644	8.114487546873015	-5.0118145340952385
O	0.3172701005079356	7.090247146873016	-8.500012394095238
