41

O	9.214075978901802	4.733783334592335	25.35224733338489
O	9.692346155319164	2.686270482886413	25.156442350072208
O	2.8145953673907544	4.442775351109913	29.159943955310702
O	1.92771246525553	3.458893985754248	29.67476212857511
O	9.530314131268572	4.976507595200886	24.000044306701362
O	10.466725862945879	3.040082363520355	24.050091510891992
O	-0.3467867024704989	4.233872584681431	29.581289881103245
O	-1.938642719095066	3.346175077450765	31.190430146500262
O	3.566534933652418	4.929022688417497	31.439177314245512
O	-2.819704514843089	4.761862083691938	28.733202186321915
O	-2.8691263112827468	6.650947930047751	30.375171404457973
O	-3.3466187981032505	5.525004808060002	31.721232608438193
O	-1.7841830171277913	4.321519947204776	29.338140462801917
O	-1.3234248082789488	4.630523303877204	31.42318959098366
O	-2.046851751505609	5.842950110067019	31.122864237010834
O	-2.382443728545571	3.1417349987324155	29.89354877371791
O	8.780385124363352	3.474856891936682	25.859232466916872
O	3.4366779562690235	5.322318024113662	30.05535790927878
O	1.6701516808539165	3.734517847668355	30.986024631117967
O	-0.10912760516029696	4.638751291703543	30.815758608729425
O	9.861720537649662	3.9402736597054053	23.21283011354111
O	2.253785868651826	4.667289293100623	31.824067436809855
O	7.9828757754438655	4.76574534397269	29.098191988895156
O	8.165827931944758	3.4218665828654373	29.423725788889264
O	6.746192345865083	4.55161671824931	28.47769313079313
O	8.470245881914563	2.444657942173703	28.353461458198094
O	6.948341465316192	3.63016597151667	27.551285155786417
O	5.471989949790463	4.320750923760963	29.375119519807853
O	9.886554698933686	2.007257122537125	27.940035888502035
O	-4.939683817495713	2.5214524550864468	30.36051115875045
O	-3.9202032286406947	3.787985917185541	28.763486076269047
O	-4.217665301889857	6.510249948370817	30.345237898936166
O	-4.547346779649002	5.686415368831732	31.206262549099698
O	-3.7193048965341244	2.9702809347713433	29.689726962434996
O	8.2336302610636	3.287509556975867	27.18445093025283
O	4.738991517517688	5.4051600199888705	29.816203612625248
O	6.034212471189799	3.195909318318515	27.011262121048127
O	4.716670703822665	3.2879126361935898	29.461583953347116
O	0.3986283300626301	3.6555298543090635	31.52346936802337
O	10.634653508989745	4.267403788520977	22.12364913413286
O	1.7672865950984287	5.025087126096053	33.06211417271478
