95

O	0.2885118827656249	-1.9286192723437496	-1.6179587814843752
O	1.2811872077656248	-1.3717949423437497	-0.7724963004843751
O	3.3810853777656247	-6.237254122343749	1.929698278515625
O	-1.3843265302343752	-1.8604527023437494	-0.9444421454843752
O	2.461163397765625	-0.8137884883437496	-1.126449019484375
O	0.514432457765625	-0.3716750453437496	-0.35051073248437514
O	2.457565487765625	-5.6425021623437495	0.17757385751562482
O	2.123540677765625	0.6870984566562504	-1.439149433484375
O	0.7280079877656249	-1.0792159223437499	-2.6389082514843754
O	-0.36955667923437513	0.22436334705625033	-1.312883038484375
O	2.177169137765625	-0.8118814133437496	-2.448823471484375
O	-2.338845812234375	-2.8919173023437494	0.0321678295156248
O	0.8126244077656248	-2.5732446023437494	1.5259661085156249
O	0.8328615177656249	1.0081105906562504	-2.015400731484375
O	0.5810272777656249	-4.509445222343749	1.6396287985156248
O	-0.8831287062343751	0.3685765456562503	0.032476267515624824
O	2.5601556077656245	-4.23283131234375	1.727027568515625
O	-1.8674450022343752	-2.8414149523437495	1.5118091085156249
O	-1.5757638782343752	-3.8943230723437496	-0.6598185597843752
O	-1.6385609932343752	1.6608856476562504	0.5166419085156249
O	-2.338706962234375	0.15864903215625034	0.5841261885156248
O	-0.4131098802343751	-2.7807802623437494	1.2198591385156248
O	-0.10745085923437514	-3.9522494023437496	-0.5102817097843751
O	-2.208551072234375	1.8248420876562506	1.8467585585156248
O	-2.375006072234375	-0.20943232734374967	2.017836088515625
O	-0.4997944662343751	-4.231894972343749	1.0027592585156249
O	-1.924405762234375	0.8019546616562503	2.9782337885156247
O	1.613348167765625	-3.6459003423437495	0.8539949885156248
O	3.448571847765625	-5.04588783234375	1.0363562085156248
O	2.0849239777656248	-6.83966947234375	2.1265418685156248
O	-3.174570092234375	0.7627200886562503	3.602830158515625
O	0.28111008376562485	-11.30571075234375	-5.739720541484376
O	0.7169463077656248	-9.05673757234375	-2.8669120314843752
O	-3.097631052234375	-8.63978289234375	-2.3189270614843753
O	-6.284916252234375	-8.79757390234375	-4.293910491484375
O	-9.635107752234376	-7.22839269234375	-3.615424691484375
O	-12.862749692234376	-7.239564202343749	-5.509869231484375
O	-11.942729292234375	-4.59216911234375	-8.121281141484376
O	-8.155837432234375	-4.4078513923437495	-8.120991091484376
O	-4.973965612234375	-6.1266098523437496	-7.176003461484376
O	-1.3768846232343752	-5.488888592343749	-6.332822151484375
O	1.674787977765625	-7.35856179234375	-7.498411271484375
O	5.342587037765625	-7.333896042343749	-6.736260591484376
O	7.180289357765625	-5.690633462343749	-9.532931051484375
O	7.898093397765624	-1.8821728723437494	-6.513286491484376
O	4.268497087765625	-2.5894686723437497	-6.077303051484375
O	2.219004077765625	-2.8354753923437497	-9.316386531484374
O	-1.459600792234375	-2.0414755923437498	-9.019028211484375
O	-3.9292280422343753	-3.3513223523437494	-11.593256041484375
O	3.0230316977656253	11.01412004765625	1.217160108515625
O	3.0990257677656246	7.97691083765625	-1.1073634974843751
O	4.572259457765625	8.90123042765625	-4.538222381484375
O	3.964783447765625	7.5387157576562505	-8.041151661484376
O	-0.4855419392343751	-0.5537380433437497	-14.333006541484375
O	0.15214962076562488	2.0747304676562504	-11.628748441484374
O	3.670890107765625	1.7167062076562503	-10.254912431484374
O	4.4119954677656255	2.5396752476562505	-6.592774521484376
O	7.496054537765625	2.2448978876562506	-4.438195411484376
O	7.360635867765625	-0.9154996523437496	-2.341567761484375
O	6.601053647765625	-0.33602216834374965	1.2450360585156248
O	8.426126837765626	-3.1686360323437497	3.124676338515625
O	6.385723677765625	-2.9262986223437495	6.289019448515624
O	3.010773027765625	-2.6092387723437493	4.6785995085156244
O	0.33405687076562485	-0.7260074993437496	6.227762238515625
O	0.5662060577656249	1.1065607806562503	9.564739358515626
O	-2.5031429522343753	-0.7218439473437497	11.034361858515625
O	-1.1517840582343752	-4.17535979234375	10.273249658515626
O	2.3155800877656247	-3.0745845123437494	11.350853558515626
O	1.276904827765625	-1.9107303023437496	14.841733658515626
O	-0.9640816172343751	-4.98519972234375	15.424578258515625
O	-10.233914732234375	8.38297800765625	3.9340336185156253
O	-7.370834002234375	9.01764410765625	6.361932848515625
O	-7.050048562234375	5.92332160765625	8.595887678515625
O	-4.076784202234375	3.7644774776562504	9.788172258515626
O	-5.183643162234375	1.0930914996562504	7.2031801285156245
O	-4.423419312234375	3.9307782876562505	4.476983158515624
O	-0.7757210462343751	4.76458529765625	5.739152388515626
O	2.270240997765625	2.7950692076562507	4.570577618515625
O	5.578007517765625	2.1536122576562504	6.166786668515625
O	8.796380047765625	1.7457149576562503	4.289454138515625
O	12.055518207765624	-0.09991035834374967	5.082698908515624
O	13.258814907765625	2.9890517176562503	7.018001798515625
O	9.987896107765625	3.1539533176562506	9.068961168515626
O	8.958793287765625	6.23968577765625	7.128950508515626
O	5.148468357765625	6.62338538765625	7.094509048515626
O	3.610480957765625	7.40671338765625	3.7030636885156247
O	0.029403031765624865	8.715078117656251	3.679944768515625
O	-1.8663312122343751	7.058948277656251	0.8649494585156248
O	-5.302302702234375	5.661311207656251	-0.2825084974843752
O	-6.004944762234375	2.0290347076562503	-1.4813673284843751
O	-8.796068672234375	3.3138590076562506	-3.640261081484375
O	-9.997553332234375	0.42934096765625035	-5.909113861484375
O	-7.491035912234375	-2.0214699823437496	-4.406987321484375
O	-9.261205672234375	-2.1882031523437497	-0.9801017294843752
O	-9.285561362234375	-5.9261525423437496	0.3199977005156248
