86

O	3.577787321873016	3.694189153650793	-2.775670868666667
O	0.34841163187301616	-0.995068306349207	-0.3518124756666667
O	-3.964007578126984	2.200164683650793	-1.2245620536666668
O	3.956673741873016	2.814578293650793	-1.8052438386666667
O	1.026566521873016	-0.4041645163492069	-1.2743400456666667
O	3.138326361873016	1.7659238306507932	-1.3420171576666666
O	0.33196933187301614	-1.533332216349207	1.656605121333333
O	1.9788672418730162	1.6297173036507933	-2.0401313686666667
O	-0.3673520181269838	-2.472414476349207	1.0869535113333333
O	1.409143061873016	2.5412955236507933	-2.7803934486666666
O	2.2594996018730162	3.6243676536507934	-3.150296018666667
O	1.0834502918730162	0.8883914636507931	-1.2267149956666668
O	0.32457091187301623	1.5953837916507931	-0.3671146666666667
O	-0.15973897512698387	0.8252411066507932	0.6944089613333334
O	0.4371462418730161	-0.4667449663492069	0.8959230213333332
O	-0.3020639371269839	-2.1120514563492065	-0.2292757616666667
O	-1.3721043251269838	-2.332705066349207	-1.1577936556666666
O	-2.282778618126984	-1.1875562063492067	-1.1776866556666667
O	-1.685036430126984	-0.09126261634920696	-1.7942512386666665
O	-2.175276858126984	1.149794031650793	-1.5846565476666665
O	-3.0824683481269837	1.3449378846507931	-0.6320964326666667
O	-3.3826245881269843	0.33224766065079314	0.22849987333333333
O	-2.532009118126984	-0.7191097563492068	0.14648556933333334
O	9.376967881873016	-6.148939736349207	-5.155911238666667
O	7.906089901873016	-3.2795676263492064	-3.202256688666667
O	6.391124331873016	-1.7339655163492067	-6.367036418666666
O	5.0727647818730155	-2.685745796349207	-9.754647278666667
O	2.611206831873016	-0.9290278563492069	-11.985720318666667
O	1.073755591873016	-1.7730999763492068	-15.287570518666667
O	-1.580891756126984	-4.227542016349207	-14.024326318666667
O	-0.37960756312698385	-5.362513966349207	-10.634617238666667
O	2.5347125518730165	-5.587238916349206	-8.282160498666666
O	3.3677833118730156	-5.787485746349207	-4.616526378666666
O	5.901866551873016	-7.951131546349206	-2.8415147186666667
O	7.321873131873017	-8.345484216349206	0.6021235913333333
O	5.803763201873016	-11.375500276349207	2.220706971333333
O	3.230562801873016	-8.343919876349206	5.1337573113333335
O	2.706161061873016	-6.864114246349207	1.673381281333333
O	1.532662131873016	-9.288490776349207	-1.0200032836666666
O	-0.40025227012698383	-7.906418866349206	-3.9540133886666666
O	-0.5459118101269839	-9.842209476349206	-7.255820778666666
O	-8.347948268126984	2.167487733650793	7.600910151333333
O	-6.095026568126984	-0.40806832634920687	5.9286674113333335
O	-7.202080168126984	-3.959616756349207	6.782728401333333
O	-6.994604748126984	-7.204554496349207	4.824733341333333
O	-6.442273368126984	-13.877277876349206	0.3824786113333333
O	-2.563854618126984	-13.040311876349207	-3.6384815686666667
O	-4.155289658126984	-10.319453976349207	-1.4541979006666668
O	-2.3129461581269837	-10.002545976349207	1.8240375613333333
O	-2.022622958126984	-6.729428466349207	3.7125505213333336
O	-0.23000903712698384	-5.6287361363492066	6.854244671333333
O	3.1380494118730162	-4.087826526349207	6.083553561333334
O	3.3363437918730163	-0.3236978163492068	6.370791611333334
O	6.902899621873016	0.6088148546507932	7.205758281333334
O	6.641809061873016	4.200157173650793	6.043050771333333
O	4.847109931873016	3.5109408636507933	2.775375921333333
O	2.2714412218730162	6.1274455536507935	1.6140292313333333
O	1.6456489318730163	9.447314743650793	3.1844408913333333
O	2.5265261018730163	11.565064223650793	0.13942040833333336
O	5.974429831873016	10.020499153650793	-0.19569637066666667
O	6.464291541873016	10.179756923650793	3.548067501333333
O	5.811094361873016	13.941170623650793	3.8473521913333335
O	-10.054148638126984	8.148848783650793	-4.597619358666667
O	-9.040930918126984	9.740496793650793	-1.3090090316666667
O	-5.633553888126984	11.379940423650794	-1.790298078666667
O	-2.335016708126984	11.311216323650793	0.19574098033333331
O	-0.9334573331269839	8.805291123650793	-2.3204614786666666
O	-3.634629828126984	6.360444863650794	-1.1176862366666667
O	-3.0373470581269837	6.780593693650793	2.695000761333333
O	-0.44512568012698384	4.555057413650793	4.339996531333334
O	1.703419501873016	5.013386003650793	7.387249841333333
O	2.7943007018730164	2.266645873650793	9.706611881333332
O	5.7985119418730156	1.8434037266507932	12.047717381333333
O	3.012164441873016	6.622464213650793	12.329757981333334
O	-0.5769039831269839	5.4527318736507935	12.265834681333333
O	-2.299524048126984	6.5911360836507935	9.042476201333333
O	-4.322320538126984	3.9315679336507934	7.233002771333334
O	-6.793286958126984	5.107131283650793	4.607888101333334
O	-6.522529498126984	2.795110513650793	1.6439460713333331
O	-6.673786968126984	2.462677533650793	-2.206757838666667
O	-4.0193861381269835	1.1387794456507931	-4.5835663486666665
O	-6.625519928126984	-0.03333214634920689	-6.948139088666666
O	-4.984123388126984	-2.147065746349207	-9.751629028666667
O	-1.512096876126984	-1.745221976349207	-8.203478938666667
O	-1.2722481401269838	2.007125167650793	-8.975230058666668
O	2.289921001873016	2.8568336136507932	-10.373006988666667
