91

O	1.1112727093955233	-1.1655346861044777	-1.6937133854641788
O	1.8604423693955234	-0.42591678510447767	-2.623452780464179
O	0.5364640293955233	-0.4715923771044777	-0.5850465624641789
O	1.9104527693955236	0.8938025188955223	-2.6233970204641786
O	0.6566295693955234	0.8656467278955222	-0.5126302954641788
O	1.7373623493955233	1.3637594738955223	-1.332178367464179
O	2.5568675093955235	-2.4806338361044777	-2.326481120464179
O	2.3102023393955236	-1.5035618961044777	-3.3407018504641792
O	1.6517211493955233	-2.3678938261044777	-1.384435926464179
O	0.5103237193955233	1.5170437138955222	0.6409131195358211
O	-0.23543909060447665	1.2455614048955224	1.584480129535821
O	0.5612210493955233	2.912281303895522	0.816969159535821
O	1.2786209393955237	-2.874302826104478	0.3368384495358212
O	-0.48859505060447667	-2.9066554261044777	0.4532453495358211
O	1.8896786593955235	-4.154712376104477	0.48551036953582116
O	1.6155309193955234	-2.0050792061044778	1.4131340695358212
O	-2.201604770604477	-4.796756846104477	0.6680805795358211
O	-1.8158433946044767	-4.675162866104478	-0.6724054384641789
O	-2.487261190604477	-3.505632646104478	1.1776629295358212
O	-0.6709981726044767	-3.8256144461044777	-0.7267254554641789
O	-1.5151900546044765	-2.547012806104478	1.2280300595358213
O	-1.1388197416044767	-1.5672119061044778	2.121344539535821
O	-2.2128068406044767	-0.6876631761044778	2.344916519535821
O	-0.33738309560447666	-1.4454513361044778	3.0376888195358207
O	9.713176159395523	-7.413781126104478	-2.332807140464179
O	6.273960149395523	-6.0422385361044775	-3.2140581304641787
O	4.594084669395523	-8.487494586104477	-0.8108901102641789
O	5.190997189395523	-10.316398056104477	2.4481370995358214
O	2.7795583493955234	-11.564698256104476	5.061845009535821
O	4.108502089395523	-10.213713956104478	10.43836769953582
O	5.272811519395523	-7.621932746104478	7.965373649535821
O	6.510329229395523	-6.966949056104478	4.482513119535821
O	6.699576729395523	-4.252459276104478	1.864262119535821
O	9.528899259395525	-3.3032350761044778	-0.3918735654641789
O	10.124413359395524	-1.0251900361044777	-3.304563380464179
O	12.009923159395523	1.9937892738955223	-2.101893740464179
O	9.503381259395525	5.763324323895522	-5.951987560464179
O	7.867905849395522	4.598376733895522	-2.7178611104641788
O	6.729896389395523	1.5612783238955223	-0.8330621535641789
O	8.625382469395523	0.6922888768955223	2.356146109535821
O	6.780972089395523	-1.2581118861044778	5.039742779535821
O	8.764832719395525	-3.270544446104478	7.605337389535822
O	-6.865305050604477	8.733326913895523	1.647486369535821
O	-3.3974208206044767	7.196576193895522	1.646249799535821
O	-0.7257516216044766	9.597121103895523	3.0621635195358214
O	2.5067381493955234	8.889101763895523	4.970167709535821
O	5.7806154593955235	10.057418993895523	3.394743309535821
O	7.4662850193955235	9.484481353895523	6.790204029535821
O	9.081470549395524	7.044962943895523	9.136586189535821
O	12.662707559395525	5.794634363895522	9.08850319953582
O	10.405598259395523	1.6635742538955223	8.152016209535821
O	7.062918929395523	3.3148751338955225	7.290540159535822
O	7.279984459395522	5.0320040438955225	3.913915609535821
O	4.371787599395523	5.447848053895522	1.5873278295358213
O	3.776837349395523	6.751759383895522	-1.8924154404641789
O	3.9909520993955234	4.058857173895523	-4.570461730464179
O	0.6091636493955234	2.9682192538955223	-5.970470260464179
O	1.2206901593955233	1.6938294238955223	-9.452436710464179
O	-1.9850610706044765	-0.3097667251044777	-9.65854041046418
O	-1.6984420516044767	-1.8682726961044778	-6.133167480464179
O	-5.063186640604477	-2.6101145061044777	-4.396594640464179
O	-8.502429670604476	-1.9951483861044776	-5.792915540464179
O	-9.697393810604476	-5.593009856104477	-5.431383750464179
O	-6.805126550604477	-6.9774432161044775	-7.452329550464179
O	-7.151994620604477	-4.170790006104478	-9.96329100046418
O	-10.303828810604475	-8.636044326104477	-10.95160280046418
O	-11.682033440604476	-2.502171906104478	7.958892379535821
O	-13.027340440604476	-0.7344196461044776	4.865940769535821
O	-12.977709140604476	-3.242129976104478	1.975080299535821
O	-11.688257940604476	-3.136202426104478	-1.6755313394641789
O	-8.616484550604477	-5.071285086104478	-0.5543544624641789
O	-7.736939670604477	-1.9609370961044776	1.6850489795358212
O	-8.126438880604477	0.6794604318955223	-1.083438713464179
O	-5.142511890604477	1.4583926438955224	-3.3102593904641786
O	-4.923100880604477	2.8225545738955224	-6.787195420464179
O	-2.2980401006044766	5.117734343895522	-8.15128695046418
O	-0.8825187980044766	5.782040203895522	-11.673543500464179
O	-3.6841795406044766	8.313798933895523	-12.239007000464179
O	-6.377090190604477	5.774908863895522	-11.12368040046418
O	-6.837752710604477	7.755462973895522	-7.936419090464178
O	-8.237333140604477	5.552761003895522	-5.150085160464179
O	-6.593481580604477	5.886371513895522	-1.759004677464179
O	-8.484788330604477	4.560517593895522	1.2775748195358212
O	-5.903660410604477	2.710482473895522	3.443856619535821
O	-5.394519300604477	-0.2847711491044777	5.7511224495358215
O	-2.7071422006044767	-2.9448870261044777	5.481884329535822
O	-2.5891825506044768	-3.4073730561044777	9.13412961953582
O	0.31823366939552333	-5.784055676104478	10.05159019953582
O	1.2884608793955237	-6.2501068861044775	6.413442629535822
O	-1.8801169006044764	-8.258986196104477	5.565471489535821
O	-0.9144831207044767	-11.277470556104477	3.2227488195358216
