41

O	-3.708861165167518	2.6907748154586097	31.525558171468557
O	-3.387018178602489	6.3960458360806225	31.225712114694836
O	-0.22593038756245631	3.720411111628806	31.264052648100044
O	-4.8231828531070295	3.4628095915033503	31.19894238991879
O	4.547596510911101	5.087316551221053	30.05264085345063
O	-5.964712355371486	2.867550436771638	31.684596633961082
O	-4.701689225536738	4.695927634762244	31.909924209437747
O	6.1985840136664265	3.985247105146305	28.569237532148687
O	7.36441440679012	4.591024938386115	31.4030850963184
O	-3.425635533241102	5.154708321993397	31.625311806381724
O	6.159547675909293	5.120839649567838	29.344183041106604
O	9.397433701808584	2.349040539372016	28.65543243878547
O	-2.289086302717379	4.356773374673223	31.72060691268779
O	4.546588609078815	2.9454836519468106	29.58795786182103
O	-2.4095236701703997	3.0090807085130233	31.554925284695273
O	-2.1284603587881494	6.730345283926967	30.893771220203515
O	-0.9380844479454669	6.0691794701370085	31.03422255222332
O	-1.1198635894748574	4.742351614621007	31.14490747755048
O	1.013736370176335	4.105930203471883	31.003762112228472
O	1.3970106955140644	5.255471356884245	31.70429968149844
O	2.7638083275364713	5.451192652825806	31.462004323551916
O	3.1346371608062973	5.383218215338025	30.16918675253201
O	2.3311708714308668	4.8574815684630135	29.272470964940243
O	1.1685647397885646	4.222251122013818	29.62920183764116
O	-5.89881646062862	2.2869654365791927	32.94421874624584
O	6.210990692367775	3.5148913146967837	30.654603331553133
O	6.977288435733573	3.254870976923477	29.51158814301957
O	6.611086463270542	4.875180910959783	30.56273875612171
O	7.873176834598151	5.6074537113535055	28.94021453688049
O	6.921696627655047	1.7586420994265368	29.2676268582575
O	4.7454839978103776	3.7262910151669892	30.5949330791503
O	8.486580680417411	5.959914763169768	27.856601907601856
O	9.713428630392116	5.786086926344581	27.166075735232145
O	10.651228578105354	5.175278494805161	27.801941054260038
O	10.334107462690492	4.956976476939662	28.98797782184018
O	9.036982880118199	4.985117082617718	29.509909111799036
O	7.7177013446706155	3.895688763494972	27.618796244277533
O	8.70291883706929	2.8851566173778473	27.618216527601675
O	9.584977171558835	1.9087249385045189	27.158450349235533
O	9.392271071982483	3.189085916727298	26.258054885364313
O	0.8804133631046556	5.506549431614774	32.93548186371083
