25

O	-0.3469009624237188	1.50355225273241	31.719117258161894
O	2.679678448941847	3.085633552716914	28.297631402409102
O	3.6510947353342167	3.9832014513532696	28.714884667589832
O	3.990095104319049	4.822932503331964	27.606541071407868
O	2.8847137155744886	5.493169182340298	27.187370793638856
O	1.7827736464693804	4.723592108530443	27.073804421873064
O	1.5233757593067727	3.8920330034427275	28.17429283779378
O	2.074351318020031	2.8252962880995494	31.189130002684536
O	2.582940032078656	3.942928617965225	30.449684526882432
O	1.9464344721066693	5.040025316942628	31.154402987060045
O	0.6776369041261372	2.7929685787094707	31.40607503893015
O	-0.16010731684867574	3.767786423056584	30.768371963316614
O	0.5020057425724778	5.082464114942427	30.97465239345625
O	-0.27872965296883134	6.037704393640418	30.208074760411044
O	-1.3357611008368888	5.25292288864816	29.58998133559508
O	-1.5456303524019535	3.89934535101214	30.095707347837667
O	-0.9428321255591056	5.309367492327153	28.359697823941918
O	-1.3467714535129294	2.702702541279411	29.397298142488268
O	0.03291770307321712	2.4113914266229592	29.11340450472512
O	0.9102078277242074	1.3778965806729087	28.72849985430377
O	2.3362808459008066	1.704116611140278	28.67825328555246
O	0.4839587224959268	0.3212520434702286	29.21890304245349
O	2.5652003885601133	6.848279349762072	27.29972745542631
O	2.756029813754302	6.262514643769071	31.02723514692932
O	3.0798893852716307	1.008250519333497	27.6130516705101
