88

O	1.2004753573433329	2.06931204125	-0.8329845318000008
O	4.331990527343333	3.17382386125	0.4954727441999992
O	1.428513407343333	4.21856159125	-0.7424875818000007
O	0.9320115973433329	0.3624920242499998	0.3474453861999992
O	-0.7471304986566671	3.12255368125	-1.0447055838000008
O	-1.983248662656667	1.6125114912499998	0.23459129519999922
O	1.2320385773433329	-0.5810694487500002	1.3074379401999994
O	1.8438669973433328	-1.6962233987500004	0.7128974501999993
O	2.5790849273433327	2.09153633125	-0.33359303980000077
O	3.366532537343333	3.3247401912499996	-0.34267493580000075
O	0.39568758034333296	1.70922684125	0.3633146581999992
O	0.591184290343333	3.39614872125	-1.039907548800001
O	-0.9242668676566671	2.16442410125	-0.08528541780000076
O	4.6125229873433335	1.79550699125	0.3242313141999993
O	3.2330782073433326	1.0816200482499998	0.20446735819999928
O	3.5555255673433326	-0.18175368575000017	-0.36527755280000074
O	4.651049327343333	-0.8013987287500003	0.1681726731999993
O	5.209042707343333	-0.2632371547500002	1.3819333601999992
O	5.284429087343333	1.0785528922499998	1.405554370199999
O	-0.12321530965666708	-2.54190756875	0.5656856201999992
O	0.351715104343333	-2.8420458987500004	1.7208334101999991
O	1.577266147343333	-3.6624908087500003	1.895690900199999
O	2.4760198473433332	-2.7197343987500004	1.4972831101999993
O	0.763020497343333	-1.8698682187500002	-0.2688132708000007
O	0.2512411953433329	-0.5215782887500001	-0.5275882231000008
O	-1.053263801656667	-0.6180595587500003	-0.8426961178000008
O	-1.812482322656667	-1.8068898087500003	-0.8332463468000008
O	-1.5007042926566672	-2.6251714887500004	0.13040624819999924
O	8.318876897343333	2.18135269125	-10.581036889800002
O	8.109792527343334	-0.5540937787500001	-7.9513058998
O	7.071701977343333	0.7068330022499998	-4.606444149800001
O	7.6270872873433335	-2.75777037875	-2.949184639800001
O	7.669911577343333	-6.40377501875	-3.753778869800001
O	7.1320732373433335	-9.37767122875	-1.5315834698000006
O	3.487789487343333	-13.23777771875	-3.643503189800001
O	2.5971823673433327	-9.70063071875	-4.6404563398
O	3.9227946073433335	-6.30963259875	-5.485795969800001
O	2.957483447343333	-2.6857743987500005	-5.550327669800001
O	3.605200717343333	-0.10330988175000022	-8.2525781798
O	3.149985617343333	3.5800175312499998	-8.748065299800002
O	0.17023385034333294	4.21413956125	-10.9073694898
O	-2.235424762656667	5.78665704125	-6.866929129800001
O	-0.6882212206566671	2.59161519125	-5.7978528098
O	-1.289063865656667	-0.49386739175000016	-7.952667739800001
O	-1.149340453656667	-3.85920882875	-6.2663758198
O	-0.49324860365666706	-6.98471732875	-8.406165709800002
O	0.039998143343332904	-10.75785741875	-8.219585589800001
O	-9.778994592656668	3.2459715712499997	6.7594138102
O	-7.958565772656667	2.6666371612499997	3.4479881301999993
O	-10.400454162656667	2.76138596125	0.5000211361999992
O	-10.371820962656667	0.9590373432499998	-2.840579199800001
O	-11.179847862656667	0.014647976249999806	-7.984617609800001
O	-8.514089042656666	-3.48322516875	-13.130823089800002
O	-4.786394682656667	-4.878736458750001	-10.457034849800001
O	-6.156215102656667	-3.50639047875	-7.1329704298
O	-5.985695672656667	0.2745652612499998	-7.173052079800001
O	-5.4986022026566665	2.19293522125	-3.932969849800001
O	-5.0549968126566664	5.89276869125	-3.133177129800001
O	-1.410381262656667	6.736698201249999	-2.7277625798000007
O	-0.3178292421566671	7.27650624125	0.8516932501999993
O	2.670120287343333	9.718038021249999	0.7391991801999992
O	4.128090017343333	8.53471865125	4.022560050199999
O	3.7584189073433327	4.69860876125	3.4717236101999993
O	3.1116701473433332	2.6269782112499995	6.605725920199999
O	2.8913816373433328	3.9687311712499995	10.131293510199999
O	5.659951217343333	1.7293529312499998	11.506233410199998
O	8.187921507343333	2.9458344412499997	8.966952900199999
O	6.989407027343333	6.48725658125	9.3903642502
O	10.902009437343333	4.92170100125	13.0302132102
O	-3.8928944926566666	-8.22699112875	11.680234510199998
O	2.9387579373433326	-2.10848749875	9.7670858102
O	-0.692105428656667	-2.3550910987500004	8.4325723102
O	-1.6893555326566672	1.3130854612499998	8.967408400199998
O	-0.8864951506566671	3.80094278125	6.1687518302
O	-0.30659742275666707	7.56385746125	6.4429450402
O	-1.285924620656667	10.04677526125	3.809144250199999
O	0.05244900334333291	13.52769698125	2.776205290199999
O	-2.1702501226566673	15.103122481249999	5.435487740199999
O	-5.603959082656667	4.69101700125	7.130970070199999
O	-6.238713652656667	1.30549018425	8.746524180199998
O	-5.436985892656667	-1.3341588087500003	6.1439882502
O	-3.9690338426566667	-4.86142562875	5.661654940199999
O	-1.095807729656667	-5.6624814287500005	3.187534670199999
O	-2.574363572656667	-9.17821331875	2.6478792801999993
O	-0.6172826466566671	-10.98228601875	-0.17904914380000075
O	1.7298214973433328	-7.975949258750001	-0.6581711038000008
O	3.506615167343333	-8.45750927875	2.741718160199999
O	7.342229937343333	-7.82794376875	2.297726820199999
