98

O	-1.6688501144032257	-0.7217381802741933	3.9345835550161294
O	-0.4291246965032256	-0.25528965027419326	3.242183355016129
O	-2.682621856503226	0.11841908972580661	3.233144405016129
O	-2.815678846503226	1.1304643522258067	-1.868674074983871
O	-4.6151040965032255	-0.2716704802741934	0.544567026016129
O	-1.3002606795032257	1.6835215047258068	2.128210505016129
O	-2.4883167015032255	-0.6813492202741933	-0.8767645299838709
O	-5.390772976503226	1.6335436287258067	-0.20754296898387092
O	-5.918775476503225	3.1712438897258064	4.14625429501613
O	-7.0733370865032255	3.891196389725807	2.304792195016129
O	-5.334995886503226	2.2116514997258068	3.165583775016129
O	-6.630122796503225	2.8931685097258066	1.319517085016129
O	-1.6087580127032257	-0.44920013027419325	1.190672785016129
O	-0.6182158085032257	0.3751953337258067	1.924795135016129
O	-3.0509949265032255	0.5820135067258067	-0.33342435948387095
O	-2.5222416725032257	0.3053152427258067	-2.963641004983871
O	-4.473161096503226	0.7402164377258067	1.516642585016129
O	-7.223201986503225	3.402734989725807	3.620909105016129
O	-0.9506673375032257	-1.5280394902741932	0.701917615016129
O	-1.4088936385032258	1.1194702255258067	5.24330722501613
O	-3.0766457565032255	2.500018569725807	5.188238855016129
O	-4.487853226503225	0.5573693887258067	-0.7381481109838709
O	-2.1374657855032257	1.5980936187258066	3.214483385016129
O	-5.175317376503226	2.7735550597258065	1.795137185016129
O	0.7145059434967742	-0.4149942002741933	-3.672558444983871
O	-2.2934404015032257	1.7255467507258067	4.53337738501613
O	-4.540258426503225	1.9970053597258066	0.832827445016129
O	0.6090652834967745	-1.4298399502741932	-1.174571802983871
O	0.4183914934967745	-1.1455856102741933	-2.469693684983871
O	-1.0128353425032257	-1.4103965402741931	-2.707568684983871
O	-1.2672544025032257	-0.045088230274193286	-2.583280354983871
O	-1.1456042605032257	-0.003992710274193234	-1.136530821983871
O	-0.4511853565032258	-0.8560256002741935	-0.34041615868387093
O	1.8563196534967743	-0.9595907202741933	-4.0522965549838705
O	-0.17360224650322564	-0.5675760002741934	-4.73472118498387
O	0.5555102834967742	0.8300377137258067	-3.268578444983871
O	-10.666934646503226	-5.367619760274193	-2.2946710049838708
O	-8.504202336503226	-2.399855410274193	-1.975992424983871
O	-8.460743166503226	-2.7583885602741933	1.9249749350161292
O	-8.793561366503226	-5.172578660274193	4.73645828501613
O	-7.527611656503225	-5.068328920274194	8.26745551501613
O	-4.821337876503225	-9.829136650274194	9.889489595016128
O	-4.351462326503226	-9.052208850274194	6.2037439650161295
O	-5.877501606503225	-7.570991390274193	3.123185115016129
O	-5.025905806503226	-6.041522330274193	-0.17304935998387092
O	-6.532203456503225	-6.644574720274194	-3.596688484983871
O	-6.275898936503226	-5.1555389502741935	-7.036409454983871
O	-4.303599286503226	-7.470913770274194	-9.16632031498387
O	-0.6200991785032257	-4.243560960274194	-8.962727574983871
O	-1.6829323343032256	-4.586936780274193	-5.397841734983871
O	-1.8971071405032256	-8.083505040274193	-3.968687064983871
O	-1.4189087615032256	-8.371220150274194	-0.2389263999838709
O	-2.767376186503226	-11.532364550274194	1.4916024850161291
O	-3.219505666503226	-13.229539550274193	4.894678195016129
O	11.371743853496774	2.8734331097258066	-1.523052634983871
O	8.506711053496774	0.5060149297258066	-2.3625817249838708
O	9.678723753496774	-2.5122649502741936	-4.404288094983871
O	8.431503453496774	-6.094739440274194	-4.56452480498387
O	7.248158783496774	-10.920714450274193	-6.3757059649838705
O	0.4149317134967745	-13.406818950274193	-2.124058054983871
O	2.918232033496775	-10.529954250274194	-1.967553064983871
O	2.730982953496775	-8.477714970274194	-5.126445004983871
O	3.4257448134967747	-4.770836840274193	-5.0666819849838705
O	3.373325843496774	-2.1147197002741933	-7.77895307498387
O	0.10355921349677422	-0.2375626002741933	-7.60067017498387
O	0.22461487349677434	3.1249607897258067	-5.97792089498387
O	-2.3941872435032256	5.267127309725806	-7.72988416498387
O	-2.5514417935032254	7.819430609725806	-4.94280587498387
O	-2.5149246935032257	5.5587719597258065	-2.001243794983871
O	-0.7743294135032257	6.561370289725806	1.158911555016129
O	0.8594016034967742	9.954293339725806	1.667289825016129
O	-1.1069433635032258	10.948728439725807	4.75492558501613
O	-4.394808716503226	10.483784889725806	2.9747094950161292
O	-3.1138623765032256	12.140321349725806	-0.11163351798387092
O	-5.306307326503226	15.565585949725806	3.7063201150161293
O	-7.3752933165032255	15.456594349725806	0.46519095401612903
O	7.629846123496775	2.6463624597258066	11.652743295016128
O	5.280093373496775	7.823857859725806	9.280464085016128
O	3.2756429634967743	9.480324589725807	6.4074796950161295
O	0.7248847734967743	6.718104499725807	6.745587575016129
O	3.3972855534967747	4.171314439725807	5.632083485016129
O	4.554742853496775	6.109112769725806	2.557980285016129
O	2.7519524534967745	5.387049569725806	-0.7459053219838709
O	2.4461088134967746	7.768402419725806	-3.724974724983871
O	2.4022912734967745	6.669393319725806	-7.313906854983871
O	0.8035140434967742	8.060543719725807	-10.530159904983872
O	3.863587183496774	10.289951289725806	-11.021808004983871
O	3.6529927534967745	11.605468249725806	-7.39659608498387
O	7.605515463496775	5.219051829725807	-1.859280244983871
O	8.734727553496773	4.5358639297258065	1.717553795016129
O	6.965466403496774	1.3254955367258066	2.781045645016129
O	5.125522473496774	-0.34458915027419335	5.68510513501613
O	1.7701755934967742	-1.8682313802741934	5.82918218501613
O	2.993897013496775	-4.479263850274194	8.303970635016128
O	0.19999332349677434	-7.067406170274193	8.844090365016129
O	-2.143349029503226	-5.197503900274193	6.471220025016129
O	-2.6283712265032255	-2.241547380274193	8.885332785016129
O	-6.4151636965032255	-1.2280608102741934	9.00917318501613
