95

O	0.41313923262295027	-1.5790610562622953	-0.2823813544918038
O	-0.030378709377049673	-1.5852517262622954	-1.5361657014918038
O	-1.3891708453770497	-1.7653355262622954	-1.825355847491804
O	-1.3579206623770497	-3.039727236262295	-1.2061781754918037
O	0.7392613626229504	-2.7214336062622952	-2.2359497714918035
O	-0.22824467137704962	-2.9617262062622953	-3.2578696414918036
O	-0.30637328937704966	-2.3816648962622953	-4.546368491491804
O	1.0528651126229502	-1.7311288362622954	-4.789698901491803
O	0.8961780726229504	-0.9344974362622953	-3.556607261491804
O	1.6512335426229505	-1.4446855362622952	-2.5172486914918037
O	-0.47795499037704964	-4.436221626262295	-3.400853921491804
O	0.2023680186229504	0.5840460567377047	-4.427912891491804
O	-0.5912399436770497	0.8134304887377047	-3.084388411491804
O	-0.12439629837704963	2.0288989837377045	-2.546825421491804
O	-0.12214618937704963	2.782128103737705	-3.825011811491804
O	-1.0119836763770496	2.5279317337377045	-4.929375981491804
O	-1.8867600173770498	1.3408454957377047	-4.636717111491803
O	-1.8901610873770496	0.4598372997377047	-3.580497941491804
O	1.7239061626229506	-6.103681456262295	-0.03755892149180373
O	1.2400833826229505	0.3802563065377047	-3.655002971491804
O	2.1058486226229505	-5.908673906262296	-2.839509991491804
O	2.3702909026229504	-4.788773406262295	-2.1810253714918035
O	1.6972969626229504	-6.114615046262295	-1.4460200334918039
O	-0.19599247037704964	4.156955563737705	-3.5117320414918036
O	-0.3579860363770496	-0.06758409026229528	-5.391389181491803
O	0.7213154126229503	-4.730615776262296	1.8623255985081961
O	1.1278159426229504	-4.992690626262295	0.5668568485081962
O	0.9269546826229503	-4.056561706262295	-0.6224592034918037
O	-0.41631579537704966	-3.7358123562622954	-0.42208685449180383
O	0.08468502362295038	-2.839333266262295	0.6166789185081962
O	-0.0018245683770495846	-3.4274455562622954	1.875369298508196
O	0.5909579426229504	4.394406843737705	-2.497037991491804
O	-1.4279769713770496	4.458321553737704	-3.179533991491804
O	0.061761274622950335	4.652070863737705	-4.726970151491804
O	-6.46576977737705	-13.023185366262297	0.09413495850819631
O	-2.9615421273770495	-11.626674666262296	0.5351032585081963
O	-1.7285316673770494	-10.896784166262297	-2.962923751491804
O	-1.1218028223770498	-4.768969616262296	-11.830455181491804
O	-2.24073145737705	-2.540561696262295	-8.922607891491804
O	-5.334835847377049	-4.945158536262295	-8.581047181491805
O	-5.91670889737705	-7.507278446262295	-5.706777801491803
O	-5.35109737737705	-7.003555916262295	-1.9378457354918037
O	-7.14817301737705	-8.831046346262294	0.7785335185081963
O	-6.963681777377049	-8.877850076262295	4.536623228508196
O	-6.9480016373770495	-4.260326496262295	7.821718308508196
O	-5.746357407377049	-4.485424396262295	4.202305398508196
O	-8.03549695737705	-3.6900791562622954	1.242707238508196
O	-6.95705000737705	-3.040773616262295	-2.4038128314918037
O	-9.66845308737705	-3.3755986362622954	-5.0981894414918045
O	-8.99664200737705	-1.2460215262622953	-8.220434831491804
O	-8.72796006737705	1.8483377437377047	-13.178787281491804
O	-4.683456837377049	5.571450973737705	-9.104190681491804
O	-5.140029337377049	9.334638093737706	-8.867154051491804
O	-1.3889768213770495	7.744881253737705	-5.440620021491803
O	-4.6206112873770495	8.557599953737704	-3.7357774314918037
O	-3.9919552073770497	12.387450933737703	-3.715777631491804
O	-0.47248700237704966	11.756129433737705	-2.412263511491804
O	-1.2998633033770495	9.199560263737705	0.2372185585081963
O	-4.20850335737705	11.248165833737705	1.5013245685081964
O	7.123295092622951	4.808032883737705	7.454390008508195
O	4.59204559262295	5.533034003737705	4.638344868508197
O	1.4977030026229503	3.4698975437377046	4.014333508508196
O	-1.7196896673770494	5.353591443737705	4.692904248508196
O	-5.196490997377049	5.263736263737704	3.203109568508196
O	-7.676402767377049	4.811187923737704	6.079704228508197
O	-10.84495081737705	4.444984573737704	4.023169128508195
O	-8.48935130737705	1.4370624537377048	-0.8490677684918038
O	-8.24785359737705	0.5560532457377048	2.831728798508196
O	-4.725907347377049	0.6815722097377047	4.2092665785081955
O	-2.3266090173770495	-0.4901014912622953	6.9207138085081965
O	-2.1336181373770495	-4.311267546262295	7.072595688508196
O	1.3713385926229504	-5.799592186262295	6.916497378508197
O	2.7839517026229506	-9.298091086262296	7.271872688508196
O	5.088114722622951	-9.327565256262297	4.235710268508196
O	7.24769510262295	-7.103105826262295	1.944447608508196
O	10.19363668262295	7.763105993737705	5.085504068508197
O	12.06069268262295	9.208450593737705	2.104981178508196
O	8.454777972622951	8.228431513737704	-5.4328596114918035
O	9.60449558262295	3.242655223737705	-8.207320981491804
O	11.302011582622951	2.3004455537377044	-4.954370151491804
O	12.080423782622951	-1.4433452762622954	-4.815582841491803
O	8.36262642262295	-5.119562316262296	-3.3514866214918038
O	7.37805827262295	-1.5803966062622952	-2.451621031491804
O	8.47396466262295	-1.8513370762622952	1.0410789185081963
O	6.15905906262295	-3.583083706262295	3.5184929285081963
O	7.050857712622951	-5.036035676262295	6.950042938508195
O	4.98027692262295	-6.263181186262296	9.918161418508197
O	8.29343467262295	-1.8966753662622953	11.184004218508196
O	8.59359694262295	-0.7632536562622954	7.5699879785081965
O	6.3110351126229505	1.3403878627377046	5.4199768185081965
O	6.66491780262295	2.5850867837377045	1.7414842185081962
O	3.862617462622951	1.9680148437377047	-0.5749350594918038
O	3.2670133626229503	2.1828507137377047	-4.269156051491803
O	3.0839806826229506	5.922954603737705	-5.237226581491804
O	1.5979715626229503	5.2361322037377045	-8.729880141491805
