22

O	-13.55897662811492	14.572646421950536	41.452063701319474
O	-13.006643784948489	13.28220401783149	41.60398599193734
O	-17.971320890141545	19.255082537421742	44.812325225429035
O	-16.128366268731444	13.034505319093647	42.589086636515745
O	-14.158395783157866	12.33001611096599	40.989105009221696
O	-17.126095135984983	15.080379811720464	42.54116641285705
O	-17.431056984050922	13.673251165091095	42.77706169274832
O	-12.575786792889811	15.226982682977576	40.7331723061721
O	-15.404609758317646	12.81112147137681	41.324551728519694
O	-16.24098752485703	14.636435286637173	41.626818252167766
O	-17.176894779364517	17.053167298901904	44.108262461212014
O	-16.63389029952128	16.117285138854	43.283970800092526
O	-16.914853539976043	18.454999542704876	44.34634283963942
O	-15.431803365075002	13.978692923764767	43.50700718315529
O	-14.471162266047592	14.88656800883474	43.503368249168666
O	-13.751358282889992	17.308168037382725	42.653339194387655
O	-14.936576740666272	14.292962407938584	41.28919824711235
O	-12.28360157560484	17.701552988380186	42.90961446335086
O	-12.269338814391475	18.362878406753886	44.25838504052708
O	-13.6806514055639	18.335022246015825	44.751776170267185
O	-14.019498154244388	16.886947283885853	44.96016200001172
O	-13.998780931427095	16.228650035094745	43.64252703182586
