87

O	2.372752633482144	1.9110619415142864	-2.681680119410714
O	3.0317471334821438	3.4478748435142865	-4.748751539410714
O	2.1473170334821434	2.9022221135142865	-7.218506669410714
O	4.6778149634821435	0.7748141325142864	-2.2636788794107137
O	3.366576203482144	0.8854223715142864	-1.8753386864107138
O	5.136556163482144	-0.4609512664857136	-1.4669343654107139
O	4.669209913482144	-0.2509447364857136	-0.18221494341071387
O	4.254667183482144	-1.5898043564857136	-2.012099190410714
O	4.912334823482143	-2.394864236485714	-2.918197629410714
O	3.783330213482144	-2.3339740564857134	-0.7972282364107139
O	4.570181333482144	-3.4590092764857134	-0.6514034514107139
O	3.9394075934821435	-1.3118688164857135	0.2809645405892862
O	0.9545568994821435	-2.4446859364857136	4.261079930589286
O	1.5304998234821436	1.3233867235142864	-3.759953379410714
O	4.0366971834821435	3.962339103514286	-5.681127109410713
O	1.3586481934821437	1.8621505505142864	-7.814244869410714
O	2.1181707934821437	-2.9829227564857135	3.919321600589286
O	1.3331949034821435	2.6254529635142863	-1.5944138494107138
O	1.6700675734821435	4.366153973514287	-4.764972689410714
O	1.4047707434821435	4.366301403514286	-6.916055289410713
O	2.7401855334821437	-2.654844886485714	2.7983040705892863
O	2.6563938034821435	2.066138313514286	-5.720489799410713
O	3.4249359634821435	3.085085133514286	-3.2303376094107135
O	3.6298795334821436	3.2364153135142866	-7.923083319410714
O	2.2476975134821435	-1.6748277164857137	2.0132926005892857
O	1.0771249534821434	-1.0517920664857134	2.436688790589286
O	0.39053209048214355	-1.4759207564857137	3.541905420589286
O	-0.8691676565178564	-0.9295043464857136	3.8533151405892863
O	0.7770417744821435	-0.04967293648571358	1.613097430589286
O	1.7562080234821438	-0.06427460648571359	0.6690229505892862
O	2.706291993482144	-0.9817325664857137	0.942664210589286
O	10.814470723482144	0.9271262587142864	6.7303372805892865
O	8.625677203482145	-1.3281396064857136	4.567177670589286
O	8.825029443482144	-0.1561165664857136	0.9716683305892861
O	9.477229673482144	2.7516516835142864	-1.3518330544107138
O	8.294598423482144	3.8737464535142863	-4.802376649410714
O	6.879465043482144	6.843561343514287	-6.788543619410714
O	3.893224893482144	6.927684143514287	-4.317052499410714
O	6.428471943482144	7.7858074835142865	-1.7583266644107138
O	7.7082531534821435	5.580126223514287	1.004026760589286
O	5.809132853482144	3.4782861235142866	3.5089513105892864
O	6.916595973482144	2.7270918935142863	7.046680390589286
O	5.531837823482143	0.5908790275142863	9.843515200589286
O	0.09934538148214356	0.6841512705142865	11.482574700589286
O	1.4006030434821435	1.5984496475142864	8.010784660589286
O	2.2726926634821436	5.155912683514287	7.078474670589287
O	2.8384713134821435	6.589108983514286	3.6185381905892866
O	4.716992013482144	9.859801823514285	3.285352640589286
O	3.8810200634821435	11.889331223514287	0.2169290005892861
O	-3.0011434965178565	12.324000123514285	-3.9767344194107137
O	-6.393455256517856	14.025335423514285	-4.095802359410714
O	-6.946758796517856	8.620469023514286	-3.6044790294107143
O	-7.825234336517857	10.564927943514286	-0.4656052684107139
O	-7.270032736517856	-0.41590280648571354	2.015399350589286
O	-7.208659826517857	5.7043203235142865	5.5346230405892864
O	-1.4330771165178566	8.845096823514286	5.183708440589286
O	-2.0809666865178564	6.257585143514286	7.8739430205892855
O	-3.441604396517856	2.9969793935142865	6.473844050589286
O	-3.9028069865178567	-0.7019606064857136	7.131837470589286
O	-0.6662070435178564	-2.512367656485714	7.952126730589287
O	-0.03154807451785646	-5.684365586485713	5.928037790589286
O	2.7998027834821437	-8.243055326485715	5.6767078505892865
O	3.505004523482144	-8.236651956485714	1.9441820805892862
O	1.9748094334821436	-7.7273390764857135	-1.4979455304107139
O	1.1797536294821436	-10.087211276485714	-4.335962899410714
O	4.173867973482143	-8.886857896485715	-6.357207159410714
O	6.6198382334821435	-9.888931776485714	-3.6236415694107142
O	-9.341625716517857	1.5708857075142864	-10.281311569410713
O	-4.0594801065178565	0.3352736725142864	-12.231722699410714
O	-4.760129346517856	-3.130680596485713	-10.814756539410714
O	-1.6031439765178566	-5.230486136485713	-10.584825659410713
O	0.11265287948214356	-7.5660480464857125	-8.069724059410714
O	2.0296300434821437	-4.7778112264857135	-6.325226299410714
O	-1.2898197865178562	-3.047462566485714	-5.6511922294107135
O	-2.6490562965178563	-6.058689756485713	-3.834357089410714
O	-1.5857653165178562	-6.3202652764857135	-0.17370290241071384
O	-1.7876172865178561	-9.462075676485714	1.9728155505892861
O	-1.3878279265178564	-10.071774576485714	5.686448930589286
O	-3.7387673265178565	-14.014304976485715	3.401655840589286
O	-6.518860196517856	-11.456748376485715	3.7886786705892863
O	-6.200268426517856	-9.216961276485714	0.7327359505892861
O	-6.736559336517856	-5.4611572764857135	0.27440349058928604
O	-6.601855566517856	-3.387370006485713	-2.912269139410714
O	-4.459600376517856	-0.2063997064857137	-2.650689519410714
O	-3.3208953265178565	2.7659800935142864	-4.696422779410714
O	-6.330295046517857	4.632169963514286	-6.0735183694107135
O	-4.235409016517856	7.3713957135142865	-7.660929489410714
