31

O	-14.012883095149327	10.665721754483716	40.909277382502275
O	-15.420590941812492	11.212396858194955	40.80446894756945
O	-16.806455175816616	10.845351506388047	41.12257084287024
O	-17.571177503938177	11.681387051256674	42.00935848692846
O	-17.300549507322597	12.999341703330913	42.356566022675516
O	-17.036534884977776	13.829537039728217	43.446660774833646
O	-16.315832058857712	15.039405687252891	43.44491064717532
O	-14.97940521162366	15.248010834511298	43.92939392327582
O	-14.706093725787193	16.328248416582163	44.90755468168953
O	-15.227648983163832	17.59490245169102	44.34562721205526
O	-16.654373457718712	17.33644397233154	44.0838129446379
O	-17.20416858580536	15.97568461308399	44.30817843840662
O	-16.156889876566414	13.448934831564852	41.63419281843539
O	-15.214576266153097	12.449259164454212	41.61845942967406
O	-13.919607333070228	13.080460295580485	41.576598992647554
O	-12.971504688259786	13.036552815766946	42.70771107418099
O	-11.71877128077431	13.200627977548361	42.12746941225393
O	-11.921033213226117	12.633492341882029	40.87620309406613
O	-13.256937048786398	12.77828405011604	40.29296593216541
O	-10.857019245105203	12.795758378700613	39.942290964009196
O	-10.010047129322006	11.723365201926532	40.035933281334536
O	-10.054234929904933	13.907662232888056	40.15425774747865
O	-9.646320898264465	14.282804603130373	41.42141920688798
O	-8.175271780673883	14.350486179203395	41.70628396208328
O	-7.627388282656582	13.484201235303331	40.78248272291336
O	-10.185465432118347	15.683305923933997	41.4981108038903
O	-11.44790066249944	15.995155365474325	40.779480911881656
O	-12.747858417375747	16.19078099888052	41.56801927068024
O	-12.446892023036941	17.06998911705057	42.73379835351574
O	-11.647688052517202	16.141572785838193	43.57414996836218
O	-10.313462567037792	16.045335768140873	42.911118280129784
