25

O	-13.092897387641228	14.809975217559003	43.77195165600479
O	-11.574082566285984	14.801909566906941	43.59689793588123
O	-11.860848864473915	15.418281543007136	41.71500033360233
O	-13.350796139712319	15.716006740036772	41.96109857179607
O	-13.94869928903144	14.53903472477378	42.59396740260549
O	-10.927731010388726	15.722018707582286	42.71372614103391
O	-11.89706737759883	12.993382955028878	38.27562307230142
O	-11.073038330488036	14.073566971017485	37.885951690864125
O	-11.469509985855394	15.255509278369612	38.41441977706792
O	-12.775506177083303	15.435826927397365	38.686194908162946
O	-13.532122605799541	14.27295983928877	38.921259227776915
O	-12.97087906284508	12.97424196585655	39.037836049346765
O	-11.84991963465166	13.162615481214791	42.00749611176887
O	-12.67740081669101	12.3007964551104	40.32985234302039
O	-13.698562550479153	12.593687668631066	41.179863776194885
O	-13.250620450020241	13.390510772601722	42.110412243458924
O	-11.49668408964704	12.45617629553111	40.97779793455086
O	-15.43109485556801	10.82986453201586	40.67091833049914
O	-15.024078424309286	12.062297817011869	41.05613088575755
O	-17.093415090371607	12.528241374135133	41.93154128351517
O	-16.767263644389715	10.507347636690234	40.836652365863166
O	-15.935391080751273	12.962956064126926	41.35624460827328
O	-17.448151373903187	11.31299709563716	41.65452376773219
O	-17.59243772181987	13.389876924467963	42.90379047823949
O	-10.573940661375364	15.964108113014653	39.10402303003296
