84

O	0.45790552326415024	4.093781614679245	1.3279975551467924
O	0.21472514326415038	6.531873704679246	2.3169625251467925
O	-0.8418950335358497	8.492155724679245	1.2145197551467923
O	0.9262600532641503	4.749132714679245	-0.9753148168532075
O	1.3470635432641505	3.7995749946792454	-0.027550145853207586
O	0.7561866232641503	3.9333927846792456	-2.2525057348532074
O	1.3095225832641502	2.6885357616792454	-2.1083315948532073
O	-0.7413399627358497	3.693976724679245	-2.4045753248532074
O	-1.1412620577358497	4.583554594679245	-3.4155883248532075
O	-0.8538163443358496	2.2465314056792454	-2.8842299548532075
O	-1.0073777537358497	2.3047995726792454	-4.250764104853207
O	0.42944539326415043	1.6811527227792453	-2.3882694048532076
O	-0.27310538873584966	-3.4339155953207543	-1.8782096648532076
O	-0.8867713709358497	4.570971544679245	0.9561734451467924
O	-1.2241238967358496	6.052891504679246	2.4435644951467927
O	-1.8926253967358497	8.250440584679245	2.1969500251467924
O	-0.14883349073584962	-2.775766945320755	-3.0100822348532073
O	0.2600888532641503	2.870159074679245	2.4185713251467926
O	0.3299697632641503	7.580388714679246	3.5331118251467926
O	-0.9156368379358497	9.357990824679245	-0.12026517385320751
O	-0.0582229707358497	-1.338426425320755	-3.0513070848532076
O	1.2486269532641505	5.328148424679245	2.0876605351467927
O	0.10291811026415032	7.203245384679246	0.7387547351467926
O	0.16429537326415034	9.336868804679245	2.3125721351467927
O	0.0015039982641503746	-0.6926922553207546	-1.8210390948532074
O	-0.11688842173584968	-1.495017735320755	-0.5887331686532076
O	-0.20024153673584966	-2.8113824353207546	-0.5866418499532076
O	-0.3766363897358497	-3.6880544353207547	0.49119278514679243
O	-0.08583325973584965	-0.5226211253207549	0.4691044451467924
O	0.1592113832641504	0.7793139076792452	-0.13195102585320756
O	0.23720089326415028	0.6341213846792453	-1.5252015368532077
O	12.25342677326415	-5.876179875320754	-5.020041294853208
O	10.01466827326415	-3.994399735320755	-7.462005574853207
O	8.75092791326415	-0.4298412553207547	-7.018170054853208
O	5.00255933326415	0.0679456346792453	-6.658423384853207
O	4.2449037532641505	3.469605564679245	-5.201661894853207
O	5.57998096326415	6.302165014679246	-3.1498073548532073
O	4.26249149326415	8.986294984679246	-0.8971586988532075
O	4.72032001326415	10.667517894679245	2.5098797551467924
O	4.05788469326415	7.243569784679245	4.127823705146793
O	7.27511737326415	6.229585544679246	2.5079319651467924
O	7.66848347326415	3.9719737746792454	-0.4897156858532075
O	6.208917623264151	0.5403724946792452	-1.1417641598532076
O	7.90879097326415	-2.1860058353207545	-3.1657839348532075
O	6.92983944326415	-5.669082315320755	-4.272909294853208
O	9.25240427326415	-8.435413885320754	-3.0858890748532075
O	4.60703436326415	-9.520288485320755	-0.7995657668532076
O	4.430052983264151	-5.723011425320754	-0.34582168785320755
O	6.964688693264151	-3.8422800653207547	1.7339251451467925
O	6.77654923326415	-0.3365670053207548	3.0489189251467925
O	9.92914127326415	1.4383448566792452	4.1291877051467925
O	9.47679907326415	4.135542924679245	6.762759005146792
O	3.85512534326415	4.9319272746792455	12.539303495146791
O	-0.7629649787358497	2.170110395679245	12.524942795146792
O	1.4229836832641505	-0.6397819553207549	13.926064695146792
O	6.455898233264151	-3.1220363853207544	7.249444245146792
O	5.547131763264151	-6.274979795320755	5.3427260951467925
O	1.9043798532641505	-6.297646265320754	4.2389134351467925
O	-0.5888426157358497	-7.872272515320754	1.8476522451467927
O	0.38880009326415044	-7.348829895320755	-1.8053563948532076
O	-2.3346235067358494	-5.949265475320755	-4.061092024853208
O	-2.5929685667358497	-4.987412305320754	-7.773664554853207
O	-3.8961734567358497	-1.4148852253207547	-7.509100554853207
O	-5.956235936735849	1.0206026886792452	-5.389953174853208
O	-9.36367472673585	2.602155753679245	-5.983586964853208
O	-7.785709576735849	5.985102284679246	-6.767051064853208
O	-5.7413569067358505	4.598969134679245	-9.642015424853208
O	-10.98469522673585	6.815199824679246	4.299147725146793
O	-10.71091079673585	7.5461824146792456	0.5862816151467926
O	-10.02870291673585	5.812998974679245	-2.7469871948532076
O	-6.21454545673585	5.799876154679246	-2.4091086148532077
O	-6.586542306735849	3.998094204679245	0.9190917151467924
O	-8.60434445673585	1.1836339906792452	-0.6184099066332075
O	-6.497293726735849	-1.5103349353207547	-2.2722023248532075
O	-7.7295767767358505	-4.106159765320754	-4.761512614853207
O	-6.207161206735849	-7.2712082353207546	-6.177068364853207
O	-11.28304272673585	-7.153808555320754	-6.891237814853207
O	-10.61308039673585	-5.003496055320754	-1.2965253708532076
O	-8.56035595673585	-4.093215585320754	1.8007366851467927
O	-8.519022696735849	-0.8631818453207549	3.8113164851467927
O	-5.00595574673585	0.5024037346792452	4.494604615146793
O	-3.2286403267358494	3.4188947446792453	6.173814685146793
O	-4.230306666735849	3.818684264679245	9.761094295146792
O	-1.8625732987358496	6.663830364679246	10.478029195146792
