84

O	-0.03213964878596472	0.9408980467719293	0.7116469667894734
O	-0.2900475357859647	1.5981610407719293	-1.0133820302105265
O	0.6938321682140353	-2.9073686392280704	-0.8556562482105265
O	1.0682439882140353	1.4697456207719293	-0.6642657337105266
O	-0.4089559657859647	-1.6451939792280705	0.4289040967894735
O	1.3429790672140354	0.9445409587719293	0.6815517467894734
O	1.1933513572140353	-3.5484463792280705	1.1031493667894734
O	-0.07083273678596473	-0.36191109122807064	0.15001939178947343
O	0.8177498982140353	3.5173466207719293	-1.0771484432105265
O	-0.5605148667859647	0.31540890277192934	-0.8523760472105266
O	-0.3872054817859647	2.936148690771929	-1.2158622062105264
O	0.3209712962140353	-2.8178868392280707	0.32229646678947343
O	5.244341287214035	3.7246978807719295	0.5114480667894734
O	2.583159327214035	-3.570489919228071	1.3253878267894734
O	3.2604582372140354	-2.3380845292280705	0.8929567667894733
O	3.071592277214035	-1.7396579692280705	-0.35228888021052657
O	4.134541997214035	-1.0829149792280706	-0.8998399492105266
O	5.2726331572140355	-0.9361819492280707	-0.16190972021052652
O	5.161237807214035	-1.1180330592280707	1.1742866867894735
O	3.8929563772140354	-1.3929337792280707	1.7040269467894733
O	1.7423805672140353	2.5853796407719294	-0.7005548528705265
O	3.1340695772140355	2.1086544907719293	-0.3702261262105266
O	3.3555247572140354	3.4083491407719295	-0.6438666518105266
O	4.094801237214035	4.33433189077193	-0.020711173210526623
O	5.205060697214035	2.3562107507719294	0.7200206067894734
O	3.909733747214035	1.8270798607719294	0.6718982767894734
O	6.199357207214035	1.9358107307719294	1.7589553067894732
O	4.736751957214035	3.4472539007719294	-13.078931663210527
O	7.257340057214035	3.8509546807719293	-10.266538153210526
O	8.354511617214035	1.0338531357719294	-7.945576403210526
O	7.570098167214035	1.4435963127719293	-4.311007113210527
O	7.837204937214035	-1.8415912592280708	-2.4763688232105263
O	7.646159167214035	-5.57594739922807	-2.6608068732105266
O	6.718375217214035	-8.56416831922807	-0.5428347562105266
O	4.7136747772140355	-11.783777739228071	-0.3674694712105266
O	1.5969153172140353	-9.804856139228072	-1.2605375792105264
O	3.2491429872140354	-8.963797419228072	-4.540920833210526
O	4.787317517214035	-5.669089369228071	-5.596822453210526
O	3.3648518772140354	-2.1709159192280705	-5.460933713210527
O	4.055204997214035	0.6441964487719294	-7.815175453210527
O	3.0885787672140355	4.284168000771929	-8.029365093210526
O	1.2335239172140353	5.2820535807719295	-11.170563763210527
O	-2.2415166627859646	6.147148270771929	-7.309066653210526
O	-0.7899189317859647	2.906790360771929	-5.903800953210527
O	-1.0284273527859646	-0.3863160802280706	-7.675973203210527
O	-0.47379954178596473	-3.854125809228071	-6.435558803210527
O	0.15913223501403528	-6.703748999228071	-8.831998323210527
O	-0.8365237187859647	-10.13989023922807	-7.571661593210527
O	-6.654970082785964	-12.32802813922807	-2.4327316432105266
O	-9.084885402785966	-8.92076243922807	0.9604056767894735
O	-11.076257592785966	-7.982607839228071	-2.1437711432105266
O	-7.171127232785965	1.4977326407719294	2.6178631767894736
O	-9.545528242785966	1.2710457887719293	-0.27116985321052656
O	-9.822134092785966	-0.47157365322807065	-3.6448128732105265
O	-10.439492792785966	2.1419856507719293	-6.326199993210526
O	-5.495358372785964	-3.782733909228071	-7.371360603210527
O	-5.600028722785964	0.00716149777192937	-7.438265823210527
O	-5.556451692785965	1.6103689607719294	-4.005656983210526
O	-4.707947962785965	4.74164216077193	-1.9807856432105266
O	-1.2881496827859646	6.115084960771929	-2.5767590032105265
O	0.5437666452140353	6.6922525207719294	0.7063265267894734
O	4.070843977214035	8.23994678077193	1.4510920667894736
O	5.446287167214035	5.61231898077193	3.9782312667894733
O	4.391896087214035	2.8789987307719294	6.467724016789473
O	7.626785917214035	0.06690923477192934	9.860646236789474
O	9.803131097214035	2.300747340771929	7.700472996789474
O	-1.9160893227859646	-5.793749409228071	12.567413936789473
O	1.6943970472140353	-4.60381024922807	12.620305136789474
O	3.696489757214035	-1.4766260992280706	11.673362736789473
O	4.252952927214035	-2.5326855492280704	8.068685226789473
O	0.4515459512140353	-2.8176759092280705	7.718600316789473
O	-0.045588154785964716	0.7587252747719293	8.685776946789474
O	0.4231000612140353	3.3231665007719293	5.9455595467894735
O	0.9170020302140353	7.0608123007719295	6.385481606789473
O	0.8407218962140353	9.983746700771928	3.966438726789473
O	2.7884829972140355	13.27962686077193	4.227258906789474
O	0.3997203662140353	14.734724660771928	6.791049876789473
O	-3.103761802785965	10.36895221077193	7.933267056789473
O	-3.0236358227859648	6.63695295077193	8.625419256789474
O	-4.666898642785965	3.777572980771929	6.748446766789473
O	-4.762131422785965	0.12258002377192934	7.744816436789474
O	-3.984410002785965	-2.2247935592280705	4.893358706789473
O	-3.628324582785965	-6.01324267922807	4.156610096789473
O	-6.772549602785965	-7.85655627922807	4.948811986789473
