26

O	-13.730330827308507	14.27448249887517	41.277525376445105
O	-12.370055746349998	14.371078147377014	41.20342365662492
O	-12.071731980575848	13.6842876487368	40.1675960156714
O	-13.99989802511646	12.98162490626455	41.17969257223926
O	-16.264983090839582	12.920241264502181	41.90996862394691
O	-17.37582333174929	18.688597805336244	45.64074570388643
O	-15.315091804097	12.313621519921416	41.13692169609342
O	-17.93747896868132	11.486270830011641	41.539412479012476
O	-17.533596846540352	12.623801626853606	42.09707133413892
O	-18.244636530353656	13.530295352146762	42.94927513658733
O	-17.03417526848548	10.712570111421028	40.864854625663455
O	-15.746226664553749	11.159709557791484	40.56402586864063
O	-17.959372280813017	14.672409075381484	43.63187921209683
O	-16.760361102915034	15.161139721981035	44.25650903097006
O	-16.424860812297116	16.37689345847084	44.9915488869161
O	-17.188396900386213	17.579260822534287	44.93734278479688
O	-18.259267557120808	17.157327935195447	44.13337623454509
O	-18.746537157447644	15.926373293038758	43.58283640986253
O	-12.886669077713687	12.68186862055512	40.317884409688595
O	-12.40900562084443	11.378565931841633	39.91580713786625
O	-14.796781586131228	15.150463304726697	41.76947186491154
O	-14.354621401402287	16.027665064486346	42.67448358005109
O	-14.8327048598261	17.300025485536835	42.68367072443272
O	-15.964691437422195	17.5618449279634	41.994057806187925
O	-16.596449048489863	16.58702162645185	41.328849216179734
O	-15.977195804297677	15.407535305468993	41.17799978035606
