31

O	-10.238171027985704	14.514853985522908	38.3884092234329
O	-9.440413115561057	16.880753010698463	40.96861957440719
O	-9.454408855361892	15.6680419951437	40.09445894971978
O	-10.834369595982611	15.79713418129819	39.431239830761776
O	-11.758326449097519	16.04951468464746	40.45808671215291
O	-11.4692800370909	16.68694929068505	41.738424170245686
O	-10.14378779772616	16.465657425985498	42.22907072651288
O	-9.594233732826913	15.117138160859366	42.37515488731986
O	-8.17279681065882	15.096689825648866	41.9594820423536
O	-7.903112112231696	13.864658834769227	41.40428942814399
O	-10.617207716144929	14.542798991670212	41.78300388305852
O	-11.633408950747661	14.68743113021409	42.87383810201213
O	-12.927110686026252	14.012847126598427	42.817084426421495
O	-13.11417119358982	13.080050947381316	41.59041925182198
O	-11.838927932486296	13.271850636695632	40.95792327987569
O	-10.420707723076877	13.315967139109269	41.301801823009846
O	-10.433066104461062	12.602240008613006	40.16996190733846
O	-14.578863381629754	12.816999574952813	41.39403580072905
O	-15.129115046808266	11.546770625834798	40.9190597044047
O	-16.485024755618692	10.985321018476398	40.98376496951535
O	-17.391711631074493	11.68809511530821	41.691944091679005
O	-16.77262756649592	12.853107996587369	42.219328085936944
O	-15.499767572634028	13.473371578705025	42.28428169265752
O	-17.94310654352689	13.253660918390368	42.888370599061915
O	-17.992229057269576	14.574362010938458	43.2692941314035
O	-16.854206261295076	14.840491933901117	44.051528588506194
O	-16.599657149071138	16.212559748362473	44.57361347083946
O	-17.67448891041035	16.593591853677534	45.33970272709209
O	-18.900935273808486	16.344676209406654	44.81142615181052
O	-19.142801774560425	15.212727196890413	43.87923001619189
O	-13.071596354561425	15.847033332308918	40.50606051871692
