81

O	-4.4755102567537035	1.8378280681592591	-1.1300086564259249
O	-7.200959776753704	2.759970396159259	-1.1402095394259248
O	-3.5875260367537036	3.9266760061592594	-0.12399704032592478
O	-3.142952326753704	2.775836996159259	-0.7486514104259248
O	-2.598212446753704	4.155442626159259	1.0031474765740753
O	-1.358320950753704	3.8365058761592596	0.42404082157407524
O	-2.891229306753704	3.0320386561592594	2.0027996765740754
O	-3.615982606753704	3.5470285061592595	3.0920093365740753
O	-1.510233167013704	2.6326596461592593	2.430420476574075
O	-1.249143776753704	3.3026987161592594	3.602255346574075
O	-0.6849989307537039	2.9672221361592594	1.2383801665740752
O	3.387589413246296	-0.19354612384074077	1.1837257365740752
O	-4.005454296753704	0.9154155721592593	-2.209136953425925
O	-7.563755306753704	1.7307943941592594	-0.13759508142592478
O	3.2127752732462955	0.9297502811592593	1.8617246565740753
O	-5.029211566753704	0.8562954821592592	0.0853115405740752
O	-7.972359996753704	2.1185320861592594	-2.4756641834259248
O	2.0720511732462965	1.6098994361592593	1.817942576574075
O	-5.625892936753704	2.9324716661592594	-1.5492878034259248
O	-7.850369706753704	4.1629569761592595	-0.5017836074259248
O	1.1202538232462962	1.2983033491592593	0.9377464365740753
O	1.3480624932462961	0.15052714915925924	0.1838816815740752
O	2.5015964832462956	-0.5990710138407407	0.2841290985740752
O	2.7602540132462963	-1.7872088538407407	-0.4222118664259248
O	0.30103891324629606	-0.035032153840740765	-0.6013039764259247
O	-0.5766270907537039	0.9558098781592592	-0.2968154519259248
O	-0.08736335675370399	1.8208723481592592	0.5895946585740752
O	10.215453143246297	8.58378226615926	-5.525926163425925
O	8.713107943246296	9.46758947615926	-2.140947333425925
O	5.0058007332462955	9.98469933615926	-1.4639738634259247
O	3.342655773246296	7.56699815615926	0.9287803765740752
O	-0.4070401267537038	7.722022676159259	0.5257771855740752
O	-3.306603806753704	8.55757259615926	-1.7488317934259248
O	-6.876708336753704	7.448260586159259	-2.2910993234259247
O	-9.436842506753704	6.31279125615926	-4.907504843425925
O	-6.9771861967537046	3.4466600061592594	-5.706294693425925
O	-4.638218636753704	6.1267229361592594	-6.921338453425925
O	-1.475445125053704	7.245858546159259	-5.183825563425925
O	1.3757083032462962	5.158284706159259	-3.8175445234259247
O	4.997246753246296	6.280859736159259	-3.6722066934259248
O	8.184514333246296	4.764093566159259	-2.3201785234259247
O	10.959343243246296	4.306602326159259	-4.884646643425925
O	9.782451443246297	-0.6016535238407408	-3.308850243425925
O	6.193761053246296	0.7093680801592592	-3.3750100434259247
O	4.574261963246296	1.9260789521592594	-6.577900323425925
O	0.8915322832462962	2.5503216761592595	-7.205585053425925
O	-0.110015046753704	4.742845396159259	-10.133906773425926
O	-3.537925686753704	4.055457066159259	-11.595224783425925
O	-7.784707326753704	-2.8195272538407403	-11.829156383425925
O	-6.670552156753704	-7.04141459384074	-8.675124003425925
O	-3.984563976753704	-7.73306044384074	-11.303235483425926
O	0.742009113246296	-8.24292327384074	-1.1161502124259248
O	1.9337478132462962	-1.4487197638407407	-10.140345533425926
O	5.122773133246296	-2.290068723840741	-8.260265023425925
O	4.439625493246296	-4.024570323840741	-4.946824453425926
O	5.852749303246296	-4.856578183840741	-1.5196921734259248
O	6.948140413246296	-1.781419003840741	0.4129215765740752
O	5.628717273246296	-1.5382597538407408	3.9887774965740754
O	5.911535693246296	1.0106548795592594	6.8423892965740745
O	2.2558990632462965	1.6103009441592593	7.692135686574074
O	-1.230348533753704	0.06238438615925923	7.720591886574075
O	-3.4874065967537042	-1.0693458738407406	10.569728216574076
O	-5.7418982567537045	1.9791637881592594	10.122701716574074
O	-2.894678176753704	4.423494846159259	10.706960316574074
O	-11.257471496753704	-6.399014233840741	4.447809746574075
O	-10.590256846753704	-3.5800474338407406	6.894217146574075
O	-7.660105286753704	-2.0021603838407405	8.805172746574074
O	-6.571293646753704	0.24925115015925925	5.925135366574075
O	-6.231162786753704	-2.828691343840741	3.7153760965740754
O	-3.8299615467537036	-4.467959853840741	6.133560396574075
O	-0.21596596675370394	-3.29830662384074	5.717621006574075
O	2.5626657432462956	-3.7735322838407406	8.289099386574074
O	6.327295153246296	-3.3455552938407402	8.169741346574074
O	8.676182343246296	-5.838355893840741	12.476104016574075
O	4.915070433246296	-6.153787093840741	12.213078216574075
O	1.320066033246296	-8.16733714384074	7.829025446574075
O	0.09940652324629617	-8.31743184384074	4.211387156574075
O	-3.4559273967537036	-8.06754636384074	2.872960126574075
O	-3.852330386753704	-5.6122152338407405	-0.037350768425924774
O	-6.478265046753704	-4.11574373384074	-2.366702603425925
O	-8.268839596753704	-6.87689386384074	-4.235409683425925
