82

O	8.535116448494232	-1.4551251885961554	-0.6851544979021154
O	9.807733978494232	-1.0724504685961551	-1.2099285519021155
O	0.4632851374942307	1.9271437814038448	-4.786314887902116
O	8.291764078494232	-1.152707358596155	0.6622104620978846
O	6.151107698494231	-1.0910457385961552	-0.12333635990211544
O	6.857069928494231	-1.0109075285961553	1.0611697220978846
O	2.314441848494231	-0.6995548985961552	2.4594524720978845
O	6.508075338494231	-0.42734090859615514	-1.3176154169021155
O	-0.03090304560576923	0.15096306640384494	2.7185250520978848
O	7.693269228494231	-1.1524521585961551	-1.7658855479021154
O	1.7149019384942308	1.0899039514038449	1.2286827820978847
O	4.79139827849423	-0.8406818685961551	0.009070771097884567
O	0.9490776884942307	-0.3328549385961551	-1.7007457879021153
O	4.866578228494231	0.5560008844038449	0.5534292490978845
O	-1.1265739815057692	0.7976636184038449	-3.6030476879021154
O	3.9052077984942306	0.7401674039038448	1.6035445520978846
O	3.5924730884942306	-0.12310673759615509	2.747807812097885
O	4.6894541884942305	-1.079502458596155	2.4143808820978845
O	4.2515623684942305	-1.638266388596155	1.1036592920978847
O	1.3452753984942307	0.3982738244038449	2.4736104220978845
O	-0.6375461495057693	0.3052047284038449	1.4462448720978847
O	0.42432165549423073	-0.572818998596155	0.5342628500978845
O	1.7354502784942307	0.07481255740384485	0.30062588309788457
O	2.168405338494231	0.1737508194038449	-1.1406681849021154
O	2.1185996784942307	1.262075404403845	-2.2397466179021155
O	0.6905215294942307	1.6404847044038449	-2.481413967902115
O	0.24464606149423077	0.9443837424038448	-1.2019703179021155
O	-1.2575486415057693	1.098868758403845	-0.8934912219021154
O	-1.6327931015057693	1.3381526784038449	-2.4026227679021153
O	0.3101084804942308	1.0196983534038448	-3.7559080279021155
O	1.5180305684942308	11.302373241403846	8.559446252097883
O	4.258692938494231	8.661881641403845	8.238052892097885
O	6.128779148494231	7.964690771403845	5.019183572097885
O	5.780485818494231	4.563376201403845	3.6994820420978844
O	6.933809968494231	4.599271011403845	0.04293823309788458
O	7.377434518494231	6.369484001403845	-3.2450739979021153
O	7.217167298494231	5.699977361403845	-6.997031747902116
O	5.841147408494231	6.8392201114038444	-10.334396927902116
O	2.360484118494231	6.515178051403844	-8.823602967902115
O	3.342666548494231	9.258129771403846	-6.379944527902116
O	4.10401138849423	8.764682971403845	-2.6858851179021155
O	2.1647870984942306	6.979992911403845	0.01763136609788457
O	2.0260929984942306	7.914955301403845	3.695476782097885
O	0.4342205854942307	6.341902131403844	6.749039332097884
O	-1.9802420415057693	8.666801881403845	8.607128332097885
O	-4.899291061505769	4.612816941403845	10.790697222097885
O	-5.019417491505769	4.646537721403845	7.006871882097884
O	-2.9018701115057692	4.964980301403845	3.9071547320978843
O	-2.778973181505769	7.966857371403845	1.6436115120978845
O	-1.4030166815057692	8.245804851403845	-1.8809622079021153
O	-7.684461231505769	3.627633091403845	-11.249201977902116
O	-10.210151761505768	5.871602801403845	-9.548261557902116
O	-7.648908571505769	-2.4695832485961553	-2.4373417179021155
O	-10.616386361505768	3.8954949214038446	-2.0764809479021156
O	-7.229967421505769	7.290971021403845	0.9053041820978847
O	-6.949068171505769	3.5082338814038447	0.8543787220978847
O	-6.560522661505769	0.3780629464038449	2.9312042420978845
O	-3.4243346615057693	0.5207502024038448	4.990744742097884
O	-1.1490694215057693	-2.5703759185961554	4.7745433620978845
O	2.2347961384942305	-3.6344641285961554	6.2649445620978845
O	4.167952388494231	-4.697241518596155	3.1411072420978847
O	3.972909698494231	-6.0544198185961555	-0.44511334690211546
O	4.976760718494231	-9.242311948596154	-2.1193729879021155
O	7.9707538584942315	-7.6395333685961555	-3.7914984879021154
O	9.43952515849423	-6.6753703485961555	-0.40879945099211545
O	3.382032658494231	-8.109188218596154	-10.257117427902116
O	4.6414620584942305	-8.626843878596155	-6.695728657902116
O	4.855014978494231	-4.938483438596156	-6.014103817902116
O	1.2256573284942307	-4.551663298596155	-6.756705187902115
O	0.2600720444942308	-7.164392268596155	-4.197966047902115
O	-0.08743152920576923	-5.920477358596155	-0.6666377669021155
O	-0.10225161050576922	-7.812800498596155	2.5746040320978847
O	-0.8799596675057693	-6.899729368596155	6.1697530220978845
O	0.7366918614942307	-8.392019778596154	9.303881602097885
O	-1.4161894215057693	-11.483381558596154	9.090914812097884
O	-0.8222524665057692	-11.953000758596154	5.408083642097885
O	-4.250192301505769	-10.878793558596154	4.113341552097884
O	-3.6117395915057693	-9.896008958596154	0.4864318190978845
O	-5.060948171505769	-7.105510338596155	-1.6772713879021153
O	-4.384368981505769	-6.354507418596155	-5.360306897902116
O	-3.6804128815057693	-2.675344408596155	-6.079251707902116
O	-2.6000118415057694	-0.22621800759615507	-8.857894817902116
