84

O	-0.578836548153847	2.8588670350269227	-3.2548987227846156
O	3.6628165198461526	-2.235495754973077	-0.3309142257846155
O	-1.732754789153847	1.5004480970269227	1.7056902972153845
O	-0.17010196615384698	1.4996614090269227	-3.2779290127846155
O	2.391610289846153	-2.040677954973077	0.3041849972153845
O	-5.819954650153846	3.083811525026923	-0.4907383177846155
O	0.9862206698461531	1.2198766790269229	-2.543939032784616
O	-1.2043838051538471	-0.3604084849730773	-1.4599114007846155
O	1.8690191998461532	0.05231477202692281	-2.6201046927846154
O	-2.324595460153847	2.7852526150269226	0.36637218721538445
O	1.2596164298461532	-0.7323754949730772	-3.5225802527846155
O	0.530581909846153	-0.2954997549730771	-4.576333122784615
O	-0.31451187115384704	0.7702532360269227	-4.354886602784616
O	2.561763089846153	-0.6159557549730772	-1.3583562767846156
O	3.3429111698461527	-1.8376587849730772	-1.5810520817846156
O	1.9040752598461528	-0.9451194449730773	-0.27004343878461556
O	0.728543029846153	-0.48865496497307714	-0.31939885678461555
O	0.24183143984615296	0.7124034660269227	-0.7745404927846156
O	-1.066098609253847	0.7030106670269227	-0.4943396437846156
O	-0.385371603153847	-1.3059985549730773	-0.9566055392846156
O	-1.950485470153847	1.4433207230269227	0.43657915721538454
O	-3.592522800153847	3.309663915026923	0.1355778572153845
O	-4.831436620153847	2.520370695026923	0.3502734772153844
O	-3.5804858501538472	3.062893685026923	-1.3524881267846156
O	-3.353406450153847	1.7733716200269227	-1.7590567287846155
O	-3.392178440153847	1.4139882920269229	-3.0723124527846157
O	-3.765506370153847	2.3521570650269226	-3.9742886427846154
O	-3.996929810153847	3.5757182050269227	-3.5004432927846154
O	-3.413118640153847	3.9272262350269225	-2.3258213327846153
O	-0.657436240153847	3.3059843150269224	-2.0339099807846157
O	0.5750518698461529	3.430202055026923	-3.6680920627846154
O	-1.224387472153847	3.0728308650269227	-4.4094659727846155
O	12.076116699846153	4.212657345026923	-5.0602284527846155
O	8.683064769846153	5.273885315026923	-6.358979642784616
O	5.981706749846152	2.589361055026923	-6.414323492784616
O	2.598098209846153	4.135965175026922	-6.806136132784616
O	0.42391328984615306	7.292044485026923	-6.163040372784616
O	-3.249402000153847	8.135432585026923	-5.448376682784616
O	-5.6479524901538465	9.845504495026923	-3.1214002027846157
O	-3.942102910153847	8.048103325026922	-0.23743700578461557
O	-0.796567116153847	9.963553095026922	-1.0871833469846155
O	2.352022869846153	8.438773515026922	-2.6262081127846155
O	4.266193739846154	5.282193045026923	-1.6384954577846156
O	7.903833049846153	4.637208755026923	-2.135655612784616
O	10.179315299846152	1.684380730026923	-1.5486326967846156
O	10.233831599846152	-1.3634303449730771	3.251195037215384
O	7.287865149846153	0.6311703140269227	1.9241369672153845
O	6.497921459846152	4.195476485026923	2.9044309172153846
O	3.289471979846153	6.160129945026923	2.3662649672153844
O	3.564317559846153	9.993951285026922	2.7038184472153843
O	0.3098497298461529	11.702939665026921	3.683179647215385
O	-5.687403410153847	8.952992955026923	8.086444307215386
O	-6.335622820153848	3.8164660750269226	9.457686987215386
O	-3.673282290153847	4.526221605026922	12.086435987215385
O	-0.8180201071538471	-4.837936024973077	6.330008947215385
O	2.389271539846153	-0.13268250497307732	10.417835687215385
O	3.5563253598461526	5.556185895026923	7.408644357215385
O	6.052527219846153	2.6904299250269226	7.186440437215385
O	4.395456969846153	-0.5694350149730771	6.131680527215384
O	5.044826449846154	-4.044184054973077	4.685322497215385
O	6.545314359846152	-3.8242607449730768	1.1639711372153845
O	4.820206569846153	-5.933332874973077	-1.4961264767846156
O	5.423427569846153	-6.625551484973077	-5.2177232927846156
O	1.9496115798461529	-5.739264254973077	-6.634980172784616
O	-1.823007149153847	-5.596552784973077	-5.883498512784616
O	-5.914273420153847	-4.825931944973077	-9.412455022784615
O	-2.600205240153847	-4.645673094973077	-11.302483212784615
O	-12.634276100153848	-4.229496324973077	-0.001447622784615632
O	-11.566603600153847	-4.342927774973077	-3.6740005227846155
O	-8.663607910153846	-5.714992524973077	-5.805280602784615
O	-6.547984290153847	-2.5858105849730775	-5.411495632784616
O	-6.833937850153847	-3.0797217049730774	-1.5876310647846155
O	-5.318197850153847	-6.537086654973077	-1.7687750567846154
O	-1.504440736153847	-6.630197064973077	-1.9773932317846157
O	0.633542229846153	-9.527100534973078	-3.0464688527846153
O	4.3463584698461535	-10.335791634973077	-2.840368012784616
O	1.216780569846153	-13.928825934973078	0.09475962721538456
O	-1.686473084153847	-11.520888934973078	0.3982947672153845
O	-2.3101529501538467	-8.615313844973079	2.7995258272153847
O	-5.409222920153846	-6.419437854973077	3.117021547215385
O	-4.704405990153846	-2.721870714973077	3.2755615572153842
O	-6.300267220153847	0.8159515580269228	3.2437688772153845
O	-8.571845550153848	1.0574605966269228	6.381498187215385
O	-9.481916040153848	4.689257995026923	5.608297257215385
