67

O	2.241007959017544	-1.0544692824684216	-2.4625165006315783
O	3.158607979017544	-0.4360083724684216	-3.2772502906315784
O	2.442006289017544	-1.6441384524684215	-1.3278434306315783
O	1.989851189017544	-1.3867975824684218	-0.06367872413157834
O	2.390539149017544	-2.272072102468422	0.9870014993684216
O	4.230700039017544	-2.6452952224684214	-0.38935872863157833
O	3.381908969017544	-3.2879527424684216	0.48830489736842164
O	5.724135249017544	-1.4340583024684215	-1.8942224306315782
O	4.631381299017544	-3.4245425124684212	-1.4488458806315783
O	5.383783249017544	-2.6608835524684213	-2.4957994506315786
O	2.345662579017544	7.469789627531578	10.741648089368422
O	2.147720859017544	3.7319710275315785	11.41430218936842
O	4.459678899017544	1.1031610235315785	9.91917587936842
O	2.880443879017544	-1.4663416924684214	7.588320459368422
O	5.620519589017544	-3.1599468524684218	5.589123619368422
O	9.118554659017544	-2.8885281824684217	4.123949969368422
O	10.962642919017544	-4.2132777624684215	1.0779200593684217
O	13.200116019017544	-3.314870142468421	-1.8635116606315782
O	10.513763119017543	-0.8674000924684215	-2.9986733606315785
O	11.132135319017545	1.0294596035315784	0.22578216136842166
O	8.889146479017544	1.1256652515315784	3.2889269493684217
O	5.152897249017544	1.7550537335315783	3.5140818693684217
O	3.417593069017544	3.4257909975315783	6.447526169368422
O	-0.18699435598245612	4.182822997531578	7.311716739368422
O	-0.9644467939824561	7.862364877531578	7.883357069368422
O	-3.793366550982456	10.328476277531578	8.441558799368421
O	-4.628140650982456	12.751514347531579	5.633299789368422
O	-6.219118710982456	7.479833937531579	6.504650489368422
O	-3.879780160982456	6.519056247531578	3.6686205193684214
O	-0.7844190329824561	4.559259787531579	2.7459589193684217
O	2.5774985390175438	6.181571167531579	2.0600025593684217
O	5.611626159017544	4.648724847531579	0.3727725733684217
O	8.990489419017544	6.303511917531579	0.8964955863684216
O	11.503983619017545	5.789143087531579	-1.8969674206315783
O	4.739683659017544	6.761190617531579	-11.47579721063158
O	-0.09410513398245612	4.6978000775315785	-12.20415551063158
O	-5.363811820982456	-1.1340592424684215	-9.699167610631578
O	-3.639959060982456	0.8119927762315784	-6.931112880631578
O	-3.577228480982456	4.544663017531579	-7.513263770631578
O	-1.2817928439824562	7.436862697531579	-6.673563160631578
O	-3.255823040982456	10.096889207531579	-4.792364260631578
O	4.048332729017544	8.160779367531578	-2.9303212206315785
O	0.5776553590175438	8.386676627531578	-1.4078713806315781
O	-1.625595750982456	5.448281827531579	-2.3972042606315784
O	-4.727043320982456	3.451185107531578	-1.4887990706315783
O	-4.579865810982456	2.0265570175315784	2.0352300593684216
O	-5.379600640982456	-1.6865800424684216	2.3111012493684218
O	-5.475332400982456	-4.217716362468422	5.169309379368422
O	-3.218087740982456	-6.982185822468422	3.8473492193684216
O	-1.888751000982456	-8.670370322468422	0.6900676073684217
O	0.19755142501754386	-12.636019152468421	3.964844049368421
O	2.536150589017544	-12.43826875246842	-7.548070160631578
O	0.608026289017544	-12.673494452468422	-4.244532110631578
O	2.596204999017544	-9.977923252468422	-2.4872008606315785
O	1.680934929017544	-7.580841062468421	-5.304893720631578
O	-2.018957520982456	-8.142884642468422	-4.742513010631578
O	-3.524742460982456	-6.063229582468422	-1.9266900606315782
O	-6.837211080982456	-6.6663916524684215	-0.17347401563157835
O	-8.928176380982457	-4.590983562468422	2.2098860593684218
O	-11.243123580982456	-5.823844492468421	4.974138309368422
O	-14.029387680982456	-6.627639202468421	2.5106624493684215
O	-11.614626880982456	-5.754900072468422	-2.6054152306315785
O	-8.373511390982456	-6.3965292424684215	-4.487852340631578
O	-5.896665040982456	-3.990288792468421	-6.115981740631578
O	-2.797489240982456	-4.792759212468422	-8.177607350631579
O	0.30446452501754384	-2.847670112468421	-7.143203760631578
O	4.013677689017544	-2.465105342468422	-7.9315717006315785
