22

O	-17.00900868218645	10.632241969309105	41.663339789878
O	-16.461455775152405	11.787003849679762	42.159429387545046
O	-15.367000829632605	12.166195394137421	41.58667933197036
O	-15.548746613877649	11.44814153124395	40.39139896369216
O	-16.537382971711132	10.500008301135571	40.53217046784072
O	-14.722054733747498	13.39448811247922	42.153518781261845
O	-13.394867855875663	13.70541461575475	41.84664601378744
O	-13.879577061686913	13.707755049761289	40.41951109458341
O	-14.395873897695381	12.27935903272079	39.91187465389791
O	-17.266790982435577	12.82325073441412	42.56943396845906
O	-17.21930356832653	14.027874273509244	42.585783920857885
O	-18.379766895394077	14.312982361893145	43.3101752648875
O	-19.55652245933783	13.733229838998597	43.11087811405513
O	-19.50515069538759	12.791268094936076	42.20411039409749
O	-18.303606411287696	12.711707748580828	41.62246435549806
O	-12.658778538356676	12.507394052854597	41.7419957425695
O	-13.18422796475152	11.33935391323981	41.54845625111394
O	-13.729548651372399	10.159888994089417	40.697695734792795
O	-12.970100778279836	10.205779969016158	39.63362756973098
O	-12.067128469518762	11.277401495693747	39.769132711972084
O	-11.618710110929754	12.287133657960522	40.7411415684607
O	-11.454820334360381	11.75850417449955	38.7529006478049
