33

O	-11.93671618079419	13.085204409465863	40.21939365312211
O	-12.74605170891372	12.647865761175783	41.01291859323848
O	-12.678072433853792	11.263228262489053	41.00999501331419
O	-14.323571153970535	11.886972295055413	41.78999531384906
O	-13.97250093575284	10.833142907422133	40.98907704264054
O	-13.946669014615836	13.150495368782238	41.35110376045246
O	-17.592187065339846	12.337051409400985	43.408665154987894
O	-14.931363303746062	14.03266095891326	41.66277253436614
O	-16.87969282545312	12.619099518835597	41.643903880206736
O	-15.489708524589945	13.91172384885902	42.953089352911384
O	-18.264849150820886	12.417023039741855	40.93214818351592
O	-16.203072679676094	12.824911952188398	43.20933662968243
O	-17.505438912112677	10.127923622006138	40.458601280804004
O	-17.74576583299343	11.613116796503894	42.23487131551161
O	-16.39946749999938	9.763981234015318	40.021753534368145
O	-17.676881166974333	13.618287021379436	41.31284535336592
O	-18.069531340183378	14.772196329068105	42.8092084534476
O	-17.32492206781171	11.39191289684126	40.485321317643255
O	-18.976325225478064	11.518886263926694	41.845046338240586
O	-15.539657386876389	10.690056449308061	39.65584963595685
O	-16.19216045637401	11.806421467960334	39.97906754164298
O	-14.380744917974852	10.881186275082191	38.782581486222384
O	-13.122263853788873	10.938478039594413	38.20671938542312
O	-13.88694342796049	12.11869318258903	38.17228527363411
O	-18.712892238472858	13.762366675637582	42.32714860267735
O	-18.09676329847026	15.423530140136364	44.04148796929509
O	-17.143674945877954	16.39967104165808	44.150440384174686
O	-17.434719196127553	17.526095259948356	44.83023736582752
O	-18.732556102203915	17.780635018049452	45.15441403352355
O	-19.657741979349243	16.7802428505026	45.11973663632216
O	-19.433333067863316	15.771320518731422	44.24467256021292
O	-19.553847003276505	12.737013697319597	41.88775438955485
O	-15.254325879960529	11.889982615040916	42.684018060872646
