25

O	-14.135693333833014	16.8860275414198	42.66113462775337
O	-14.387279479686569	11.467430362544892	41.34722542090741
O	-13.577547131615427	15.9530946595459	43.445412654789884
O	-13.355035206123475	11.016284752084722	40.499512078545976
O	-13.838643626335504	14.641255242059215	43.19583599367217
O	-18.252056983599054	12.473759180279872	42.15990225352963
O	-14.218225895036081	14.119277794986038	42.04521237455523
O	-17.127554524732464	14.600451861560359	43.19580616966676
O	-14.53753345122557	15.235160141618888	41.2798183181118
O	-14.923604278234572	16.468812939289826	41.65187490066084
O	-13.783737736065861	12.82724811799382	41.38002554291181
O	-13.63175211000755	11.90452223772881	39.548628562229545
O	-14.50925352899959	12.796233333738009	40.16053766450844
O	-15.96112187535089	12.635242416439295	40.548384153639034
O	-16.633603127869073	13.630644170205382	41.25476421588061
O	-17.508101668786978	13.551802638597534	42.29745662948373
O	-17.807064953977573	11.442282622052035	41.34494815632262
O	-16.72879957030395	11.485332225327992	40.54790033522841
O	-16.797300389265143	15.84047685791078	43.57251263374064
O	-16.30730508234698	16.010538909520065	44.960594606568684
O	-15.960348918532027	17.340388413968785	45.441664852533684
O	-16.74250508905063	18.519019861789232	45.017605862422094
O	-17.529914135032822	18.138034547858943	43.86097784303121
O	-17.968065866487706	16.749301426726277	43.69326423659993
O	-14.553296461337611	18.001575880370233	43.24112313449721
