39

O	-9.275967168628256	13.303269773567326	36.945300366266466
O	-12.861298492122703	17.58575741696634	42.39331696458029
O	-7.550485916381057	19.201353210037546	43.29007291331657
O	-9.747104635717232	14.882304888226647	43.36667567435819
O	-7.182285186452832	16.98361082776174	42.08056570600421
O	-6.719268933366756	18.078665550343477	42.827104777742925
O	-17.702048332367916	12.299178996551824	42.206654438450926
O	-9.237986884249555	17.283460870424875	42.501201889727305
O	-8.328367303476945	16.453995419710278	42.503784487543335
O	-16.913042862926098	11.56240902422757	41.51791959677228
O	-10.060817520040624	11.897311323179288	39.82725092766199
O	-8.512260656408735	15.435567835873893	43.48196067778406
O	-12.670416814039752	11.017720553783985	40.304713900901
O	-6.376702165304493	14.085198303214419	41.566863146116766
O	-10.600371546520636	15.972171513305977	43.1846217256328
O	-9.665598490338484	13.245365493757667	41.16911409994777
O	-11.683698525977741	15.287778574492314	42.45681389518269
O	-12.183879207700164	14.276046435254786	43.204666231393595
O	-13.285411688888157	13.500635388198175	43.030300366160695
O	-14.196568167490314	14.00285269113619	42.10781452683367
O	-15.637618739037137	13.374040845568713	42.20399330350765
O	-17.00144712365163	13.42083086103639	42.72671584704472
O	-15.690404407778411	12.18657678202504	41.52698272947891
O	-14.441512913399665	11.857172123107885	40.78618963953119
O	-13.385037706446827	11.106274440706523	41.407448959453816
O	-12.08900553785575	12.386522910044324	40.28038091363197
O	-10.819614080360306	12.605924672945171	40.62820457100855
O	-8.652088987159338	14.033414118741602	40.74363490185718
O	-7.347928801131842	14.332431440697217	40.62757944912603
O	-9.85435626544443	14.966093479149109	40.32785788249639
O	-9.927116345892486	16.278043934848448	39.96604603239248
O	-9.505477704718775	16.732219240706453	38.78916839574107
O	-9.1006837260066	15.659252097118785	37.94708130878418
O	-10.01071443743973	14.65896760139099	37.87013400556408
O	-10.546392519653372	14.412785507045092	39.162938494310865
O	-13.51902194317449	12.796031961229934	40.549395534811104
O	-13.670095405830132	15.050165919174756	41.450597628243564
O	-12.662390638184247	15.916038146282215	41.79009203728441
O	-7.746279276497073	15.494458032504426	37.71580146144026
