29

O	-17.44515963123869	11.110546017158832	41.28652455573125
O	-13.740675098778375	10.162285221923671	40.314691427764245
O	-11.550716705196951	12.4077506738157	39.629183595286655
O	-14.896602109243235	11.013288717226342	40.58222423627205
O	-15.660081714798393	11.841737250938742	42.35903027741987
O	-11.375570468820577	16.709502396409697	43.12860234615665
O	-16.335338484350636	10.485412374757836	40.68438405902877
O	-12.303624393461755	13.081872195267426	42.70136240025712
O	-17.0294833570462	11.852396638380965	42.438612370744764
O	-10.227022476960581	14.091171089166437	40.964410306032626
O	-14.437068724709565	11.960149464307522	41.753162152470075
O	-17.64001248802841	13.120182615928373	42.23748102712857
O	-13.21700184727196	12.199719756406836	42.284167045473254
O	-15.30932771726907	14.299873210349125	42.736852634631305
O	-12.205337364494078	11.454797092205766	41.325766659708066
O	-16.76162722423746	13.484783485694297	42.712964118981496
O	-12.585891890071007	12.823176896481481	40.835823949325636
O	-12.452876028866752	14.009754901367902	41.7207894249122
O	-11.393970218276111	14.094983795375278	42.880990790701546
O	-10.070337094622545	13.829531298804536	42.35730478280543
O	-11.008802075314652	13.068124407582987	40.706166317238825
O	-10.813667138020445	15.460954162798688	41.01120875734552
O	-10.51104332387585	16.164856698390885	42.27661825576911
O	-12.683489007378515	17.000780313317765	43.09661634511479
O	-8.918099222719803	14.591178675820181	42.688130287882224
O	-16.731605908873455	13.467248695864692	41.42489116099423
O	-15.419777145201596	13.021957810175746	40.682914902537256
O	-15.138179145492865	14.569236349800445	41.37492185158718
O	-16.536739987696897	14.74036603802114	43.57778303307163
