81

O	-1.0992005627859485	2.153523294418644	2.971891755881356
O	-0.8450367623859484	0.8011129604186442	2.768356485881356
O	-2.5678235523859483	3.8816099314186445	3.636505665881356
O	-2.3679827723859486	2.524992011418644	3.375527285881356
O	-1.7317985963859484	4.884282431418645	3.367341975881356
O	1.7387788676140514	-0.26432612858135585	-0.417412836118644
O	-0.4207634753859484	4.497690911418644	3.401333135881356
O	1.6593132576140517	0.9422096524186443	-0.750206915118644
O	-0.28144789638594836	3.0855242514186445	3.564448465881356
O	-1.2318766493859483	0.6512193234186442	1.400557505881356
O	0.01823554761405166	0.6201323004186442	0.650919781881356
O	0.6954947676140515	-0.7099575485813558	0.487460452881356
O	0.7575856676140515	-1.0223618385813558	1.937587425881356
O	-0.20874359638594842	-0.42833668858135576	2.964835135881356
O	0.8678112776140516	1.5154474744186444	0.241458658681356
O	0.39752827761405163	2.8733995214186443	0.5819546768813559
O	1.5023346476140518	3.623047241418644	0.978124529881356
O	1.6432150676140516	4.966145711418644	0.827078121881356
O	0.5853108776140517	5.755124301418644	0.554651616881356
O	-0.5352015923859484	5.009247181418644	0.383881204881356
O	-0.6362614303859484	3.646150071418644	0.403199814881356
O	0.5778330476140516	7.009582821418644	1.097727284881356
O	12.717843617614053	4.033071161418644	5.812391885881356
O	9.983525517614051	6.6732572614186445	5.621376345881356
O	6.596587297614052	6.467759731418645	7.355799505881356
O	3.5681075376140514	6.370228101418644	5.157760225881356
O	0.7020423076140516	5.1967567314186445	7.441920655881356
O	-0.6253554223859483	3.006398121418644	10.325769465881356
O	-3.653881352385948	0.8496551054186443	11.258765065881356
O	-4.801453072385948	-2.521110518581356	12.740185965881356
O	-2.865530132385948	-4.2830974985813555	9.962149515881356
O	0.28041530761405165	-2.6956412685813556	11.395210565881355
O	2.3215227676140513	0.2025987884186442	9.967279975881356
O	3.5783665676140517	0.8531656574186443	6.380847405881356
O	6.925623527614052	2.5582147214186444	5.619570715881356
O	8.661472067614051	3.4950385014186445	2.367443305881356
O	12.135885817614051	2.0815471854186445	1.905020635881356
O	12.001537317614051	2.135034367418644	-3.559109714118644
O	9.306606017614051	-0.07321143858135581	-2.040340874118644
O	6.637181397614052	-0.28860609858135566	0.640021590881356
O	7.013723787614051	-2.342045558581356	3.806998335881356
O	4.312950267614052	-3.424995468581356	6.237831625881356
O	5.399493947614052	-4.546832538581356	9.702426175881355
O	-3.281711722385948	-12.569673088581355	3.026895915881356
O	0.13437505761405166	-14.150618988581355	2.522265965881356
O	-1.1196065758149485	-12.726624588581355	-2.431821244118644
O	-3.788880032385949	-6.540648468581356	-7.166888614118644
O	-1.0329135491859485	-5.6288362085813555	-4.716892464118644
O	1.7775297976140514	-8.136231038581355	-4.608445394118644
O	4.228634867614052	-9.457924988581356	-2.050091814118644
O	7.771345937614052	-9.005854188581356	-3.358724324118644
O	5.813787967614052	-7.768068198581355	4.075965745881356
O	7.399973057614051	-6.013853348581356	1.118004924881356
O	4.841600677614052	-4.819851628581356	-1.412965534118644
O	4.158299607614052	-2.391719358581356	-4.245784364118644
O	4.776120687614052	1.2048788000186441	-3.288581304118644
O	1.9454185776140516	3.5458479914186443	-4.200170594118644
O	1.3318027276140516	7.350886661418644	-3.721773694118644
O	-2.1290713523859486	7.393697311418644	-2.061637044118644
O	-5.513922612385948	5.518313651418644	-1.831724004118644
O	-9.000201932385949	6.160515881418644	-2.739657954118644
O	-9.982584232385948	7.105696361418644	0.832855326881356
O	-7.358039312385948	9.853948481418644	1.102909899881356
O	-11.353200182385947	-2.3136249485813556	-9.588642374118646
O	-13.516406482385948	-0.10802971858135568	0.468085533881356
O	-11.707814682385948	3.091657921418644	-0.612442795118644
O	-8.921036482385949	2.702355541418644	1.879044945881356
O	-8.10522950238595	-0.7022089185813558	0.426235012881356
O	-7.703664762385948	0.7117565574186442	-3.065495604118644
O	-4.272019042385948	2.1513404064186443	-3.746383194118644
O	-3.2499690323859483	4.527270601418644	-6.536110864118644
O	0.11252983761405155	5.758145061418644	-7.813206654118644
O	0.9094325276140516	9.142966311418643	-9.352797204118644
O	-0.5242057513859484	8.091852661418644	-12.710618234118645
O	-3.6562918923859486	6.633634981418645	-11.177243434118646
O	-2.8698942823859483	2.947006281418644	-11.682496334118644
O	-4.970652072385948	1.1393589611186443	-9.070893674118645
O	-4.253836762385949	-1.9660993785813556	-6.971303984118644
O	-6.527153122385948	-3.7738322285813553	-4.499287984118644
O	-4.8972081123859486	-4.553193798581356	-1.138209884118644
O	-5.662002932385948	-6.151422388581356	2.248708915881356
