44

O	-6.9434986465718715	12.640149220195127	37.50628923492685
O	-7.1547823938826145	11.381817025124908	38.992027939759666
O	-7.084515936660584	15.104466679663824	37.96117468409268
O	-6.014448014806343	11.940686993226244	38.215051347812114
O	-4.667781795478513	14.709417048634931	38.3439160637211
O	-10.034711179221253	10.857274154000198	37.50612460231367
O	-5.843623653858549	13.313186491786283	37.139102444924575
O	-6.444110503834642	14.5492682207701	39.76944447865962
O	-5.901924839679591	14.603776738513996	37.67301870964435
O	-13.463405917390306	12.987527833194795	42.77427380348347
O	-4.7177399060212135	15.871945059597664	39.19216345771694
O	-13.841918921303748	13.892367623046455	42.19061560116393
O	-5.972092112058442	15.848509841258089	39.909368026713274
O	-10.888887221702383	11.882066975915224	38.992295278537355
O	-5.509595012206785	13.738611181342899	40.33969399566883
O	-18.457778916458174	11.856893639475707	42.44715818865704
O	-4.423866031999799	13.734984891894499	39.36312213369236
O	-16.4048005594728	11.142827518533357	40.45132700996092
O	-7.790060700462908	14.498286146852818	40.12690467247338
O	-16.24655218328911	10.103276777839671	41.08765225991332
O	-8.85082039358344	14.190424307487897	39.47738186113521
O	-10.49030531458995	14.283770777491073	40.306953185623186
O	-11.2487910258249	13.65662862918284	41.19801625533812
O	-9.946316801283116	13.402654517547973	41.31556447304754
O	-8.36565181176086	13.423645494852671	40.37229057095578
O	-12.402489252955514	13.685652918625072	42.027992974144894
O	-13.644465308438466	13.410507753617576	44.09670825754638
O	-14.439162474215	14.49643333413144	44.18291665330458
O	-14.22991134281647	15.040855545336	42.97313584955669
O	-8.321229595264054	12.716173349703022	37.814907900460454
O	-8.720103739114066	11.951610668628465	39.115512483546176
O	-9.624811688723739	11.432690382674359	38.45388440063897
O	-12.145800021483042	11.467431276663968	39.657135222992764
O	-12.859471096550804	10.764698265404043	40.760145536715775
O	-14.024545844920485	10.449868467189626	41.42780633460488
O	-14.968049387994327	10.31291053450033	40.48534483618644
O	-14.475578847787745	11.792284636708162	40.37613630911333
O	-13.28806023250946	12.17364605158059	39.717692781622226
O	-15.462994071407916	12.223614873817178	40.74297261743848
O	-16.03454811461475	12.592041686600087	42.0525858545879
O	-16.250581671904882	11.904178927510467	43.11792069713942
O	-17.43463257543808	11.262693026266069	43.008364800125115
O	-18.161474503169345	13.024505037084314	42.08439615533344
O	-16.90650656741182	13.525122872848929	42.03973984355889
