107

O	-2.618978962571428	0.21184046849206312	-1.1657332403015876
O	-2.2717142125714282	-0.3581949665079369	0.6754422076984123
O	-2.1437660625714283	-1.3782926245079368	-3.0486343623015877
O	-3.4705777925714285	-0.22582250950793692	-0.19725155930158772
O	-4.478021062571429	-2.006771374507937	-2.5014350023015877
O	0.2195878403285716	1.7546972954920632	0.3496445236984123
O	-3.691854402571429	-0.04845792050793685	-1.9264653523015878
O	-2.4979633025714287	-2.750420804507937	-1.6415051323015877
O	-3.404332102571429	-1.132543594507937	-2.7608381523015875
O	4.751770427428571	-3.0174305245079367	1.2060564676984122
O	-4.154630842571429	-3.291967734507937	-3.064622282301588
O	5.1090267574285715	-2.9031336045079366	0.12811019569841225
O	-2.7998726425714286	-3.619324414507937	-2.682786082301588
O	1.4313358574285715	0.1718590824920631	0.2279471416984123
O	-3.3916158425714285	-3.017163194507937	-0.6485790593015878
O	9.459120557428571	-1.1296053845079368	1.9845620576984122
O	-4.631521882571429	-2.423326054507937	-1.1410256383015878
O	7.014400107428571	0.4737718177920631	1.5839673476984122
O	-1.1220031425714283	-2.7429665345079366	-1.4209672313015878
O	6.868208427428572	0.42907196449206314	2.8034951376984125
O	-0.23484363857142843	-1.821368884507937	-1.4949652523015877
O	1.5290362874285717	-2.221049114507937	-1.1576282213015878
O	2.3682432374285716	-2.494758734507937	-0.16595489730158774
O	1.0898197134285716	-2.738405054507937	0.11870156669841231
O	-0.6254461725714284	-2.288466244507937	-0.37538961130158777
O	3.6505349274285717	-2.9641459945079367	0.2291741756984123
O	5.213353917428571	-4.301456664507937	1.5202935676984124
O	6.118274577428571	-4.7529907745079365	0.6284161176984122
O	5.749538397428571	-4.055381264507937	-0.45837998750158776
O	-1.2077231125714285	0.20311541349206313	-1.0794284593015877
O	-0.6597568295714284	-0.4204029765079369	0.24200512869841223
O	0.0508103954285716	0.5847189136920631	0.34374333169841226
O	2.7386642674285717	0.08550140549206314	0.9187434076984122
O	3.5648467374285717	-0.3374210665079369	2.0842265476984125
O	4.7931925074285715	-0.49550902450793677	2.691237897698412
O	5.529988777428572	0.5614401101920631	2.320859887698412
O	5.181306297428572	-0.1932365295079369	0.9972718976984123
O	3.9395630774285717	-0.08100341050793691	0.3379826046984123
O	6.258190267428572	-0.5110001945079368	0.8103209876984123
O	7.093645267428571	-1.675128114507937	1.1629118276984123
O	7.427893147428572	-2.1780761145079373	2.2987312076984123
O	8.499506327428572	-1.5160573045079369	2.7874637376984124
O	9.223882647428571	-1.473884434507937	0.7976146976984124
O	8.040290677428573	-1.9506044345079367	0.3510668126984123
O	11.70137900742857	-0.5598002845079368	-7.926826082301588
O	10.481202607428571	-2.557522824507937	-4.7602882923015875
O	7.359891117428571	-4.224700504507936	-5.891437402301587
O	4.291360847428571	-4.198676754507937	-7.993585642301587
O	0.7777883104285715	-5.623981434507937	-7.525648702301588
O	-2.832465502571428	-4.708027094507937	-7.581800552301588
O	-1.8306873025714283	-1.514119124507937	-5.541458842301588
O	0.09516696742857159	-0.12241236650793685	-8.185223042301589
O	3.8345319274285714	-0.06163290750793682	-7.861595682301588
O	6.126797047428571	0.9269591384920631	-4.958161172301588
O	9.56557326742857	2.251052855492063	-5.476106262301587
O	8.955338727428572	3.767162505492063	-0.36516823430158774
O	6.746809007428571	5.683273015492063	-2.8738462623015875
O	3.5226301174285712	4.363603145492063	-4.395746942301588
O	1.9222613174285716	5.374051505492063	-7.6298542623015875
O	-1.9386306925714283	4.7060375154920635	-7.828612122301588
O	-4.487904352571428	4.977911405492064	-10.629536532301588
O	-7.607719902571429	3.7214358354920627	-8.783116312301587
O	-10.011909492571428	2.640209045492063	-13.186859532301588
O	-12.288988892571428	0.4256299344920631	-11.131921232301588
O	-9.531055652571428	0.012289162492063133	-6.245137992301587
O	-10.858491192571428	3.3981825454920633	-5.523872082301588
O	-12.510824492571428	2.311234245492063	-2.437683162301588
O	-9.21295877257143	0.7113901434920631	-1.2721421813015878
O	-7.274268692571429	3.697653535492063	-2.061953332301588
O	-9.764282882571429	6.1249139554920635	-0.3416558903015877
O	-10.177593892571428	4.0502972654920635	2.732696777698412
O	-6.506362992571429	3.981487665492063	3.2883023776984124
O	-5.760523452571428	7.648099895492063	2.742405027698412
O	3.4706026674285715	2.594770925492063	8.285545927698413
O	2.124002967428572	8.728824285492063	4.895261677698413
O	3.7768611774285716	13.000858105492062	1.5960409076984123
O	1.1140718754285714	12.869111705492063	-1.1871396813015878
O	1.5801276774285715	9.270720905492063	-5.385932372301587
O	1.8869836174285717	8.519970735492063	-1.7537670023015877
O	5.2407218474285715	8.530475645492062	0.20671197069841224
O	5.875288847428571	5.910190455492064	2.9581961676984125
O	8.416531087428572	3.975488295492063	4.9743092876984125
O	10.160568027428571	1.361686048492063	2.7880652476984125
O	10.650574307428572	-1.7413145545079367	4.258221237698412
O	12.78742790742857	-4.057538484507937	2.781100067698412
O	10.37228450742857	-6.237961614507936	2.4539240676984124
O	7.590281327428571	-7.989849434507936	3.945968627698412
O	-7.941413192571428	-3.7744869345079364	9.451970627698412
O	-9.717864802571428	-6.8614228645079365	7.991199027698412
O	-6.861490582571428	-8.160561214507938	5.842555527698412
O	-3.9593619625714283	-8.824998504507937	8.194005177698413
O	2.4008541074285716	-9.641975294507937	3.0011153276984124
O	0.9505095184285716	-6.587667434507937	5.026685217698413
O	3.6486369974285715	-6.694649334507937	7.474258457698412
O	6.760097857428572	-4.832354444507937	6.263811807698413
O	10.096682867428571	-5.554943754507937	7.766832357698412
O	13.265802107428572	-3.693339024507937	7.1883927976984126
O	5.189236237428571	-1.986729574507937	10.348360167698413
O	1.6255932074285715	-2.8253874145079365	9.512654367698412
O	0.5573485574285716	-1.406279084507937	6.314664817698413
O	-2.4492907625714286	-1.606561094507937	3.8803113276984122
O	-5.686989002571429	-0.2306378055079369	5.241400447698412
O	-7.311806112571428	-0.9212254845079368	1.7181012276984124
O	-9.89645709257143	-3.3193366745079365	3.125343947698412
O	-10.370376292571429	-1.5706197145079368	6.522490357698413
O	-10.394489092571428	-10.405824794507938	2.2648848076984125
O	-7.737612512571428	-13.038433594507937	1.7002896376984125
