23

O	-17.89503709802362	11.408933971650494	41.83613477098325
O	-15.57478508102893	11.26199646804431	41.05463898246379
O	-10.796981312784943	13.179262731056884	39.72726140579254
O	-16.989997709686065	10.793205280933735	40.92110826245688
O	-16.250744562118307	13.203245080416245	42.565415084694294
O	-16.809189085098325	16.937102439962025	44.674581827199766
O	-17.548419807976277	12.730504240007132	42.1616850634834
O	-12.19131677174514	14.325140107747952	42.20554316759139
O	-15.425180231297286	12.614010659497069	41.485225634965786
O	-9.528459764557406	13.633389288048422	41.6891275429323
O	-14.174499540490121	13.375204375557576	41.6909324102833
O	-18.538768796005535	13.356240426159985	42.948478118909186
O	-13.106587202073175	12.78999443970672	40.820796940986554
O	-11.910920632663474	12.949965655751367	41.766318058258804
O	-13.555678790618249	14.147868395053269	42.69989417664732
O	-11.190576314710041	14.633660657147544	43.176243545392005
O	-9.893201288785217	14.82648909604709	42.39947892627323
O	-10.6040433839032	12.931484654945747	41.05650422536105
O	-18.03061005170467	14.502922443913581	43.563516006336506
O	-16.93590289645188	15.264133338692215	43.060167120668865
O	-16.055773649960596	16.04867914579247	43.95485866008332
O	-18.10858922798515	16.61252109921518	44.8134587301513
O	-18.90164737182075	15.563119149895602	44.12836116461312
