34

O	-17.62088728402823	11.999386404900743	41.75232466628532
O	-14.360315849282417	10.28612674443108	40.478963510474976
O	-8.02595174544417	14.447571000659924	41.06369016324376
O	-13.060404814821135	14.435398365739966	39.13873754054775
O	-14.510370108422237	15.99786274409557	44.5267701426533
O	-15.55387974127894	11.132779051194685	40.64370663712447
O	-15.991362146178576	14.120796113118832	42.317563963797284
O	-10.605915067904336	12.202442530084067	39.30417636230056
O	-16.91553168569596	10.859315697355864	41.127857475943884
O	-15.858218938069617	12.338430758688222	42.647721264889846
O	-17.010832428915663	13.116634207349495	42.339612993644025
O	-10.355162455723413	14.078133679814282	40.741929389549384
O	-15.211608613289377	14.580307432196811	41.37038181093711
O	-12.008102090893656	13.03798938110054	42.414248614399646
O	-14.963136117995376	15.960414948382237	41.90174500625236
O	-13.849380752487907	16.802912747667936	41.50043489084329
O	-13.073329649392697	16.49860736617399	40.49443774599461
O	-13.047412801368104	15.266033605922264	41.17314921147668
O	-14.079013963585446	14.473394539957717	40.56055113448454
O	-15.21283297272453	12.288464661881576	41.374403378115915
O	-13.86087332423424	12.397186071921034	41.69802776721374
O	-12.96704141299799	11.788476692699813	40.61447078961975
O	-11.955776693124875	12.59007613432119	41.151371471708465
O	-10.782275924389683	12.850958150102795	40.44511484072093
O	-10.10259361585689	14.290486129701426	42.10795480014113
O	-8.653802644089202	14.635300897133831	42.2586517774207
O	-10.85811105285051	15.429225982591118	42.60278804149829
O	-10.5107996978736	16.816977075394803	42.55085407091801
O	-11.542686381158402	17.724178353472986	42.95809544266215
O	-12.583963757961444	17.69247691644153	43.992300599129884
O	-12.84746187098455	16.250660136848765	44.23257642458745
O	-11.86807141130694	15.470429918226566	43.57180557488516
O	-13.200127835887974	12.678876101200188	42.93017984721468
O	-11.948373427779595	16.12869166276166	39.97360802582197
