31

O	-10.31248642741509	14.667304358646472	41.117275132872216
O	-8.079268085003712	15.949704599462208	40.80082247945266
O	-5.810181387258041	16.00926579777929	42.29164857468524
O	-11.642348528138125	16.80864232809392	41.849719924487765
O	-11.631137855157624	15.458128145008645	41.64107212828296
O	-13.004584240428999	16.998182739981047	42.546864261018264
O	-13.900105878449954	16.265808228994686	41.78773025173306
O	-12.848571810598665	16.192834091570642	43.84281520005074
O	-12.704862636232845	16.991727278351604	44.95741126963513
O	-14.105612471359068	15.38211999560505	43.95445661380495
O	-14.940184342102555	16.008402209139565	44.85804905486662
O	-14.598695496972017	15.360532080916219	42.54590957313778
O	-17.764410103752745	11.409395224948394	41.83973266359858
O	-9.445598005627728	14.007143020214205	42.134453487004535
O	-7.487014398565223	17.26247093162698	40.4860187451781
O	-5.32967621686778	15.023230002584594	43.20463936657038
O	-18.018228414048306	12.573027488895661	42.42431502797449
O	-10.668948261977885	13.475643695850362	40.016502741845656
O	-7.179534460461051	14.818161816220794	39.98599714564836
O	-5.213587714482807	15.637511438655473	40.7515097177691
O	-7.638830700677103	15.870929533976655	42.507974586871214
O	-17.057461124308325	13.461609387451853	42.61972278831413
O	-9.568210317685176	15.873328990021616	40.231817542980586
O	-5.516722986170276	17.61188642102893	42.575469410732694
O	-15.811248098934959	13.269026423435987	42.144239514424505
O	-15.60036336701003	12.079777503305268	41.45261862919761
O	-16.565602324956522	11.116865008885213	41.339827198842116
O	-16.265834071303267	9.86632142819086	40.76759144816962
O	-14.364493956909714	12.071213178692423	40.9577096250234
O	-13.818961058964765	13.247222801248613	41.360297894786434
O	-14.700454229964361	14.032500555772105	42.00400337153203
