29

O	-17.408571581265615	10.740805080897317	41.3678399281063
O	-16.986817789029395	11.962737107966628	41.796574309259356
O	-15.665993520754789	11.95716159369705	41.715887400692765
O	-15.38003584819725	11.137448886363673	40.62450459794884
O	-16.45530256761061	10.287259215213167	40.66125030045052
O	-15.105232658142835	13.144470002360746	42.24268575952639
O	-14.52922729497085	14.192675857289831	41.672692799110315
O	-14.596345075425244	13.6265622726823	40.37484720083117
O	-14.37304563102086	12.064150979346811	40.04722939261712
O	-17.620422570403353	13.174304777294545	42.19759019137744
O	-18.872356830236935	12.910442388741568	42.16697264726245
O	-19.750799992191887	13.391179297927138	43.073208524385564
O	-19.328823706685498	14.428073923529462	43.763058479383226
O	-18.03777971386197	14.485017382314425	44.049384556864865
O	-17.18886648241026	13.912764840966966	43.122114812201914
O	-13.379494512637594	13.456044458009359	42.16581610376672
O	-12.593990314937225	14.231804423624176	42.85519424009538
O	-11.260332003835186	13.997416692290324	42.382594058392115
O	-10.895762881005158	13.032897771519664	41.464796945541266
O	-11.80127259354478	12.23273374647113	40.89124531864306
O	-12.935810732067237	12.206180423628991	41.72338402423001
O	-11.812391260946912	12.013697393633121	39.65087929275189
O	-10.061909769435916	13.611061205194831	40.38978777108305
O	-11.09362767379395	14.75370637904973	40.337279633151034
O	-10.79036019979311	15.822284550183552	41.06735729485223
O	-11.739258919678338	16.797748798523113	41.11829972727965
O	-12.911912681821358	16.57199661205579	40.46259430582787
O	-12.691789352704877	15.839540336467124	39.306870347842214
O	-11.845419631232293	14.73267290754269	39.25365369193193
