83

O	-1.7319826953320756	-0.6870761592056608	3.582912534226414
O	-2.6721624913320756	-1.6118285332056608	2.408507204226414
O	-4.885343581332076	-0.4806621352056608	-2.8004617957735856
O	2.3212945086679246	0.5126136857943392	0.22438130622641422
O	-2.9610859313320756	-1.2370840932056608	1.1021830442264142
O	-3.6603304913320756	-0.06688331046566083	-2.8110786757735857
O	-0.6357025493320756	-4.562763693205661	3.756444994226414
O	-3.4280294013320756	-2.1580359432056606	0.14345456022641423
O	-0.16772963133207552	0.9533391167943392	-0.7208938837735858
O	-3.2643281513320757	-3.459144353205661	0.5017021932264142
O	1.6360639586679244	0.18815076379433915	2.101248044226414
O	-3.1619115313320756	-3.806961143205661	1.855170014226414
O	-3.059344321332076	-2.8148634232056606	2.8378754842264144
O	-3.801793101332076	-1.6582529232056609	-1.1950338497735857
O	-4.982514121332076	-1.4654060532056608	-1.8599847257735858
O	-2.9661137613320756	-0.7998252692056608	-1.9035833157735857
O	-1.7149129483320755	-0.3681371452056608	-1.3290784257735857
O	-0.8675054833320757	-0.9854339982056608	-0.44855626777358576
O	0.017078178667924382	-0.09134328710566084	0.12765903522641425
O	-1.4279934797320757	0.9200889707943393	-1.0874394337735858
O	1.3392377186679243	-0.15013089890566084	0.7282868352264142
O	2.837135198667924	-0.42584064520566084	2.605380294226414
O	2.214093058667924	-1.8434337532056608	2.5781069642264143
O	1.5225131086679242	-1.8199711832056609	3.7827742642264144
O	1.0535252986679244	-3.143112003205661	4.077305894226415
O	1.3654221286679242	-4.412390643205661	4.774214634226414
O	0.3157359386679244	-5.384864303205661	4.3830250442264145
O	0.0014572486679242935	-3.4594243932056608	3.2863933442264144
O	0.12598435866792435	-3.061981073205661	1.936100214226414
O	1.0863708286679243	-2.109282743205661	1.7773534542264142
O	-11.962630621332075	0.4608162997943392	4.152272554226414
O	-9.808984671332075	-1.6685506732056608	1.8809917342264142
O	-7.4213254013320755	-3.7580412732056607	3.912313964226414
O	-5.599821421332076	-3.975806093205661	7.199563954226415
O	-2.5173646513320755	-5.502196563205661	8.755754054226413
O	0.8324737186679243	-4.917436123205661	10.625202204226413
O	1.6436360286679246	-1.8870324132056608	8.459261454226414
O	-1.6045502393320756	-0.3081210192056608	9.568113374226414
O	-4.867901491332075	0.03413470429433917	7.707146304226415
O	-5.5549972313320755	1.3269841367943391	4.205460204226414
O	-8.703899111332076	3.109977006794339	3.1684070442264143
O	-10.038435391332074	4.463751506794339	-0.07465084477358577
O	-7.008874041332076	7.694602636794339	-3.587013865773586
O	-5.589887401332076	5.185666766794339	-1.1143065147735858
O	-4.536148511332075	6.183720966794339	2.3742518842264144
O	-2.4479501313320755	4.207419646794339	4.818363364226414
O	-2.5827130413320756	5.1941744867943385	8.487376934226413
O	0.5527396986679243	4.326967516794339	10.459555104226414
O	5.043348478667924	3.600448146794339	14.113589804226415
O	8.159299758667926	3.555568256794339	8.030267744226414
O	11.296441878667926	5.576124856794339	7.4259356342264145
O	9.547644478667925	3.149318506794339	2.9120577942264143
O	9.070360378667925	6.917812176794339	2.9342648242264144
O	3.7068764286679246	2.743490126794339	-6.030444145773586
O	3.5710872886679246	8.749212066794339	-2.2265021557735856
O	0.7952116286679243	13.200118626794339	0.06431837822641423
O	0.5217736386679244	8.194193076794338	3.610987564226414
O	-1.4285842677320757	8.920719486794338	0.4749971262264142
O	-0.6503148033320756	6.578252986794339	-2.414394415773586
O	-1.9723901123320755	5.181739756794339	-5.745389085773585
O	-5.369031181332075	3.5211279367943393	-5.382762775773585
O	-5.6987957213320755	0.02642945219433917	-6.849630555773587
O	-8.502179421332075	-2.596215253205661	-7.1990484357735856
O	-6.756130871332076	-5.665154833205661	-5.681509435773586
O	-3.3700432213320757	-7.324765243205661	-5.099117435773586
O	13.213251678667925	-4.575280073205661	-2.0692219057735857
O	10.264463078667925	-8.801827313205662	0.3277650742264142
O	8.780689178667926	-9.322366273205661	-3.151774105773586
O	5.654651568667924	-11.50540407320566	-3.072037085773586
O	0.5097441986679243	-9.426710603205661	-1.7607735257735857
O	3.1717960586679244	-6.780980473205661	-2.590554635773586
O	1.9929440086679244	-6.5064067632056615	-6.071999055773587
O	-1.0995981833320756	-4.326852883205661	-6.543260845773586
O	-3.3106293013320753	-4.362388983205661	-9.632694705773586
O	-6.029874391332076	-2.056459643205661	-10.942632395773586
O	-1.6426507013320757	-2.3592099332056606	-14.424002595773587
O	0.7013524386679244	-3.508172113205661	-11.668866295773586
O	2.6339849986679242	-1.5615116632056607	-9.033858785773587
O	5.191277058667924	-2.8664821932056608	-6.537565265773585
O	4.602554868667924	-1.7177056432056608	-3.002431765773586
O	5.816155538667924	-2.1646501432056606	0.6289697822264142
O	9.319294478667926	-1.0835456732056608	0.9376079342264143
O	9.482652978667925	-1.5734972032056609	4.671646844226414
