87

O	-0.34377703803440657	2.162486091644068	-0.39056608099322054
O	-1.1637021960344067	2.511908901644068	0.9602580990067795
O	0.7414743219655935	-2.7555686783559326	0.46474984800677954
O	0.7175734419655935	1.5175428356440677	0.1344101486067795
O	-1.0115839170344065	0.7912185196440676	0.2831998250067795
O	-1.1760028200344066	-5.056550898355932	4.525918945006779
O	0.8712405219655934	0.11091146864406765	-0.6194871289932206
O	0.2627845189655934	1.9004793716440675	1.3736937350067795
O	-0.4999098130344066	-0.27554833635593234	-0.25161240499322046
O	1.1979651519655934	3.6484281616440675	0.3292826240067795
O	0.7098318119655933	3.3218947916440675	1.6581045950067794
O	0.8349215019655933	2.6071765716440676	2.8684182050067797
O	1.8381759419655934	2.3991450716440674	0.12680449630677948
O	-0.4806521620344066	-0.8384001183559324	3.7615510250067796
O	1.9013281619655935	1.3922710976440675	1.5516685250067794
O	-0.4372215900344066	-3.9582097883559326	1.9641365050067794
O	1.0665832819655934	1.1508168926440676	2.7661090550067797
O	0.4581176519655934	-0.02836049835593235	3.16669702500678
O	1.2999287419655934	-1.0885690683559324	2.5202807750067797
O	0.07538206196559338	-1.3452569083559323	1.8338047150067796
O	-1.1509456190344065	-1.4489581283559323	2.66811000500678
O	0.055910196965593406	-2.1808242583559325	4.084037775006779
O	-1.9933360880344067	-2.4279706683559326	3.1297086250067796
O	-1.3289081440344066	-3.6199049083559327	2.96395192500678
O	0.22286063696559344	-2.8121941783559326	1.8051868350067795
O	0.27874829196559336	-4.9874759183559325	2.5947853050067797
O	-0.6303913574344066	-5.734074508355932	3.50348945500678
O	-0.5147963680344065	-4.433326148355932	5.5299344950067795
O	13.797780351965592	5.293095891644068	-0.3104546099932205
O	11.537703851965592	6.6606482416440675	2.42538513500678
O	9.842249351965593	4.489847191644067	5.06067844500678
O	6.104336781965594	4.5722747016440675	5.09709392500678
O	4.661834871965594	1.5062904426440675	7.0071322650067795
O	5.385263341965594	-1.9658540383559324	8.31200450500678
O	3.4960872019655937	-5.117587238355933	9.13970703500678
O	3.279000281965593	-8.890109648355931	8.66718233500678
O	3.1774435819655933	-8.267729958355932	4.8898747750067795
O	6.573147861965594	-6.804070578355932	5.21635825500678
O	7.542517741965594	-3.182165248355932	5.051989655006779
O	6.7086602319655935	-0.6198892783559324	2.48924703500678
O	8.895809641965593	2.3469321616440677	1.4314888650067794
O	8.449349431965592	5.311683541644068	-0.9103054049932204
O	11.009570151965592	5.538761611644068	-3.69794487499322
O	6.382528011965594	4.921205131644068	-6.18167016499322
O	5.8232035619655935	2.4381991116440673	-3.4079850549932202
O	7.850482451965594	-0.6739245883559324	-2.7485789849932205
O	6.968038131965594	-3.6303930383559324	-0.5423308089932205
O	9.765076451965593	-5.906991138355933	0.5708246960067795
O	8.767314341965593	-9.466729878355931	1.3303315150067794
O	2.841104361965593	-13.900924378355931	-1.6610673249932206
O	-1.3259203220344067	-11.821062078355933	-4.302670484993221
O	1.1249063119655933	-11.719025278355932	-7.20013404499322
O	-3.8018301880344065	-1.6903745083559323	-6.521092384993221
O	-1.3984768930344065	-2.7669868183559325	-9.15021784499322
O	2.0231958819655933	-4.354465308355932	-9.510239054993221
O	4.1718892419655935	-2.1295338883559323	-11.726327794993221
O	6.893527781965593	-5.533956398355932	-5.26348358499322
O	6.552053471965594	-2.1058914183559323	-6.88177994499322
O	3.078951421965593	-0.6643716283559324	-6.74545242499322
O	0.9537069319655933	2.5280959416440676	-6.64573219499322
O	2.0429274919655933	5.056927771644068	-4.04992863499322
O	-0.6700867770044066	6.490339811644068	-1.8932858349932207
O	-0.9078957360344067	9.147014861644067	0.8845076370067795
O	-2.7133540580344064	7.132266211644068	3.61915364500678
O	-5.258790388034407	4.299666191644068	4.319297485006779
O	-8.712306338034407	4.152762371644068	5.739258615006779
O	-7.404203598034407	2.7696946116440677	9.06746134500678
O	-5.156489418034407	5.798655011644068	9.61846497500678
O	-14.978192748034408	0.07962061964406764	-2.6497262049932204
O	-11.476580648034407	-6.411485598355933	3.4760178750067796
O	-10.818947848034407	-3.891731748355932	6.25551920500678
O	-9.817645078034408	-0.22575030135593233	6.59847877500678
O	-6.075666758034407	-0.8651590683559323	6.54029095500678
O	-6.694989928034406	-2.6393454783559323	3.2001511750067797
O	-8.078371168034407	0.3762174396440676	1.6609693950067794
O	-5.6701846480344065	3.0436662916440675	0.46227051700677946
O	-6.321456268034407	6.677338801644067	-0.4063112749932205
O	-4.3073882980344065	9.417171481644068	-2.1430859849932204
O	-7.655952638034407	13.51211182164407	-3.6528441149932203
O	-9.318834788034406	10.539660361644067	-1.9978685649932204
O	-9.020777798034407	8.088931331644067	-4.887784634993221
O	-9.284181418034407	4.650314881644068	-3.2614761749932204
O	-7.646946498034406	1.3498302906440678	-4.17816427499322
O	-8.086372088034407	-2.098715388355932	-2.5288857949932204
O	-4.854101048034407	-3.8691401483559327	-1.5933399249932205
O	-3.4670391980344064	-6.947196888355933	0.1855137736067795
O	-4.776677948034406	-10.02866317835593	-1.6664854049932205
