80

O	2.240744624918519	0.6746400066481477	-1.9193792050351846
O	2.659082824918519	1.699333765648148	-2.7194829050351847
O	1.5764838749185188	2.151668335648148	-3.226424825035185
O	1.2650581549185187	1.1783548156481478	-1.1790915650351845
O	1.0619534349185187	-0.4798540343518522	0.5170137679648155
O	7.053393754918519	-4.016725164351852	0.6576777109648153
O	0.41272012991851875	0.49547782764814785	-0.18662420603518465
O	-0.6190608760814813	-1.0695945943518521	1.8650577149648155
O	0.6236864589185187	-1.297474184351852	1.4506540049648153
O	1.5922754949185187	-2.238267604351852	1.9305525849648153
O	-1.3191779250814812	-0.01941503935185218	1.3391701849648154
O	-0.8594778880814813	0.7081770656481479	0.2398390989648153
O	2.8907966749185188	-2.5424596243518525	1.6602606449648154
O	4.006024334918519	-1.7502217043518522	1.2183622349648153
O	5.403817354918519	-2.0469965543518525	0.9200326449648155
O	5.903247554918519	-3.3551505043518524	0.6537327089648153
O	4.742136514918519	-4.113516514351852	0.8724921349648154
O	3.419713774918519	-3.8981184043518526	1.3829594149648154
O	0.7979490069185188	2.094594555648148	-2.186146485035185
O	-0.17520339808148125	3.1519025556481477	-2.0328474350351846
O	2.827685994918519	-0.5964231613518522	-1.4874426450351845
O	4.161886034918519	-0.5851566903518521	-1.5492332650351845
O	4.836779104918518	-1.6929980843518522	-1.9551347650351847
O	4.174773474918519	-2.8705478143518524	-1.9803178650351845
O	2.891137414918519	-2.9370334243518523	-1.6064746550351845
O	2.217619914918519	-1.793217514351852	-1.4181200550351847
O	-5.233049385081482	-11.124796664351852	-4.626853175035184
O	-1.7612343050814812	-11.308404864351852	-3.1262000350351844
O	1.2004591649185188	-9.42254095435185	-4.551559815035184
O	2.696221204918519	-6.833392324351852	-2.2633352350351847
O	5.068065074918518	-4.772042564351852	-4.433037245035185
O	5.802497394918518	-2.9358361343518524	-7.652753515035185
O	7.226843534918519	0.4217824656481478	-8.756587325035186
O	6.749018524918519	3.3088324756481478	-11.168781185035186
O	3.415842154918519	3.8846025756481475	-9.465642675035186
O	2.283361244918519	0.5568796696481478	-10.819028185035185
O	1.8197862149185187	-2.6267468843518524	-8.824655195035186
O	-0.009458870481481252	-3.103013124351852	-5.499682815035184
O	-1.7626795550814813	-6.287157034351853	-4.351167095035184
O	-3.500562785081481	-7.352097474351853	-1.1632470550351846
O	-7.0767523550814815	-8.463923964351851	-1.6836419250351846
O	-10.238412385081482	-9.497023714351851	0.13655237296481537
O	-13.180236185081482	-7.106694674351853	0.0025181319648153733
O	-8.68923183508148	-7.252024794351852	3.3335422349648156
O	-7.421933795081482	-4.239463894351853	1.4081672449648155
O	-4.675890455081482	-2.8960317643518523	-0.8228720630351847
O	-5.152429285081482	-2.339537744351852	-4.536614145035185
O	-2.969335175081481	-0.3543212743518522	-6.909683645035185
O	-3.283644265081481	-0.9370507243518522	-10.657313385035186
O	-2.299773215081481	1.9992448356481478	-12.851399885035185
O	-6.969667245081482	10.981540835648149	-7.047618245035185
O	-3.877893525081481	7.146767445648147	3.0203735949648154
O	-9.08841903508148	5.909246095648148	-1.5518058350351847
O	-7.1831146250814815	2.3380258356481476	-6.679343155035185
O	-8.443288425081482	0.6401830866481477	-3.5284762850351847
O	-6.7732417350814815	1.955945995648148	-0.39220487313518465
O	-5.858101605081481	1.2602650956481478	3.2388113849648152
O	-3.768334435081481	-1.941508404351852	3.5338001749648154
O	-0.7658444310814813	-1.6279184443518522	5.755968734964815
O	1.9436957349185187	-4.088870944351853	6.9155333949648155
O	5.169872994918519	-2.1486994543518523	6.039514934964815
O	6.7603743049185185	1.354398705648148	5.194406914964816
O	12.006668114918519	2.442407975648148	3.926959204964815
O	11.702880814918519	-1.2992050043518522	4.632618394964815
O	10.515599214918518	10.001439785648149	1.8321118049648155
O	10.54025571491852	6.735314695648148	3.8156938749648157
O	9.047895934918518	4.594645725648148	1.0481572749648154
O	6.088360424918519	7.003490305648148	1.0127036549648154
O	5.345821384918518	6.431484115648147	4.656591544964815
O	3.268242124918519	3.3724985756481476	5.473281494964815
O	2.907176594918519	1.5876853656481478	8.821190324964814
O	0.6517619549185187	-1.1979820643518522	10.055024214964815
O	1.4016531149185187	-3.823401744351852	12.722287114964814
O	0.7579231879185188	-1.3511584243518522	15.545926614964815
O	0.005579163818518744	3.6500953056481475	12.820736614964815
O	1.4726182849185188	5.716769395648147	9.977507414964814
O	-0.09896885118148126	7.060804235648147	6.797014444964815
O	1.4490844649185188	9.294878545648148	4.119007124964815
O	0.9421383249185187	7.991646445648148	0.5760285079648153
O	1.8418013949185188	8.689969465648149	-3.0485247550351846
