73

O	1.5513230224451613	-0.2884265223806449	1.848298225693548
O	0.2732775624451613	-0.4094634463806449	1.902868235693548
O	-0.15492715755483866	-0.04559260548064492	3.135491175693548
O	-0.7614056015548387	-0.696007369380645	0.884124435693548
O	-0.5055433075548387	-1.034332414380645	-0.28384447640645194
O	0.8996419424451614	-1.086044754380645	-0.3334803283064519
O	2.0343904124451613	-0.770714895380645	0.604889302693548
O	3.525424362445161	-1.529767184380645	0.7015824156935481
O	1.1918191624451615	-2.1915129643806446	-0.8698998103064519
O	0.0811679524451614	-2.6337925643806446	-1.5726635043064519
O	-0.8478995565548386	-1.8962373043806449	-1.345591534306452
O	-1.3838707905548386	8.764939735619356	-12.889837484306453
O	1.1027109424451615	6.3601734056193555	-11.309203984306452
O	0.11691802244516136	2.7061672156193555	-11.628890784306453
O	2.2732990324451614	-0.2358753853806449	-10.545941984306452
O	0.9321525424451613	-2.4097867543806446	-7.736649774306452
O	3.7906656924451614	-4.507169194380645	-6.329124864306452
O	7.5533548224451605	-4.828257494380645	-5.774335774306452
O	9.83194470244516	-6.360242534380645	-3.154357644306452
O	12.82217650244516	-5.771846654380645	-0.8980615713064519
O	10.977185102445162	-2.8341793643806446	0.6346128876935481
O	11.06651130244516	-1.207435604380645	-2.779709404306452
O	8.18013686244516	-0.810839269380645	-5.200399894306452
O	4.680460522445161	0.4973097276193551	-4.568142934306452
O	2.5473224124451614	2.343923355619355	-7.107622664306452
O	-0.9780456394548387	3.7136763356193554	-7.119824654306452
O	-1.2523331585548387	7.446979935619355	-7.770739634306452
O	-3.686117377554839	10.355823565619355	-7.813342384306452
O	-3.3541131875548387	12.995798465619355	-5.100090554306452
O	-7.277933627554838	15.437617565619355	-1.874566094306452
O	-8.18486525755484	10.750445165619356	-3.613284174306452
O	-5.969358437554838	8.054602555619356	-5.114585154306452
O	-3.1725141775548384	6.836719065619355	-2.8845785443064518
O	-0.3134858965548386	4.393879255619355	-2.614641214306452
O	3.3320655724451615	5.355891215619355	-2.879771594306452
O	6.426289442445161	3.413447415619355	-1.9065258443064519
O	9.773174502445162	4.353571225619355	-3.350356404306452
O	12.78444440244516	3.4778609056193552	-1.217932384306452
O	8.958679002445162	6.001809705619356	9.597854065693548
O	4.209114722445161	4.892413745619355	11.658972115693548
O	-2.4349425075548385	0.017758901219355073	11.115138015693548
O	-1.2340252445548385	1.576748215619355	7.906631445693549
O	-0.3456016975548386	5.2417929356193556	8.036065385693549
O	2.107827322445161	7.611125305619355	6.401379065693548
O	0.21892924244516143	10.512620165619355	4.832902915693548
O	6.351176152445161	7.216917815619356	1.420395195693548
O	2.6908325524451615	7.9743934856193555	0.787314411693548
O	0.3586441224451613	5.514974635619355	2.515115375693548
O	-3.3136939075548386	4.3248124156193555	2.588762905693548
O	-4.1428729775548385	2.590013375619355	-0.743332804306452
O	-5.482156977554839	-0.9610984243806451	-0.48245935030645193
O	-6.850400217554839	-3.5077306743806447	-3.022581884306452
O	-4.828902107554839	-6.5980654143806445	-2.074552844306452
O	-3.061705667554839	-8.411188134380644	0.795834075693548
O	-3.7683741575548386	-11.608853534380644	2.686216485693548
O	-0.9878233416548386	-13.457256534380646	0.841481445693548
O	-2.5848737875548387	-12.811991234380645	-2.559499434306452
O	2.6856606424451615	-12.579377734380644	7.939685745693549
O	-0.04427018755483858	-12.595078834380645	5.252586505693548
O	1.8528100224451611	-10.349686434380645	2.849658985693548
O	2.0761528724451614	-7.731188884380645	5.603605635693548
O	-1.6869448815548387	-7.668996924380645	6.044189395693548
O	-3.5084756375548385	-5.484297324380645	3.525978665693548
O	-7.173734207554839	-5.454519804380645	2.667321985693548
O	-9.42338756755484	-3.1154471743806447	0.7060337876935481
O	-12.531912397554837	-4.020754694380645	-1.305266034306452
O	-14.695635397554838	-4.214685924380645	1.812123655693548
O	-10.947584957554838	-3.592655804380645	6.084732625693548
O	-7.529558657554839	-4.8075172343806445	7.190496965693548
O	-4.384638987554839	-2.8656448543806445	8.067135735693547
O	-0.9959824991548386	-4.123122264380645	9.320658765693548
O	2.018265262445161	-2.780804384380645	7.362695635693548
O	5.811231222445161	-3.028612334380645	7.124629865693548
