27

O	-16.133480056497724	16.996265411746123	44.20625478951537
O	-15.920801427139532	16.913351810159618	42.87157987518842
O	-14.723003818715192	16.43873280933575	42.39604372787441
O	-13.734216357931418	16.382227723269768	43.31530372661381
O	-14.172303555769563	15.572473974000555	44.38142068514475
O	-15.360939571734713	16.06761133269626	44.91722975743617
O	-12.450438034783769	15.865838330860054	42.65723650740289
O	-12.79996293869536	14.54882672337185	42.20851262275462
O	-12.87453415101339	13.504377967722693	41.40271674237883
O	-14.177533943145779	12.91688315324782	41.87282770517213
O	-14.058163570707473	13.0558955544784	43.18274293759127
O	-13.061897041669823	13.904980651235132	43.26326410256642
O	-14.346693839135275	11.613960056701043	40.98416932855901
O	-14.755509834639527	10.446455053872015	40.425691752869675
O	-16.206984128830857	10.084490469016586	40.547823170420614
O	-16.81064911688282	11.081914198275555	41.17393591799024
O	-15.690089357050457	11.997492561866366	40.859400952133214
O	-15.281402573324952	13.297892122979427	41.11604273837081
O	-16.236132167080683	13.89875088481816	41.35086264141033
O	-17.603711350151134	13.189386546243007	40.966005044834695
O	-17.91222427049987	11.762754760491267	40.97546313621982
O	-16.815458893385262	13.030766729438291	42.26369388822234
O	-16.934462402368396	14.027788796395694	43.158010312958105
O	-18.061738736961928	14.32478771591559	44.039243369127014
O	-19.045624419733024	13.442871165429409	43.68351855094509
O	-18.378102363604988	12.289265850986183	43.69447638138113
O	-17.069792730671907	12.11497928466172	43.01630221540755
