84

O	-0.8302742811698117	1.8020262833018874	-4.106456616018868
O	-2.0555825421698115	1.8535689963018873	-6.511750666018868
O	-2.373467492169812	0.4700243813018874	-8.780065946018867
O	1.5312362778301882	2.1258217413018876	-4.781737906018868
O	0.6952092278301882	2.2734153813018874	-3.6907929760188676
O	2.8108299978301883	1.5637948763018874	-4.207068736018868
O	2.8611582078301883	2.0126333413018873	-2.8760019160188675
O	2.5772463278301885	0.05434950730188737	-4.1363368360188675
O	3.2992332578301884	-0.6283080186981127	-5.098831396018868
O	3.0485889078301884	-0.32859496869811267	-2.7604164160188676
O	4.344905277830189	-0.7887291886981127	-2.8957513160188677
O	2.9255780378301885	0.9632886824018874	-2.0190888290188678
O	2.770559247830188	-0.03661006869811256	3.0159065239811325
O	-0.8297243351698117	0.3613247813018874	-4.480323026018867
O	-3.426137212169812	2.2426363313018873	-6.910105326018868
O	-2.943901932169812	-0.5065205886981126	-7.801949646018868
O	3.830142347830188	0.1239548873018873	2.230560523981132
O	-1.8069340521698116	1.9919628613018874	-2.790127346018868
O	-2.4126382721698114	0.37737077830188737	-5.901075366018868
O	-1.5048083231698117	-0.2864631186981126	-9.925306796018868
O	3.714851047830188	0.2283167413018874	0.9053741739811321
O	-1.1575131691698117	1.4861852663018873	-7.981696356018868
O	-1.1782928191698117	2.7102398413018873	-5.456627026018868
O	-3.713217042169812	1.3424193053018874	-9.253446136018868
O	2.5308598478301887	0.5709018943018873	0.36638888398113223
O	1.4508727678301883	0.5694210663018873	1.241876293981132
O	1.5595055178301884	0.2941511443018874	2.5866146239811316
O	0.4665853538301883	0.2374335263018873	3.4656146739811318
O	0.3657999358301883	0.9345088669018874	0.5810902439811321
O	0.7542598278301882	1.0331503246018874	-0.7224098770188677
O	2.0807476478301883	0.9250218038018874	-0.8659806990188678
O	9.04804933783019	8.228538961301886	0.03908160398113214
O	8.012513587830188	4.640647261301887	-0.6677547560188677
O	6.020992497830188	4.489153061301887	-3.8937311760188678
O	3.821298947830188	6.398138401301887	-6.303256046018868
O	0.9875316778301884	5.635503161301887	-8.700210486018868
O	-2.4795455321698117	6.7542591913018875	-9.784125336018867
O	-3.6549486621698115	6.019688291301888	-6.184172906018868
O	-1.4087525281698117	8.878829041301888	-5.232781426018867
O	1.8916127078301883	8.607604161301888	-3.438965836018868
O	2.746232287830188	6.7297358413018875	-0.27566775601886784
O	5.3729175478301885	7.822381281301888	2.2455903739811323
O	6.755134057830189	6.318654331301888	5.424256403981132
O	3.5070541278301883	4.201188791301887	9.576961413981133
O	2.521774557830188	4.478550541301887	5.890485333981132
O	0.6683740678301884	7.504461651301887	4.557136753981132
O	-1.1283945521698118	7.8359849913018875	1.2564455939811323
O	-1.8898548221698117	11.289100321301886	-0.09027956601886777
O	-4.897475092169811	11.508825921301886	-2.3828329890188678
O	-11.637369802169811	7.044526441301888	-2.6095250870188678
O	-12.015162002169811	2.2117131613018874	-0.2167322760188677
O	-12.579729902169811	4.325298531301887	2.883220623981132
O	-4.707094082169811	-3.3979863486981126	5.171365133981132
O	-6.950667202169812	2.6732609813018873	7.939905153981132
O	-4.890437832169812	7.953557931301887	4.635370183981132
O	-2.755962622169812	6.434836961301888	7.3825898339811316
O	-2.3148013521698116	2.684018811301887	6.974551133981133
O	-0.18806786716981172	-0.31146922869811267	7.9247289239811325
O	3.4705403678301883	0.11640191130188737	6.974275783981132
O	5.035671327830189	-2.784913888698113	5.051094763981132
O	8.460861347830189	-3.5168801086981123	3.4533462839811317
O	7.462604277830189	-4.353498758698112	-0.11391982601886785
O	4.720863197830188	-5.807064608698113	-2.3254845000188675
O	4.491106587830188	-9.093415978698113	-4.249383876018868
O	5.086444667830189	-7.285919438698113	-7.551613366018868
O	8.444445357830189	-5.913377068698113	-6.437342206018868
O	-6.376064032169811	-8.613771218698114	-6.990338966018868
O	-2.817289262169812	-8.656719068698113	-8.350848136018868
O	0.7755494278301882	-8.799164828698114	-7.017797176018868
O	1.1357228078301882	-5.033879578698112	-6.580878886018868
O	-1.9472008621698118	-5.121564128698113	-4.328147136018868
O	-0.4025314661698117	-7.603173918698112	-2.001833439018868
O	1.9298044578301885	-6.054556628698112	0.5961458239811324
O	4.499351867830189	-7.971665348698113	2.6542825339811325
O	6.604319477830188	-7.059554928698112	5.660552523981132
O	6.401273577830189	-12.129213578698113	5.027279913981132
O	3.0804121778301887	-11.347390078698114	6.694390713981131
O	0.7710952778301883	-10.375054578698114	3.837703033981132
O	-2.0195029721698114	-7.775470328698112	3.589687823981132
O	-4.415268892169812	-7.090420938698112	0.7138569239811321
O	-4.703038662169812	-3.3978260786981123	-0.2139039560188678
O	-6.445039502169812	-1.0740287186981126	-2.662673258018868
O	-10.163962902169812	-1.4696034786981127	-2.5240098540188676
O	-10.935389202169812	1.2527229223018874	-5.026094366018868
