79

O	1.0749367855722227	4.9195335768703705	-1.7177133089814811
O	1.4445321355722227	6.054296766870371	-0.9750279539814812
O	1.6583127255722225	3.4257286368703705	-0.4586640009814813
O	-1.3818780554277774	0.31113138687037045	-1.6662136159814813
O	0.8915344755722228	3.47681910687037	-1.4880467199814813
O	1.3079261155722228	0.3846539068703705	-2.197943108981481
O	-1.6032630394277774	6.11695772687037	-1.1251481179814813
O	1.6171619655722227	2.5011720668703705	-2.3489393089814814
O	-0.9295134904277773	0.1898710268703705	0.6405912410185187
O	1.8408616855722226	3.0133749768703706	-3.5731278389814816
O	-0.8242729814277774	2.3002234198703704	0.24380710201851874
O	3.084611205572222	2.9198081068703705	-4.288451788981481
O	4.017904245572223	2.0236090168703704	-3.7749962389814815
O	3.4520077755722225	0.9932180408703705	-3.0156624189814814
O	2.303175735572222	1.3306754348703704	-2.3050255289814814
O	1.4022993855722226	-0.4368863631296296	-1.2357566129814814
O	1.1474074055722225	0.6379204258703705	-0.10587118598148126
O	-0.2646702714277773	1.0628954488703704	-0.08723105798148134
O	-0.41668282942777735	-1.2126890931296297	0.22966458801851874
O	-0.028029034427777377	-1.0031742531296295	-1.1214638069814813
O	-1.3552828924277773	3.36748751687037	-0.22961240298148128
O	-2.0839599644277773	3.7491389668703707	-1.4123981269814814
O	-1.9368926204277774	5.101040656870371	-1.9820161489814812
O	-2.112107304427777	5.64744765687037	0.06538556101851867
O	-1.1939916224277773	4.60367859687037	0.5691241310185188
O	-5.839052874427778	-7.06048049312963	-10.223222588981482
O	-2.361118794427777	-5.5640792831296295	-10.665018048981482
O	-1.6096208294277774	-1.8484123331296296	-10.580509168981482
O	0.7439207355722226	-0.7480203031296295	-7.834756118981481
O	0.2966046755722227	3.0595504068703705	-7.672379678981481
O	-1.7885756184277772	6.21587979687037	-7.638296118981481
O	-2.3152642744277774	9.55657284687037	-5.931291338981481
O	-4.866366674427777	11.96272751687037	-4.470304668981481
O	-6.0325326544277775	9.136662126870371	-2.2279445189814813
O	-7.067024864427777	7.29526350687037	-5.385305588981481
O	-5.349671264427777	4.28675985687037	-6.995780538981481
O	-4.229886264427777	1.0432349268703704	-5.478904028981481
O	-4.015245104427778	-2.3431244631296293	-7.029391158981481
O	-2.8193688644277772	-5.774623693129629	-5.965841778981481
O	-5.454146714427778	-8.50933933312963	-6.099030188981481
O	-6.096501234427778	-12.13191858312963	-5.178263298981481
O	-3.055833614427778	-11.57117338312963	-2.2977662389814815
O	-4.1195146444277775	-8.18531085312963	-0.9810250079814813
O	-4.190311064427777	-4.53254660312963	-1.7048896989814812
O	-7.180463734427778	-2.5189296631296294	-2.8267092589814813
O	-7.638273844427777	1.2305313378703704	-2.8592163089814813
O	-10.386381404427777	2.7001624368703707	-4.974453538981481
O	-12.305054294427777	4.51025186687037	7.748549251018519
O	-2.278127524427777	-0.6604375731296297	8.258004331018519
O	-8.957845544427776	-2.39825089312963	6.669144991018519
O	-10.825658884427776	-0.3228074031296295	0.7408271110185186
O	-9.155737294427777	-3.7137506331296297	1.146844641018519
O	-5.9466172344277775	-3.43875168312963	3.1894705910185186
O	-2.5798471144277775	-5.09321908312963	3.973508161018519
O	-0.46140313042777736	-5.62056227312963	0.8478592710185188
O	3.0482111955722226	-4.24431641312963	1.0470750710185186
O	6.109277485572222	-4.30571082312963	-1.3138116419814811
O	6.933879035572223	-0.6107708931296296	-1.2071782579814814
O	7.3570319355722225	2.4832202368703706	1.0507010710185187
O	9.892808905572224	4.594059846870371	2.6753373310185187
O	9.647025105572224	7.3193603068703705	0.00691174701851871
O	10.303345905572224	4.92165007687037	-2.8727616589814815
O	6.0536468455722225	11.23623187687037	6.046678291018519
O	8.011386925572223	8.56099566687037	4.111847321018519
O	5.309576245572223	7.93909487687037	1.5716265310185187
O	2.924792835572223	7.12316151687037	4.430254671018519
O	5.241425015572222	4.41472184687037	5.770861041018519
O	4.921990885572223	1.0447705348703704	4.019923911018519
O	7.315600615572223	-1.8562140631296293	4.040737941018519
O	7.130207005572223	-5.47564317312963	2.9411247610185187
O	9.987916205572223	-7.6769818831296295	1.6902799510185185
O	11.267013805572223	-8.34115183312963	5.208729361018519
O	11.052207505572223	-4.686074903129629	6.157468371018519
O	8.028127855572224	-4.91268468312963	8.436818421018518
O	6.643613305572223	-1.3873221731296297	8.547503331018518
O	3.0588133955722228	-0.12929788312962942	8.757909611018517
O	1.8211660955722226	3.4503159668703702	9.093412571018519
O	-0.9840582403277773	4.357993716870371	6.762911391018519
O	-3.1900859244277777	7.2187341568703705	5.471729401018519
