32

O	-12.710205247056013	16.45835752415004	41.22973287434912
O	-17.657995742679667	11.16591723973307	41.287033584671185
O	-10.937658294323569	11.66390335506866	39.94304749543504
O	-13.585108911944934	15.661581352209971	42.013777257992494
O	-16.289667098778732	10.742999955700919	41.36505903301948
O	-7.246377455879014	14.247234554822992	41.87627970957411
O	-14.538883760113773	14.943797957824769	41.28631360793641
O	-12.893389890712825	13.057157729765148	42.77093600033762
O	-15.780087352729838	14.3199270046102	41.75378974039987
O	-10.268155756156704	13.490155794973571	40.04953414354831
O	-15.752078139598863	14.539763973498996	43.077594816192786
O	-15.202425316303174	15.619439837201382	43.68168806873497
O	-13.996234624779913	16.06727880061876	43.18813384044965
O	-16.330860818904572	12.933418182189824	41.212743962321866
O	-17.537953355909224	12.389750047285187	41.84495959338492
O	-15.59172520593348	11.85053958170193	41.13287324088169
O	-14.383645343653669	12.132426402956101	41.364723772288485
O	-13.617492869595333	13.209773927351652	40.99200922533554
O	-12.380966656366757	12.94287889697852	41.42681000793929
O	-13.850009528261955	12.1070107725173	42.789320407202695
O	-11.082314647528776	12.628931379631748	40.78513343123149
O	-8.997762633260415	13.954504869411517	40.37571541862974
O	-8.128334089897905	13.266952426127247	41.363314069647714
O	-9.473074332737152	14.984577636719333	41.36990337355013
O	-10.255866146398015	14.52890522415005	42.39914089086442
O	-10.683627099418473	15.35031671311567	43.39794215895432
O	-10.228318210344623	16.625347298563486	43.407229730233375
O	-9.449210336921897	16.98740135174293	42.38885068893136
O	-9.546584558010995	16.287374829571803	41.22927695017656
O	-12.168103122557977	15.760000881173008	40.273004821257544
O	-13.634114950816965	17.1681133954541	40.54325753980383
O	-12.343081802220869	17.484793186751936	42.008958295898914
