22

O	-11.316841884818604	12.437872581609087	41.69317904287802
O	-8.900990701822568	10.622381213011147	39.896176246745014
O	-10.320642422277242	13.746602263792855	39.3526976929716
O	-9.729500182008639	12.530969413805908	39.53813829599622
O	-8.498070518114014	12.013761771795638	39.71653588943964
O	-12.148215196812577	12.561070171582221	38.71867126705311
O	-10.989662379488461	12.170175184180053	37.94159402577897
O	-8.020090149483153	14.192489304379745	39.400936201165685
O	-9.313030134215756	14.55906782193116	39.539183250837404
O	-7.612027102809782	12.914698055201322	39.50267294976056
O	-10.481270709499318	11.075075299615492	37.38076519848208
O	-10.363307489441048	13.165060277548243	37.26468366145686
O	-9.200627964549227	13.107481183758864	36.55222373950378
O	-9.19330532468354	10.89631381593652	36.79568183747855
O	-8.495119066939811	11.98199094771388	36.483811282588775
O	-10.295513940222767	11.913072427420843	41.64201052687941
O	-8.985005066856047	12.51476542609866	41.82368326190301
O	-10.707630054546062	13.466990371930528	42.42910915069957
O	-9.455226976752146	13.56984665892709	42.44135696109208
O	-10.148617498854758	10.768372112052523	40.713620257000485
O	-12.979119515828401	12.07728270715667	41.73494256929801
O	-11.686063368956297	13.645682363921528	39.451462915644946
