85

O	-3.6760730108703696	3.78169718062963	1.1907329433148153
O	-1.6510701108703698	5.98007164062963	-1.0445739989851848
O	-2.42187155087037	5.258146190629629	-2.090558777685185
O	-3.17432226087037	4.039197730629629	-1.6236433476851848
O	-2.9289973808703698	3.9853009506296297	-0.27978225268518486
O	-2.02135602187037	4.70072722062963	0.6658574333148151
O	-0.9545183908703698	4.94612198062963	-0.2658817096851849
O	0.22835111912963013	5.19987813062963	0.5270920533148151
O	0.1315869491296302	6.610096570629629	1.0118344133148152
O	0.06837541912963019	6.55115606062963	2.3746901433148153
O	0.3762981391296303	4.3226544606296295	1.5613755333148154
O	-0.41302839187036977	3.1882923906296297	1.4138486633148153
O	-0.7817599068703698	3.00152013062963	2.651685013314815
O	-0.7772471818703698	2.74217094062963	0.18082532331481516
O	0.27437247912963025	2.6858373206296298	-0.7386060416851848
O	0.6455936491296301	1.4534473886296297	0.16961152331481522
O	0.06818508912963028	0.3147862706296296	-0.5880386336851848
O	0.10878437912963013	-1.2616032893703704	-0.2764962516851849
O	-0.025744840870369767	-2.28382301937037	-1.3459574246851849
O	-0.7582052598703698	-1.5383417793703704	-2.311447146685185
O	-1.3539431984703698	-0.30242766937037024	-2.1299960566851848
O	-0.9766956638703699	0.8982505786296298	-1.4629121376851848
O	-1.5133116378703697	1.6367223456296296	-0.3069982666851848
O	-1.2134972154703698	-2.42551873937037	-3.318828916685185
O	-2.15531303787037	-1.7193779793703703	-4.101793276685185
O	-1.4573067718703698	-0.5592065793703702	-4.5104247066851855
O	-2.2251480948703697	0.5827999746296297	-5.108362706685185
O	-2.81088391087037	0.12911791062962963	-6.269706296685185
O	-2.89551899087037	-1.2161268593703705	-6.420861746685185
O	-2.67625201087037	-2.25298294937037	-5.370708846685185
O	-2.8358080208703695	3.0482870806296294	-2.553065916685185
O	-11.77332558087037	-8.130056399370371	1.4916644133148154
O	-11.29896578087037	-6.41940405937037	-1.8784254676851848
O	-10.86203614087037	-2.6668729293703706	-2.3757826366851846
O	-7.611974610870369	-1.4744341393703704	-3.7974408166851847
O	-7.11448787087037	2.2049993246296298	-3.212285436685185
O	-8.09621835087037	5.247077780629629	-0.9677527996851848
O	-6.38690995087037	8.56509145062963	0.1871169433148152
O	-5.25758247087037	10.654663250629628	3.116180473314815
O	-3.5799996308703697	7.65576979062963	4.703974583314815
O	-6.956210860870369	5.9428355606296295	4.791462753314815
O	-8.17609193087037	3.0653781606296295	2.5221142133148153
O	-6.46733265087037	-0.2012081393703704	1.597611693314815
O	-8.06477390087037	-3.4857900493703706	0.8093621533148152
O	-6.8503822408703705	-6.893653439370371	-0.3099472546851848
O	-7.728290590870369	-9.736901999370371	2.053472753314815
O	-2.4500757108703697	-9.59508069937037	2.0298138933148153
O	-3.01250707087037	-5.8346303693703705	2.1194960133148153
O	-4.765783020870369	-3.9338649593703705	4.856778163314815
O	-4.767132520870369	-0.18519606937037025	5.5369720133148155
O	-7.544305200870371	1.1225653896296297	7.844657273314816
O	-6.6275950508703705	4.31281210062963	9.689509113314815
O	0.4842110691296302	7.00341270062963	12.225441613314816
O	5.09138919912963	5.0555556106296295	10.420482413314815
O	4.40605224912963	2.2427809526296296	12.887203913314815
O	7.24689211912963	-2.51408394937037	3.050094563314815
O	3.9354255691296305	-4.45637827937037	8.992607413314815
O	-2.18408178987037	-2.1471821393703703	9.452109813314815
O	-1.4965170848703697	-5.4297150993703704	7.680394443314816
O	1.29229619912963	-5.17168153937037	5.117103183314815
O	2.82477479912963	-6.71866275937037	1.964708143314815
O	0.28895198912963016	-6.8844473893703695	-0.9308076906851848
O	1.4050948391296303	-5.49016697937037	-4.272244276685185
O	0.04410832912963025	-5.34725262937037	-7.788807026685185
O	0.5186868091296302	-1.5409951393703705	-8.508863416685184
O	2.6648117191296303	1.5636693886296298	-7.7129506866851845
O	2.5812574591296302	6.39653163062963	-10.164912796685185
O	-0.12246233087036984	4.161823080629629	-11.711979686685185
O	9.65831691912963	9.82290385062963	-1.705284493685185
O	7.634355279129629	9.87064845062963	-4.912091906685185
O	6.26997203912963	7.37639794062963	-7.504906016685185
O	3.08770234912963	6.77222343062963	-5.549286026685185
O	5.128532469129631	5.74093794062963	-2.501363626685185
O	6.947077289129629	3.0530365906296297	-4.574193596685185
O	4.98752953912963	-0.23829152937037024	-4.947705426685185
O	5.587375059129631	-3.0283474293703705	-7.429977966685184
O	4.33903110912963	-6.601711229370371	-7.659012586685185
O	7.466120959129629	-9.40959709937037	-11.262161786685185
O	9.93565531912963	-6.2993060593703705	-7.145131216685185
O	9.76263341912963	-2.83750723937037	-5.560114206685185
O	9.07691141912963	-1.7525154193703703	-1.971628233685185
O	9.168922419129629	1.7599714236296298	-0.4459380256851848
O	6.13108441912963	2.6682073206296297	1.670808823314815
O	4.417417959129629	5.53397013062963	3.6178220333148152
O	6.812452029129629	6.631671910629629	6.372032303314815
