29

O	-11.239109377101544	13.421589883603767	40.89004742308518
O	-10.33188552465224	13.672979191458401	41.8596131204824
O	-11.11957241427	12.403919865710217	39.948734155797595
O	-12.724068181013614	13.066755261771688	40.97829357173296
O	-12.194367846401645	12.884484190695538	42.81007554363101
O	-9.157221370857762	16.18330621061396	42.27832738889542
O	-12.576434429352496	11.575349706290329	41.304658841742054
O	-15.724226358638985	12.002124994008064	42.36211768399919
O	-9.099727635226055	14.121222070334458	41.21066359477567
O	-17.51584745939771	11.180180548550666	41.43244505282365
O	-8.511299284973349	15.014067949273985	42.32369470771279
O	-17.50440611652872	13.29145058838711	42.36738004055182
O	-9.634514078357201	16.972463944149602	43.280141915066196
O	-16.840730916385752	13.64866053366437	42.61473975115952
O	-10.899957135774203	14.92108819981279	42.252858489989386
O	-15.614396819541712	14.67603922977451	42.41660706952083
O	-11.417339407023665	15.5840934810444	41.007583470152994
O	-12.10552050079407	14.75492277897376	43.05623657241863
O	-12.838253974416936	13.980805788348924	42.08363692147111
O	-13.40855362064771	12.47681390214866	42.3442853798247
O	-14.541456851528135	11.9716492190924	41.855065703408776
O	-14.960438344411832	11.053755837138116	40.67712608998011
O	-13.898722953920913	10.2825719534234	40.03323752727913
O	-17.094623229398746	11.932542367438026	42.57771808512286
O	-16.402142668255017	10.532785816218011	40.725940003201366
O	-16.751174469157554	13.366179041529076	41.35336268602003
O	-15.831881694226006	14.331531084309406	43.61167801200594
O	-15.175145072777244	14.53513446231431	41.107896069317185
O	-15.487326560397426	12.984772299504318	40.56489276168731
