85

O	0.8839501009298251	1.409273661859649	-0.25408841998421
O	-2.174642519070175	2.265900419859649	1.63550610531579
O	1.0223537009298251	1.970907599859649	-1.47493158468421
O	-2.121288899070175	1.959134439859649	0.27924431131579
O	-0.651488032070175	-2.6507296701403513	2.0868450453157896
O	-3.3322133690701747	1.9625246898596491	-0.18169829788421
O	1.0194835909298252	-2.353526780140351	0.45331334431579007
O	-4.435416429070175	2.587621659859649	0.42807844431579
O	-5.440161019070175	0.024159866859649104	3.53115152531579
O	-4.4860895890701755	2.544018739859649	1.82748180531579
O	-3.294377609070175	2.4159023998596494	2.4390651753157897
O	-1.062779771070175	1.714674572859649	-0.58482408368421
O	-0.272736179070175	2.336766799859649	-1.66126449468421
O	-0.206148863070175	0.796115808769649	-0.37595991568421
O	0.12497569292982502	-0.568102250140351	-0.36145747968421
O	-0.430025588070175	-0.788650970140351	0.81461985531579
O	-1.710375381070175	-0.5141229501403508	0.9932988753157901
O	-1.884304529070175	-0.651446850140351	2.29789172531579
O	-1.481262107070175	-1.8702380401403509	2.75764167531579
O	0.022480482929825074	-2.0020570401403512	1.18918891531579
O	1.2544821909298252	-1.344302810140351	-0.34763866368421004
O	-3.161095859070175	-0.41822187014035084	2.66937063531579
O	-3.4435704390701747	-0.9672486001403509	3.8395856353157902
O	-4.6696415490701755	-0.679143200140351	4.24994293531579
O	-5.242456549070175	0.002411853859649038	2.2578284353157896
O	-4.072450239070175	-0.478814680140351	1.75291909531579
O	-0.967470409070175	1.936790059859649	2.2224009953157897
O	-3.3490249790701747	2.019518299859649	3.72152930531579
O	3.396909740929825	3.0047409398596487	12.93592831531579
O	-0.27183765707017493	3.394750799859649	12.14134341531579
O	-1.7177365950701748	5.784193619859649	9.53733774531579
O	-3.436153019070175	4.152713249859649	6.48424837531579
O	-3.839566779070175	6.524674789859649	3.59689795531579
O	-2.505777369070175	9.842150899859648	2.1144183653157897
O	-2.203642469070175	11.40398629985965	-1.36037859468421
O	0.14070666892982497	13.066892399859649	-3.8896709846842104
O	2.342551280929825	9.945100449859648	-3.6654797246842103
O	2.980204020929825	10.85952469985965	-0.03150273168421
O	1.465880150929825	9.05914909985965	3.01541831531579
O	1.277229540929825	5.264439919859649	3.7977952153157895
O	1.4542341409298252	3.842594459859649	7.32901636531579
O	1.234708520929825	0.3834190098596491	8.74533003531579
O	4.204620550929826	-0.7223411201403509	10.77233141531579
O	8.893928530929825	-5.187062750140351	11.06482881531579
O	3.5449401709298254	-6.057235880140351	9.90273861531579
O	4.1443015909298255	-4.036339540140351	6.717579225315791
O	3.1164846709298253	-0.9150504601403509	4.7154496553157905
O	5.322135330929825	2.0401316498596493	4.40484251531579
O	5.148941600929825	4.974866939859649	2.10607067531579
O	7.093203630929825	8.171834319859649	2.8959101653157897
O	8.204360850929826	10.34793660985965	-0.03587198468421002
O	11.752551910929824	2.140114999859649	-7.75711887468421
O	9.345196010929826	-2.483935400140351	-8.818808624684209
O	2.218455180929825	-6.569226640140351	-8.44611984468421
O	3.1891089809298254	-4.772628920140352	-5.29626760468421
O	6.823959840929825	-5.201778730140351	-4.3030796446842094
O	9.514811610929826	-3.1654148301403513	-2.5588734646842104
O	10.825969410929826	-5.071427980140351	0.43791700231579
O	9.448985610929824	2.582138009859649	0.66362083131579
O	8.509940400929825	-0.6101640101403509	2.44361193531579
O	5.989317960929825	-2.6758695401403507	0.56635123631579
O	3.221997190929825	-5.3725496601403515	0.89678886531579
O	0.591248540929825	-4.535364380140351	3.51383585531579
O	-3.006923359070175	-4.919841290140351	2.0649318653157898
O	-6.503217039070175	-4.7142260401403515	3.6082216253157897
O	-8.229590909070176	-2.2560676101403505	1.00946499531579
O	-8.246960149070174	-1.049905170140351	-2.60753300468421
O	-11.808429389070175	2.314136939859649	-5.074197284684209
O	-12.821234289070174	1.963579569859649	-1.41758876468421
O	-7.603246309070175	2.677301219859649	-11.86411938468421
O	-9.433992719070174	1.2520399858596492	-8.84054893468421
O	-7.405457409070175	3.1750053398596494	-6.24054903468421
O	-4.276138399070175	1.590928991859649	-7.712029634684209
O	-5.554906099070175	-1.8808058701403507	-7.10579740468421
O	-4.963852839070175	-3.1646532501403506	-3.61019891468421
O	-6.672081739070175	-6.211394170140351	-2.10655558468421
O	-6.052295579070175	-8.235551540140351	1.05744400531579
O	-8.628279159070175	-10.049570500140351	3.2452644553157897
O	-8.779544699070176	-13.020433500140351	0.88838624531579
O	-5.615307739070174	-11.299568500140351	-3.5240705346842103
O	-5.004298939070175	-8.27887948014035	-5.73985451468421
O	-1.835512559070175	-6.339214560140351	-6.400738674684209
O	-1.299321616070175	-3.4392974801403513	-8.74210576468421
O	0.497384740929825	-0.48069138014035095	-7.20111186468421
O	1.821036440929825	2.9581449698596494	-8.32315272468421
