88

O	0.7783312611016953	-1.6101108471162713	2.601748634711864
O	-0.9447884078983049	-1.447986457116271	-0.9438737512881361
O	0.42142767510169515	0.08286005288372866	-3.413269715288136
O	0.07042756510169518	-1.2250157571162712	0.08158643871186388
O	0.29393165110169517	0.2674607698837287	1.5474744047118638
O	2.479893111101695	5.103656752883729	-2.257416685288136
O	0.10791748510169516	-1.979513537116271	1.418889704711864
O	-0.029108656998304838	2.468179862883729	-1.2762486952881362
O	0.7645925011016952	-0.1862975171162713	2.753413694711864
O	0.7875296831016951	2.497925942883729	-4.047562345288136
O	0.2038006261016952	0.3405058578837288	0.1824105877118638
O	2.125926401101695	0.1172076528837287	3.027522334711864
O	-0.2596343498983048	1.3313564968837288	-0.6121750532881362
O	2.0576807811016953	2.014136875883729	1.1646923747118638
O	-0.8454356288983049	0.5924997138837287	-1.8801788452881363
O	1.9134227411016953	1.0044729768837288	2.481462744711864
O	0.6373463621016953	0.8208499668837288	-1.961065335288136
O	1.2080981611016952	2.177610042883729	-1.755471186288136
O	0.4112287221016952	3.4961282928837285	-2.0734671152881363
O	-0.06953750329830483	3.461310312883729	-3.438885825288136
O	0.32555484010169516	1.4540795658837287	-3.398364535288136
O	2.121567921101695	3.051779692883729	-3.678461105288136
O	2.069693241101695	4.497253542883729	-3.368242605288136
O	3.208832241101695	4.741306072883729	-1.1925849792881362
O	0.010325406101695161	4.558671592883729	-4.337008585288136
O	2.4265128111016954	0.03950904288372881	1.7988765747118638
O	1.8914124811016952	-0.2609477771162714	0.3521213147118639
O	2.789723001101695	1.2024847375837286	0.2917440447118639
O	2.5168915211016953	2.4182847928837288	2.590710854711864
O	12.471074201101695	-7.535753617116272	2.778398284711864
O	12.254517201101695	-4.054535387116271	4.289920234711864
O	11.710780001101696	-0.8555162071162712	2.276400544711864
O	8.619934851101696	1.1011410795837286	3.0098669847118638
O	7.821803421101695	3.5265286428837284	0.11425874671186387
O	8.448793251101696	4.327088842883729	-3.5431567552881362
O	6.5018665811016945	6.100059672883729	-6.355220585288136
O	5.291380901101695	5.968294322883729	-9.920756195288137
O	3.450195571101695	2.7768978928837287	-9.035425005288136
O	6.790312821101695	1.2630488668837287	-8.213795505288136
O	8.231637961101695	0.5098175738837287	-4.812227905288136
O	6.7322064311016945	-1.2983779271162714	-1.9238003552881362
O	8.662930241101696	-3.4253294571162707	0.6385857347118639
O	7.705797721101694	-5.307366617116271	3.8003536747118636
O	8.445286401101695	-8.998406007116271	3.792329924711864
O	3.181725341101695	-8.661256327116272	4.220778604711864
O	3.6016716611016952	-5.930299287116271	1.6530185647118638
O	5.049892661101695	-6.3102725871162715	-1.790431385288136
O	4.891374851101695	-3.9384065971162707	-4.730670345288137
O	7.376071771101695	-4.385404847116271	-7.550803915288136
O	6.215926111101695	-3.132683307116271	-10.923243255288137
O	-1.1608355388983047	-2.609330617116271	-13.997001755288135
O	-5.612707918898305	-2.828214467116271	-11.028930155288137
O	-4.956308738898305	-6.563645377116271	-11.099702255288136
O	-6.734599978898305	-3.5678546071162707	-0.4366031912881361
O	-6.319985328898305	-7.047622967116271	-1.721609696288136
O	-3.931957028898305	-9.076899407116272	-3.838794015288136
O	-2.811222468898305	-12.105477807116271	-1.852847035288136
O	2.064877591101695	-7.8822806471162705	-6.214020525288136
O	1.6060665511016952	-9.131483607116271	-2.6614608452881363
O	-0.9364787288983047	-7.208603357116272	-0.6796531852881361
O	-2.100198728898305	-6.170816607116271	2.831851114711864
O	0.6830985431016952	-4.555224427116271	4.963137584711864
O	-0.2788069458983048	-1.270476777116271	6.495749664711864
O	1.3974802111016953	1.0169629438837287	9.117314264711863
O	0.8903961111016951	4.385152232883729	7.262416394711863
O	-1.3931432388983047	6.311242522883729	4.774462184711864
O	-3.610061698898305	9.317311222883728	5.158273634711864
O	-1.103095848898305	11.539512192883729	3.315710254711864
O	1.6264904711016952	10.833489142883728	5.897679324711864
O	-13.862209698898305	5.414857812883729	2.919473694711864
O	-9.122335938898305	8.982268942883728	-4.550419085288136
O	-6.679644188898306	10.976986762883728	-2.434373005288136
O	-4.954083388898305	10.701156942883728	0.9628747347118639
O	-1.9879813088983047	8.757496992883729	-0.35127420628813616
O	-4.342207318898305	6.184148392883729	-1.7360844672881361
O	-5.819370198898305	5.556454742883729	1.6380629847118642
O	-3.846906438898305	3.215394962883729	3.859012214711864
O	-4.207603988898305	2.7404145828837287	7.635433234711863
O	-2.915473948898305	0.15647010588372878	10.113443544711863
O	-5.709037268898305	0.4883661978837287	14.862288144711863
O	-6.802870338898305	2.8520394228837285	12.110593044711864
O	-8.506839468898304	0.2940352198837287	9.882739044711863
O	-8.516282058898303	1.8844611158837288	6.418482754711864
O	-8.189374288898305	0.3386508168837288	2.972695304711864
O	-8.482650718898304	2.0304260068837285	-0.43421190528813614
O	-5.6107630188983055	1.1758272755837287	-2.799977005288136
O	-4.301041618898306	1.9940182988837287	-6.268127265288136
O	-6.917512038898305	1.1315170953437288	-8.860983615288136
