90

O	4.135199537736843	-1.612294102761403	-1.5282912944701756
O	3.3575294077368425	-0.8401652727614031	-1.0038705094701756
O	3.265572787736842	-1.139937462761403	0.3465114165298244
O	1.7813848477368421	-0.06352075276140301	-0.23969362447017561
O	1.9339425077368424	-1.101686332761403	0.6402013365298245
O	2.258804917736842	-0.2691320627614031	-1.5284781844701756
O	-1.2509774222631576	1.977212247238597	-0.6227094544701757
O	1.4147748077368423	0.33065213023859696	-2.4075962034701757
O	-0.6763328262631577	0.24047902323859693	-1.2186312881171757
O	0.9674151377368424	1.622572256238597	-2.0581618374701756
O	-2.1351329822631575	-0.334207552761403	-1.3065321703701755
O	0.16066314273684235	1.726265873238597	-1.0121646884701756
O	-1.6903237902631578	-1.359182442761403	0.8826452965298244
O	-1.5940390202631578	0.7036406382385969	-0.19168296347017555
O	-0.6783798312631577	-1.9862282627614032	1.2421529365298243
O	-1.3806371282631575	0.21898131623859696	-2.3353129634701757
O	-1.4988109112631576	1.9582368402385968	-3.1634485534701753
O	-1.3642327782631578	-1.0899771927614033	-0.32241169947017556
O	-2.857908792263158	0.44641665523859697	-0.2993321464701756
O	0.24467981773684222	-2.246773672761403	0.34168007652982446
O	-0.2428303142631577	-1.624945562761403	-0.7317092274701756
O	1.3325212177368422	-3.187834782761403	0.07110465652982434
O	2.530865627736842	-3.879412732761403	0.005038716529824461
O	1.9068022977368422	-3.578749132761403	-1.2192875074595757
O	-2.2954558822631577	1.352928173238597	-2.3479676634701754
O	-1.3375407882631576	3.294175907238597	-3.5277957434701754
O	-0.2727553172631577	3.4945795372385966	-4.363959233470176
O	-0.3687586972631577	4.423389187238597	-5.335431413470175
O	-1.5934097242631577	4.940155027238597	-5.631141683470176
O	-2.6265420122631578	4.803625697238597	-4.752532933470176
O	-2.600938732263158	3.717345167238597	-3.9442261534701757
O	-3.285397952263158	0.8084650902385969	-1.5262648154701757
O	0.9434117777368424	0.9120846778385969	-0.13205872347017555
O	-8.058693112263159	-7.054473852761403	-8.884625983470176
O	-7.353919002263157	-3.396895512761403	-9.569333983470175
O	-3.9208851822631576	-1.9670704027614032	-10.344966023470175
O	-2.5039320722631575	0.5223908322385968	-7.915563323470176
O	1.1816523877368423	0.950765360638597	-8.379328123470176
O	4.326406927736842	-0.5601176127614031	-9.886025173470175
O	8.098346327736843	-0.45327263276140317	-9.278223043470176
O	11.269727217736843	-2.495461172761403	-8.666488613470175
O	9.445340617736843	-4.128688652761403	-5.6761198134701765
O	6.985005357736843	-5.574421862761403	-8.196695163470176
O	3.408832617736842	-4.400882412761403	-8.683936553470176
O	0.6219118077368423	-3.855122902761403	-6.200120133470175
O	-3.052430722263158	-4.306644852761403	-6.863416903470176
O	-6.261693632263158	-3.807874492761403	-4.990095773470175
O	-8.377889272263157	-6.8626058027614025	-4.501252513470176
O	-11.458116282263157	-8.241217962761404	-2.7281326034701756
O	-12.699737482263158	-6.450992992761403	3.021552126529824
O	-10.696301672263157	-5.148936472761402	0.06969979652982428
O	-6.989395042263157	-5.5275076127614025	0.39427230652982437
O	-3.744323352263158	-4.835586712761403	-1.2794297054701755
O	-1.6227202462631576	-7.536132172761404	-3.0218220534701756
O	2.043502047736842	-7.294849702761402	-4.070792333470175
O	8.841976187736842	-11.109612772761404	5.219054536529825
O	2.293179687736842	-2.152790772761403	7.212171316529824
O	1.405508587736842	-5.719860202761403	7.867738816529824
O	1.3633622077368424	-9.083195872761403	6.088396316529824
O	-2.0946484122631577	-10.642490872761403	6.330066056529825
O	2.0572936677368423	-10.737528272761402	-0.3001727324701756
O	-1.3174304562631578	-9.638297972761404	1.0694548765298242
O	-1.1737710762631577	-6.407882932761403	3.0894976265298246
O	-2.9963268422631577	-3.3736660327614025	4.413377386529824
O	-4.733424942263158	-1.4485974427614032	1.6765427865298244
O	-4.113507432263158	2.265828747238597	1.7962169165298243
O	-5.508683312263157	5.246732737238597	-0.2420828204701756
O	-2.1577647022631576	6.832378877238597	-1.1554089952701756
O	1.4132348977368423	7.452359077238597	-0.18811111347017562
O	3.1852881977368424	10.618789797238597	0.9761658665298243
O	5.068474957736843	10.929142347238598	-2.3281299334701755
O	1.8421802777368423	11.247709927238597	-4.229854603470176
O	6.245379747736843	8.267090867238597	11.543714686529825
O	11.198705117736843	8.441387927238596	2.268490436529824
O	7.736666147736843	9.738449787238597	1.2100920165298246
O	6.996322767736842	6.887379457238597	-1.1785918258701755
O	7.473352987736842	4.484208887238597	1.7137097465298243
O	4.859917807736843	6.226596797238597	3.8701319865298243
O	1.268900917736842	5.074088577238597	3.088442426529824
O	-1.8768488422631577	6.903476817238597	4.1285330465298244
O	-5.578841052263157	6.067086007238597	4.163969236529825
O	-8.523861212263158	8.456112277238597	3.6731668265298247
O	-8.363500522263157	9.591057737238597	7.297419226529826
O	-4.612338852263157	10.082972587238597	7.148569646529825
O	-3.607233372263158	7.084850237238597	9.269934886529825
O	-0.008213501263157674	6.405092387238597	8.272699656529825
O	1.898996687736842	3.151594247238597	7.907659326529824
O	5.550697157736843	2.690318197238597	7.129084596529825
O	6.210556417736843	0.13014405623859693	4.4190653065298235
O	9.115711867736843	-1.535325612761403	2.4298300565298243
