84

O	-4.297743613113207	-4.845255345886792	4.347425451805661
O	-2.885664403113207	-4.804532355886792	4.37674618180566
O	-2.173838473113207	-4.214365925886792	3.3620057318056604
O	-1.6077228731132074	-4.844292645886792	2.239732941805661
O	-1.6312759131132073	-3.8322025458867923	1.2700757918056607
O	-1.1274099991132074	-2.6172174058867927	1.3557688718056606
O	-1.6701241931132074	-1.9765192758867924	2.524322341805661
O	-2.182900503113207	-0.6655145908867924	2.2142017318056606
O	-1.6888360831132072	0.054045539113207586	1.1077518318056607
O	-1.5674971231132073	1.3175213341132075	0.7870411818056606
O	-0.9687526791132073	1.6312178141132077	-0.4005579961943393
O	-0.14990511211320728	0.7704862241132076	-1.0911265941943393
O	-0.0628217161132073	-0.49925260888679246	-0.5318269671943393
O	0.7656545568867927	-1.5561847658867924	-1.0409692181943393
O	0.7453126268867927	-2.6614068858867928	-0.08552066819433934
O	-0.2996083101132073	-3.5523866058867926	-0.3861864481943393
O	0.009958674886792696	-4.926037905886792	-0.7297882362943393
O	0.8397036768867927	-5.537648835886793	0.22552454880566075
O	1.4176755468867928	-4.524682445886792	1.0369529418056607
O	1.7540008268867926	-3.3412962058867928	0.3671903368056607
O	2.9675532168867926	-3.057593175886792	-0.42629638319433927
O	3.262008916886793	-3.1292796058867927	-1.7985133781943392
O	2.1973829068867925	-3.2964574358867926	-2.4860004881943394
O	4.477426356886793	-3.8738924058867923	-2.2227679381943393
O	4.213715256886793	-5.340804015886793	-2.3205482481943394
O	-0.9111856821132073	-0.8065250648867924	0.3974859218056608
O	0.028699338886792658	0.5747064791132076	-2.578720758194339
O	-1.8425131731132074	-2.8490838858867926	3.5269757318056607
O	1.2627221968867928	0.000760776113207573	-2.6583398481943394
O	-1.1367509211132072	-0.16841868088679246	-2.753097418194339
O	0.12230677488679276	-0.8969807508867924	-2.945310958194339
O	-13.240986473113207	-2.038734605886792	-3.4823259581943393
O	-11.474401473113208	-4.479612405886792	-1.1919487691943393
O	-8.542164303113207	-6.614920435886792	-2.308068738194339
O	-5.318942033113207	-5.9941976758867925	-0.42458121919433933
O	-2.3678732931132074	-7.564421145886792	-2.2949491181943396
O	-0.8781511271132073	-8.507859025886793	-5.56635970819434
O	2.4734825468867925	-8.695430515886793	-7.30191601819434
O	4.384281276886793	-7.878778025886792	-10.497822178194339
O	3.3805969968867924	-4.243561475886793	-9.954413488194339
O	-0.21634865111320728	-5.377316775886793	-10.476539908194338
O	-2.867806913113207	-5.649779275886792	-7.766804398194339
O	-3.8729605631132076	-3.170646315886793	-5.096499878194339
O	-7.3043155631132075	-2.698952975886792	-3.6408288381943397
O	-8.788698673113208	-0.5829285958867925	-0.8691725161943393
O	-11.582375473113206	1.7048779141132075	-1.9118482681943394
O	-13.870632373113207	4.505606144113208	-0.7240230258943393
O	-10.807153673113207	5.297519724113208	2.070683621805661
O	-7.819848403113207	4.976988354113208	-0.2604731571943393
O	-5.543117693113207	2.504112104113208	-2.0261246081943396
O	-5.768915963113207	1.8133751341132076	-5.770780668194339
O	-3.2963262731132073	0.011615512113207549	-8.055906918194339
O	4.488994746886793	8.220966524113209	-12.112848858194338
O	3.9023976968867933	7.4392687741132075	-0.9373075891943393
O	-0.2351630451132073	9.713924634113209	-6.16847856819434
O	-3.0239028031132076	4.8185228541132075	-9.533507448194339
O	-4.6850915631132075	6.213289564113208	-6.426313558194339
O	-2.3174148131132073	6.445406524113208	-3.466385758194339
O	-1.9939464031132073	6.556625764113208	0.29279129980566065
O	-3.780435303113207	3.754586174113208	2.038774551805661
O	-1.6517613331132073	2.0064878941132074	4.665800671805661
O	-2.1605331631132074	-1.0151446328867926	7.012360281805661
O	0.8890860068867927	-3.2086972558867926	6.20783144180566
O	4.531332706886793	-3.2319811258867928	5.199491411805661
O	7.803239006886793	-3.996497605886792	6.841995241805661
O	8.007952216886792	-7.388005645886793	5.045256271805661
O	4.738476806886793	-8.634366495886793	6.540696221805661
O	13.569365226886793	-3.4447504658867922	0.7740267218056607
O	11.026977826886792	-4.269103365886792	3.5292981418056604
O	8.151205946886792	-4.906578025886792	1.1157796618056608
O	8.695670586886793	-1.3931556458867924	-0.2404954841943393
O	8.275969986886793	0.2297984131132076	3.188048571805661
O	4.573089586886793	0.7112470061132076	4.162908101805661
O	3.2592528468867927	1.3573951941132076	7.63352857180566
O	-0.1122636881132073	2.4011598941132073	8.96839702180566
O	-1.6678422731132072	1.5287360141132076	12.34991414180566
O	0.4002847208867927	4.115621924113208	14.173899441805661
O	3.602342376886793	3.1008482941132076	12.461435341805661
O	3.954304266886793	6.082987094113208	10.141023941805662
O	6.179297846886793	4.875581784113208	7.323834961805661
O	6.142385656886793	5.645688034113208	3.58668508180566
O	8.539399276886792	4.470073644113207	0.8940902218056608
O	6.794624416886793	3.0957939741132074	-2.182176578194339
O	7.425362726886793	1.3873146541132075	-5.52964971819434
