27

O	-9.937002286444574	16.085279736107395	41.140971981448054
O	-7.579230225250839	17.406782493558637	41.95747639890422
O	-11.76520661193283	17.582258007128395	42.15739623985325
O	-11.530551265624872	16.584783400779028	41.2408811188987
O	-13.149756027918169	17.26526845411469	42.72871142056803
O	-13.874573175602453	16.436427950317885	41.87429456452406
O	-12.882725404028797	16.39687180536892	43.95379832011925
O	-12.788689080978516	17.257580339961734	45.033249408891464
O	-14.084168320213578	15.494124771769219	43.99926415464846
O	-14.965752026624605	16.065568602817383	44.931438236874165
O	-14.623470193542717	15.53846029179247	42.601890754468016
O	-17.787377234437187	11.429288651614774	41.64291945993138
O	-9.97534315724034	15.012990779182124	40.06220891501463
O	-7.26055457170433	16.078014923035923	42.396361114984906
O	-18.044741506125973	12.62379857052829	42.21155728071055
O	-9.357812003745277	15.28671257669945	42.48861066743411
O	-6.049493302640489	17.736720166861094	41.270343117196184
O	-17.115660500396302	13.555428736395648	42.446740627892176
O	-8.8717330877292	17.354931386156927	40.88917902844587
O	-7.732506647067099	18.441822929375896	43.252455280153555
O	-15.844393550556484	13.404036619374276	42.03187051723127
O	-15.584386318528713	12.208174104653784	41.368749167053814
O	-16.55456212175354	11.232552673634999	41.18892760286219
O	-16.260008597774	10.008929032162754	40.56058746972085
O	-14.334536932432679	12.30928845178061	40.9222956489734
O	-13.805733124744297	13.476821125561717	41.40341275865954
O	-14.745358879446524	14.207923223454014	42.00710243894796
