80

O	-0.034764405949152866	-5.33838527040678	0.2512437729152538
O	-0.8064515249491528	-1.1937120504067795	0.24423471291525378
O	-0.2389109519491529	-3.4360706304067796	2.261146312915254
O	2.298677494050847	-4.75077206040678	0.7812870089152537
O	0.8803058140508472	2.7081084795932204	-0.19634197808474624
O	5.636068534050848	-1.2360113504067796	0.8822016709152538
O	1.953768154050847	3.3649814795932205	-0.5392313270847462
O	4.359061064050848	-1.6709045704067798	0.6922771169152537
O	0.9406951840508472	-4.27743132040678	0.5119478499152538
O	5.987032254050847	0.027086532593220358	0.5130504389152537
O	3.427687434050847	-0.8999587804067797	0.06820210471525377
O	5.042448904050848	0.7441974290932204	-0.16761867808474623
O	0.7778722440508471	-0.6816560304067796	1.3024404129152538
O	-0.6624606009491529	0.11874012259322042	0.10310217591525378
O	3.013269584050847	2.7932755595932206	0.030469330815253777
O	3.731350164050847	0.42992596359322044	0.03207617671525378
O	0.5630044880508471	0.4208232445932204	0.5661582849152538
O	0.3033049750508471	-1.7840172004067796	0.7572989149152538
O	2.735421374050847	1.4587871895932203	0.06399879661525378
O	1.372951194050847	1.4529324625932203	-0.002907857684746218
O	0.4920395850508471	-3.1741044804067795	1.250822002915254
O	3.7579022340508472	8.901753689593221	10.859787272915254
O	6.577380674050848	7.5048721195932195	8.710816642915253
O	7.313693744050847	3.8015535295932206	8.203719592915252
O	6.944080504050848	2.4415458195932205	4.687497542915254
O	6.708598964050847	-1.3400900204067796	4.7856461629152545
O	5.817267274050847	-4.411724440406779	6.8527875129152545
O	4.480254184050848	-7.915404790406779	6.241674412915254
O	1.917159384050847	-10.523010500406778	7.284246682915254
O	-0.8128252479491529	-8.007819200406779	6.463693032915254
O	0.6020499860508471	-5.807199040406779	9.188452262915254
O	2.670985424050847	-2.6529100904067797	8.816980182915254
O	2.026272924050847	0.4019583025932204	6.659897362915254
O	3.060244024050847	3.9433284295932203	7.556837992915254
O	2.830128454050847	7.323540039593221	5.846850532915254
O	0.894949344050847	9.97871011959322	7.693817232915254
O	-1.848760895949153	9.188065019593221	3.2324249629152537
O	-0.9743765499491529	5.53306432959322	3.8684906829152537
O	-2.1271505759491527	3.6719316495932204	6.938475282915254
O	-2.155268315949153	-0.0703723574067796	7.531750812915254
O	-2.382998485949153	-1.3196943704067796	11.118175872915254
O	-3.950670355949153	-4.743422660406779	11.548861672915253
O	-9.506243645949153	-8.48697114040678	7.041187492915254
O	-10.700636025949153	-6.95144889040678	2.0178488829152537
O	-12.823260625949153	-4.359423870406779	3.8186426929152537
O	-6.603829405949153	0.8014180925932204	-4.038656947084746
O	-9.284918625949153	2.3279351595932205	-1.895533987084746
O	-10.213967965949154	2.6523932295932204	1.763280232915254
O	-10.560688225949153	6.316690969593221	2.6729578729152537
O	-7.070997945949153	1.1330388505932203	7.3247098329152545
O	-6.434252145949152	4.45305795959322	5.599519232915254
O	-5.659058035949153	4.025797389593221	1.9080020429152538
O	-4.0663261259491525	5.6132194295932205	-1.140892057084746
O	-0.4668779919491529	6.668739249593221	-0.5994394790847462
O	1.958787784050847	5.44781783959322	-3.314559807084746
O	5.797000624050847	5.7208700995932205	-3.9091841670847463
O	6.668035584050847	2.0208936695932205	-4.385615117084746
O	5.418183004050848	-1.3641537004067796	-5.642738887084746
O	6.291689834050848	-3.48084217040678	-8.696546807084747
O	8.299322094050847	-5.90143674040678	-6.538717567084746
O	10.662304174050847	-3.1637445304067797	-5.3539235370847456
O	-1.891057675949153	-11.076020000406778	-7.980812377084747
O	1.8644608440508468	-10.53446670040678	-7.871269197084746
O	4.355305694050847	-7.640574330406778	-8.122071377084747
O	4.254335694050847	-6.766347250406779	-4.4197897970847455
O	0.4790883680508471	-6.36530110040678	-4.736600617084746
O	0.854483654050847	-3.75454064040678	-7.432691477084746
O	1.577678774050847	-0.2331971414067796	-6.159755187084746
O	2.931539564050847	2.6571540395932205	-8.264037747084746
O	3.280488364050847	6.37051610959322	-7.609047717084746
O	5.902493254050848	8.776270469593221	-8.995265277084746
O	4.141229164050848	9.051206509593221	-12.348132327084747
O	3.651245704050847	5.307961289593221	-12.616189627084747
O	-0.09289411594915287	5.22438704959322	-11.981692927084747
O	-0.7675073589491529	1.6830033995932203	-10.768355927084746
O	-3.224134905949153	0.34964399459322043	-8.174404097084746
O	-3.980753525949153	-3.26664985040678	-7.261235967084746
O	-4.0350989359491525	-3.94452202040678	-3.5261776870847465
O	-4.493437355949153	-6.81116073040678	-1.0019764070847461
O	-7.860648225949152	-8.39988957040678	-1.4517178970847462
