26

O	-18.967553378911727	17.015580290424296	45.81807954921286
O	-12.784182732421721	14.09689015939884	42.40655446065423
O	-17.2557756050476	13.335205453789348	41.88279241313896
O	-13.904041177707047	13.38120642258054	42.11033073257011
O	-17.90071620234403	11.14841122136244	41.47943721996581
O	-15.055514883124257	14.110562734153966	42.00971286174475
O	-18.952707365791387	12.69534382731663	42.99624510372452
O	-16.056242019829412	13.214683830968713	41.414594763135945
O	-16.423228549431176	15.652216038361175	43.72017264886571
O	-18.148122359301567	12.348999383183424	41.920706944240465
O	-10.858651419344417	14.274891285997118	40.81118844074481
O	-16.81896616575828	11.001854261822352	40.72305548931532
O	-15.953149055963877	12.110236946579683	40.57076276470002
O	-14.578977344643443	11.613593239770957	40.19447472046569
O	-13.954892313033422	12.05268847357993	41.42132144338265
O	-19.083296968333805	13.874344327728439	43.734435420347594
O	-18.759615752192932	14.640239526963578	44.84843213666251
O	-19.434340817736928	15.744487788945698	45.36702334215684
O	-20.73501742577592	15.900788601746722	44.87367521635767
O	-20.80750890358676	15.602365745538876	43.542555805597985
O	-20.036981558953794	14.586424608087178	43.09554112130386
O	-15.241137182432444	15.113547940938812	42.99958401494894
O	-17.386325114655698	16.579142095119394	43.137406043338444
O	-16.13834793863738	16.707308423584816	44.71174119019907
O	-11.460048758814631	14.134922386624403	41.80731222039885
O	-13.516512204311248	15.377301964983054	43.1934625782139
