21

O	-9.65490983441179	13.525359264403267	42.393182005560554
O	-13.180946372364495	11.607404071883922	41.10384867020915
O	-11.294904455413937	13.844152839360342	40.177561703760034
O	-11.08717017951055	15.44860078314295	42.9597140714888
O	-17.4386806864125	11.455261985780007	41.43853193281197
O	-15.614546989398892	17.000311587613098	43.732344883723485
O	-18.46472180363904	11.902468337594993	42.108324993273
O	-14.724388731675134	16.03744815814674	43.362934786606
O	-11.005063953130051	14.092497645055886	42.41661754282425
O	-16.921721980100873	16.676823900077196	43.93609396121437
O	-15.087698968195628	14.73011149899016	43.26213596570384
O	-17.231294758214073	15.34577503403408	43.88845153190573
O	-14.24515483507508	13.25270858976412	40.8746852623813
O	-14.44974231053588	11.22902767167467	41.00299901650951
O	-18.335592241142212	13.217738705106996	42.273670677162855
O	-16.43225271149407	14.527478969848818	43.14713658264117
O	-15.192593885287168	12.3403743772217	41.14624668663561
O	-13.055055703135759	12.937411222555324	41.345689637265494
O	-16.99679193834507	13.440613578145204	42.4045278616839
O	-16.46725454599366	12.341344763481636	41.79458196833194
O	-11.836591297379918	13.789828654275846	41.329644344380576
