31

O	-10.374299327340601	15.296571119579548	41.16928402549283
O	-8.07254828218218	16.536027343060734	41.864884097876995
O	-6.565663298712287	17.41514635934555	43.86893944567978
O	-11.791427426276137	17.168553865437723	41.99886887926873
O	-11.85404668360639	16.0214991190155	41.231660935431464
O	-13.152322000236765	17.220983210289713	42.6834066814412
O	-14.026974918936146	16.518320569261434	41.836844913645734
O	-12.984062492478806	16.36238581874633	43.93328431652893
O	-12.950404648143993	17.152475638343258	45.06821642086299
O	-14.204628838382009	15.48777490677745	43.94130801022781
O	-15.121797402350353	16.073369964395166	44.79225388355689
O	-14.60102383981939	15.478067071086983	42.50124384416829
O	-17.537229113509675	11.271832843139771	41.58056846492762
O	-10.13238912377212	14.535994038185262	42.42855774841571
O	-6.743702789219813	16.14885639219515	41.34529136847694
O	-6.6323209494864095	15.967406202752862	44.23418652437938
O	-17.891380153986375	12.463582728943917	42.06013764041364
O	-10.42018753213928	14.141092537717675	39.9847258131473
O	-8.311331763790033	15.38405350584966	43.02411987217337
O	-6.742545417467655	18.348241096914837	45.181258270664806
O	-17.00475464975926	13.434551352176754	42.387941897587304
O	-7.917503453642167	17.9474331191566	42.867738290818856
O	-9.364315099567861	16.58820831786278	40.900743964733934
O	-5.181847606237072	17.489522139964453	42.97261653815719
O	-15.731420517971916	13.336390256807503	41.946404975701185
O	-15.414911970022134	12.141539013438111	41.311899660370074
O	-16.295806157545716	11.09900750132494	41.13961041681065
O	-15.963252962812987	9.866418420783795	40.54291802999736
O	-14.15833864061698	12.225919145918995	40.902562696601684
O	-13.679328213522625	13.404351822510428	41.373938831865715
O	-14.660872413084373	14.178300368035991	41.89751302021738
