28

O	-18.445003218089873	14.841998998585574	43.48442898352794
O	-17.305391704262604	15.499658585915522	43.97305258240089
O	-16.669277156973607	13.990482613397583	40.772408771409125
O	-16.161372624108164	14.800949508727701	43.810864737785266
O	-15.874757366701772	13.537057266645668	43.618278151184775
O	-17.06170237756126	13.017794156675636	43.59612445561804
O	-18.37195203038656	13.490126802093538	43.828257976921854
O	-15.5406993783576	14.07005137624206	39.9311422588023
O	-15.043614185274013	15.183226273669304	43.278947521107554
O	-14.142660807067797	14.436117149624044	43.016503291096804
O	-14.53577915025547	13.269252199675496	43.15355609019839
O	-13.821658370326293	12.314126455568655	42.259180690387765
O	-13.811697818612103	14.717776795808534	41.65456230734987
O	-14.275126487647157	15.946978017915999	41.44944926816772
O	-13.315724619366943	16.47853548771804	40.595274754277476
O	-12.024146956740893	16.165037511689473	40.89506565745598
O	-11.774453840156596	14.806522637194782	40.717611264381475
O	-12.677855855624346	14.321732156995294	41.68817981824506
O	-14.424709149854781	13.502175056629378	39.26485065588946
O	-14.690007309313348	11.382537138378167	41.87241631700067
O	-15.839691922101018	10.997480765592453	41.382311537291805
O	-15.537270834148606	12.183993244551521	40.90240583369787
O	-14.272921335743687	11.867253397354219	40.41060717025621
O	-13.178534596836469	11.916697351014115	41.22857204775412
O	-17.14669855666559	10.73615124904703	41.19230229559609
O	-17.718979409954223	11.984585577376457	41.331891441116184
O	-16.66889539370606	12.620695716963416	40.90032072008872
O	-17.490721121590674	9.46528669081331	41.53000907564973
