84

O	-0.9160362824137931	0.5689369862068963	-1.9750408325344826
O	-1.9841214864137933	0.3502304455068962	-1.1735423655344828
O	-0.7307276744137932	2.022285823206896	-1.4688250885344827
O	-2.9959101124137932	0.9875505142068961	-1.6329794295344828
O	-3.020757532413793	2.2243250832068964	-2.331678682534483
O	-2.2254800734137934	-0.32628555179310387	-3.7015738375344824
O	-2.025147825413793	2.858764723206896	-1.6620193075344827
O	0.013017047586206809	-1.3540149767931038	-1.5435236495344826
O	-1.6447504484137931	-1.130171956793104	-5.127353007534483
O	-0.8452144474137931	-0.5937994837931038	-0.9072651015344828
O	0.4713478775862068	-3.601035436793104	-1.7844380995344826
O	-1.0238109404137932	0.2701506668068962	-3.234780897534483
O	-2.6322009424137933	-1.622528936793104	-4.182047917534483
O	0.8227201775862067	-2.326782736793104	-2.2789806985344825
O	0.16476773758620689	0.2667817988068962	-3.6269021675344826
O	-0.9874041864137931	-3.3800811867931038	-2.0965228075344826
O	-1.6408191854137932	-2.3141056967931037	-2.5680744575344825
O	-2.662346292413793	-2.4135156667931037	-2.0081288675344826
O	-0.8872922554137932	-2.771903636793104	-3.744753077534483
O	-0.43979592641379317	-2.100321966793104	-4.629611567534483
O	0.8306419675862069	-4.258528386793104	-2.9936832175344827
O	-1.4585550244137933	-4.542326336793104	-2.774912867534483
O	0.11765752758620684	1.3506297632068962	-0.6995335005344827
O	-4.267700262413793	2.875850133206896	-2.2601986065344826
O	-5.248520442413793	2.368790693206896	-3.1752101275344824
O	-2.8320205724137932	-2.748442096793104	-5.034343277534482
O	3.6639873675862065	12.445799263206895	-7.138771827534483
O	0.10920551758620678	11.154258263206897	-7.507874707534483
O	-0.8226630594137931	7.762992413206896	-8.960327207534483
O	-2.5603150524137934	5.438212773206896	-6.714927217534482
O	-2.3683409024137934	1.910470943206896	-8.167130177534483
O	-0.47382863541379316	-0.48406556979310383	-10.531271817534483
O	0.11964088758620695	-4.289389596793104	-10.486084577534482
O	2.7645160175862067	-6.984638686793104	-10.966715557534483
O	4.449352827586207	-5.428466736793104	-7.9528727475344825
O	5.058439487586207	-2.358468676793104	-10.021954587534482
O	3.280722187586207	0.9760572852068963	-9.654536277534483
O	2.6761246475862066	2.989893953206896	-6.480990067534482
O	2.310384347586207	6.696132993206896	-6.226877027534482
O	1.533738467586207	9.130292863206897	-3.4526346775344825
O	4.230058857586207	11.749570663206896	-2.848665957534483
O	3.985440707586207	8.999468653206897	1.6630211924655172
O	3.691447937586207	6.116573223206896	-0.6867923595344827
O	6.297862717586207	5.038143283206896	-3.195758457534483
O	6.574139427586207	1.7786756932068961	-5.116167777534483
O	8.735957127586207	1.6439501832068961	-8.205541187534482
O	10.227391227586207	-8.344504486793104	0.7791046024655175
O	13.041942727586207	-5.909592566793104	1.5173769724655173
O	3.674981477586207	-2.0937708467931038	6.373207542465518
O	7.135939377586207	-0.6684223697931038	6.730843612465517
O	9.962753527586207	0.5445514962068962	4.525190762465518
O	10.859655627586207	4.119315753206896	5.456434632465517
O	10.529255827586207	1.634042013206896	-1.9279574965344826
O	9.106304527586207	4.318069153206896	0.3663630224655172
O	6.333341367586207	2.947717373206896	2.6049520124655174
O	3.3101076275862065	3.846004993206896	4.734961002465518
O	0.6253593375862068	5.788924673206896	2.8421117824655173
O	-2.9260269624137933	4.392331183206896	3.216900492465517
O	-6.365718302413794	5.352506063206896	1.712256262465517
O	-7.526038552413794	2.024769883206896	0.27647460246551736
O	-7.345533002413793	-1.794188936793104	0.7522544424655171
O	-9.746670622413793	-4.474050396793104	1.7167665524655173
O	-10.220892722413792	-5.557244266793104	-1.9145770275344827
O	-11.475435372413793	-2.0989274267931037	-2.969254387534483
O	-4.929453132413793	-8.989192046793104	10.852602442465518
O	-2.708395002413793	-13.176398636793104	2.4686739924655177
O	-5.781737812413794	-11.788721736793104	0.7039762724655174
O	-7.9462617224137935	-8.608926586793103	0.7367162524655171
O	-5.776020112413794	-6.733062606793104	-1.7208832395344826
O	-2.799413592413793	-7.323212286793104	0.6346749624655172
O	-4.555883512413793	-5.634183226793104	3.5116761924655178
O	-4.398182832413793	-1.829878626793104	3.5456806324655172
O	-6.544490632413793	0.5708695502068961	5.418330832465517
O	-6.399775192413793	4.271925413206897	6.126434362465518
O	-9.311832492413792	6.662309583206896	6.658759192465517
O	-9.749760292413793	5.5431145432068964	10.272872642465517
O	-9.553683022413793	1.8812232532068962	9.362145742465518
O	-6.1122549024137935	1.136580981206896	10.789574642465517
O	-4.931223862413793	-1.947810516793104	8.911558342465517
O	-1.460111995413793	-2.997486566793104	7.697192242465517
O	-0.3763774194137931	-6.2447416967931035	5.983478782465517
O	1.7123249575862067	-5.650079816793104	2.7902616424655173
O	3.316690557586207	-7.457845606793104	-0.19337977753448277
O	5.8492540175862064	-9.997477836793104	1.3091174824655172
