31

O	-10.554714145253467	14.972584629096481	41.198040306274784
O	-8.166290432559872	15.860368640423623	41.3456398748935
O	-6.479435919151226	17.152618655686858	42.53570512459941
O	-11.765901157052683	16.973397361700275	41.92837159824388
O	-11.922085228088584	15.8644289234915	41.08143347973746
O	-13.14345216737746	17.05551700618169	42.58431046375464
O	-14.057678550192598	16.37021828439484	41.76408950058689
O	-13.011688002513141	16.223206853075524	43.85489845957785
O	-13.012589728935938	17.002729634644457	44.997194663337716
O	-14.208682587518496	15.314350382590773	43.853208708468884
O	-15.167687227669896	15.902761409415403	44.657736909433744
O	-14.599486849270354	15.309983486727722	42.41283868613666
O	-17.626197202530804	11.240510052855537	41.4867133744929
O	-10.247921513036312	14.651468307665306	42.60565471848726
O	-7.041437124723674	15.312689034093147	40.602776606742836
O	-6.43793043223156	16.004693180337874	43.455068403498736
O	-17.948667618759416	12.439997787355818	41.96287427903236
O	-10.456434397017818	13.602886773531814	40.295594035951446
O	-8.173323680024724	14.947924317335255	42.73349411721462
O	-5.527535089620646	16.687220833495445	41.271366587584204
O	-17.03238201630696	13.34938621647925	42.289330868407134
O	-9.503939269701476	16.06548978965538	40.49445779000052
O	-8.054594805633558	17.391360249980323	42.022199824964375
O	-6.353833631461532	18.568842724132097	43.26774448368043
O	-15.788076628354048	13.252269800004397	41.792303490018
O	-15.487106750122553	12.034168145859143	41.18873897637433
O	-16.404331644195736	11.028971770592626	41.017545033778276
O	-16.08106194152788	9.826981378678088	40.37275008064759
O	-14.225842530445071	12.062969115717864	40.78908792445256
O	-13.73437048349388	13.245701119261808	41.23677383780047
O	-14.667636214013786	14.024900915238378	41.79032526769418
