90

O	2.0276554838214285	2.6467182852553575	0.40075499594642816
O	1.4368545338214282	-1.1998479947446425	0.1935945039464282
O	-5.727541156178572	-3.3487541547446424	-1.1618865430535719
O	-2.6181913061785718	-0.3764016147446425	2.085939247946428
O	-3.0984220361785715	3.6299585252553577	-2.072551642053572
O	1.4854846838214284	0.2140345252553575	0.6024056079464283
O	-0.6592528461785716	2.8353866452553573	-0.0684514240535718
O	-2.3387359621785717	-3.3627275447446427	0.6570432279464281
O	2.5187214638214286	1.2542956814653574	0.4859635979464282
O	0.6681909738214284	1.8765493202553574	-0.8571726060535718
O	0.7568239538214283	3.0406178952553575	-0.04100000105357182
O	-4.012674406178572	-1.9565901547446425	-0.2751239540535718
O	-1.4766416881785716	2.1501135262553577	0.6922038779464282
O	-2.2200327801785718	-0.6694271047446425	-1.5943693720535719
O	-2.7354510461785715	2.935212565255357	0.47357020794642823
O	-4.0719536761785715	2.4250906552553575	0.7282066579464282
O	-4.279135786178571	1.2968477666553575	1.3535312879464283
O	-3.330991666178572	0.8556636632553574	0.4117572569464282
O	-2.0614512731785717	0.9432210362553575	1.0813503779464284
O	0.34428082382142833	0.8830147672553574	0.11664945294642814
O	-0.5701692901785715	0.06896932525535737	-0.5507776881935718
O	-0.6053759931785716	-1.3446871447446427	0.035647234946428186
O	-1.8680033161785716	-1.4413397847446425	-0.5558853941535719
O	-2.7720684361785715	-2.4349206747446424	-0.1824885770535718
O	-4.365035756178571	-1.5007423047446424	-1.556901712053572
O	-5.521955046178571	-2.3219595947446425	-2.034124932053572
O	-4.821706906178571	-0.1218060847446425	-1.5081026460535718
O	-6.133645556178571	0.3704430742553574	-1.2153857960535719
O	-6.236662736178571	1.7916049522553574	-1.0626238960535717
O	-5.602192256178571	2.940459225255357	-1.720214142053572
O	-4.302387616178572	2.428707315255357	-2.224810252053572
O	-4.262708366178572	1.0192595202553574	-2.096492472053572
O	-1.2224726621785715	0.21030717525535736	-1.8111968820535718
O	-4.6568399761785715	0.060931265255357525	1.412503077946428
O	1.7316856638214286	6.909210005255357	12.58004695794643
O	0.29943967382142844	8.913108145255357	9.649181957946428
O	-2.826843846178572	8.037100855255357	7.657422577946428
O	-2.3667853821785716	7.256854405255357	3.974326617946428
O	-5.398359476178571	5.447536055255357	2.650096277946428
O	-8.38873538617857	3.2697264152553576	3.4838832579464283
O	-10.423064826178571	0.6545067062553575	1.6226919979464283
O	-11.906735926178571	-2.823070524744643	1.874518687946428
O	-8.416218446178572	-4.153179994744643	2.564028947946428
O	-8.41808790617857	-2.1305096747446424	5.739177947946428
O	-6.496138156178572	1.0653505812553574	6.4710384379464285
O	-2.8129781361785717	1.8521379102553575	5.844708767946428
O	-0.6965413341785716	4.281373725255357	7.7836770079464275
O	2.842379563821428	5.560137475255357	7.464037687946429
O	5.0264223338214284	4.8594159952553575	10.520560557946428
O	7.333241423821429	2.2038029772553576	6.592186437946428
O	3.6948222038214285	1.4286284722553575	5.544254077946428
O	1.3207826238214282	-0.5151615247446426	7.742201027946428
O	-1.9593486231785717	-2.139379704744643	6.8579023179464285
O	-4.350725256178571	-3.0512140747446432	9.72786305794643
O	-6.7311073861785715	-5.8987845047446426	8.906968057946429
O	-5.800026636178572	-12.210188054744641	4.072160497946428
O	-1.9656207401785717	-12.516781354744642	0.3278131109464282
O	0.24859543382142846	-13.422443054744642	3.281045807946428
O	5.443524143821429	-5.364061554744643	-2.650691712053572
O	5.853173763821428	-8.087289944744642	3.8365162279464284
O	8.563916183821428	-6.874899004744642	6.156946407946428
O	1.0442547438214285	-6.081592644744643	7.817864447946428
O	4.179566073821428	-4.017954954744643	7.433934957946428
O	5.196755583821428	-3.3799377847446426	3.886489407946428
O	7.229739553821428	-1.1054173247446426	1.538030087946428
O	6.207602203821429	2.6083425152553574	1.8782291979464283
O	5.394830093821429	4.388923305255357	-1.4041823600535719
O	4.305821983821429	7.936505945255357	-2.3696978420535717
O	1.1048646038214285	7.115611845255358	-4.354816602053572
O	-0.47432000817857156	4.679387855255357	-6.792112042053572
O	-1.2530495931785717	4.690911415255357	-10.499792112053571
O	-4.950615636178572	5.370629285255357	-9.778510082053572
O	-4.196982106178572	8.625591395255357	-7.936885372053572
O	-4.584393906178572	-5.945568974744643	-11.495599642053572
O	-5.5971112761785715	-2.3310511047446427	-11.882054042053571
O	-4.046339436178572	1.1345121862553573	-11.439691942053571
O	-4.876360036178571	1.2427248429553575	-7.688306112053572
O	-2.9286726761785715	-1.9568628447446426	-7.207238552053572
O	0.2176684738214285	-0.4425505247446426	-8.74015235205357
O	2.2700515938214285	1.6873573802553574	-6.319907822053572
O	4.864407413821429	4.265590645255357	-7.138650232053572
O	7.410462863821428	6.122151335255357	-5.092681422053572
O	11.244827973821428	8.319503825255358	-8.43640580205357
O	9.728908673821428	2.8226802152553576	-9.051760242053572
O	6.658391963821428	0.5872925262553574	-9.25521284205357
O	5.473603783821428	-2.3373469347446427	-7.094893472053572
O	2.4072908438214284	-4.573354754744643	-7.549817902053572
O	0.3206963138214285	-5.061070984744643	-4.447333622053572
O	-2.9829265861785714	-6.5270057847446425	-3.067888302053572
O	-2.7696390261785715	-10.389928654744642	-3.785520392053572
