83

O	-1.2915040941219518	0.12691166129268305	2.7948292442439024
O	-0.6719682991219517	0.522085431292683	1.2295703442439028
O	-0.4048889461219517	1.8115490012926831	0.7110297442439029
O	0.0822151668780483	1.938083681292683	-0.5480591217560971
O	0.04521065087804832	0.8541633512926832	-1.2720070793160971
O	0.38862840287804823	0.7803199812926831	-2.682434375756097
O	0.48713962287804824	-0.557157700707317	-3.1916904357560973
O	1.3757134828780482	-1.155690341307317	-2.204014903756097
O	2.4282917328780487	-0.8019235737073169	-3.1855181157560972
O	2.5280352128780486	-1.662518316707317	-4.249765035756097
O	1.4123426528780485	-2.339822928707317	-4.523072725756097
O	1.6765095328780484	-3.762965548707317	-4.2652858657560975
O	1.6795183028780485	-4.967440928707317	-4.043202095756097
O	1.1553990128780482	-6.042118158707317	-4.971820775756097
O	2.258770752878048	-7.049793568707317	-4.875379725756097
O	2.3471946428780486	-7.254098828707317	-3.455600625756097
O	1.3507985228780484	-7.970832548707317	-2.801552955756097
O	0.6981742628780483	-8.758040688707318	-3.499771555756097
O	0.8279938328780483	-7.919598678707317	-1.538781903756097
O	-0.00969700712195165	-7.218918248707317	-0.847070181756097
O	-1.2126198961219516	-7.352152658707317	-0.05327624575609713
O	-2.0778498771219516	-6.180834738707317	0.13025678424390286
O	-2.5311269971219517	-5.756907778707317	1.444609244243903
O	-1.5725669241219515	-5.478415478707317	2.5192562642439027
O	-0.3194392741219517	-5.151677648707317	2.1589089642439028
O	0.5374788028780484	-5.761704178707317	1.204718154243903
O	0.4182466828780482	-5.979932778707317	-0.16546644575609704
O	0.33222054287804825	-1.570128133707317	-4.073714045756097
O	-0.12926651812195167	-0.332824377707317	-0.722391960756097
O	-0.07912480012195167	-0.500110307707317	0.596550614243903
O	0.10981054587804828	-1.950029411707317	0.7526093742439028
O	-0.6283404941219517	-2.850420618707317	0.05037854424390287
O	-1.7141810791219516	-2.591213498707317	0.8108152242439031
O	-3.0549786771219516	-2.766001178707317	0.566842124243903
O	-3.1494545571219517	-3.116540558707317	-0.719367355756097
O	-2.0917515371219517	-2.818733658707317	-1.6269005557560972
O	-0.7507919993219517	-3.014010438707317	-1.300941681856097
O	-0.16870544912195173	-4.088410768707317	-1.8340496997560969
O	-0.9849093391219517	-4.905303088707317	-2.7514686257560967
O	-1.1798240331219518	-4.200426858707317	-3.816879745756097
O	-1.3129572831219516	-6.218854448707317	-3.165612805756097
O	-2.4987304371219516	-6.982932418707317	-3.079849965756097
O	12.809587082878048	1.617904801292683	0.9590803742439029
O	11.006237982878048	-0.45789413170731696	-1.705499362756097
O	9.08842625287805	-3.578730128707317	-0.8116105587560971
O	5.4044384828780485	-3.326386028707317	-1.795921214756097
O	3.6799202028780487	-5.999941998707317	-0.21214016575609707
O	3.3009097428780487	-8.463582338707317	2.9410716642439025
O	0.3942215128780484	-10.044432868707318	5.0829678242439025
O	-0.9514984041219516	-6.966448048707317	8.863684084243904
O	2.8097558228780484	-6.976325018707317	8.514654364243903
O	4.7824056228780485	-5.729409448707317	5.555051434243903
O	4.485985372878049	-2.479238408707317	3.6072521742439028
O	7.431638302878049	-0.723068509707317	1.9336982542439027
O	7.660719432878048	2.461599541292683	-0.18209813575609712
O	10.084201482878049	5.048643921292683	1.181104264243903
O	7.538358272878048	9.223250961292685	-1.1658899587560971
O	5.356470002878049	7.373586171292684	1.347038564243903
O	4.154219002878048	3.9323091312926834	2.4299742942439027
O	5.391394302878049	2.324796041292683	5.621986684243903
O	3.8985734628780486	-0.610746102707317	7.435869094243902
O	3.6335360828780487	5.828056731292683	7.934449574243903
O	0.6088853228780482	6.109568811292683	5.678116104243903
O	-0.6283777801219517	7.444041721292684	2.3907115842439026
O	1.2147079928780482	5.878944291292683	-0.548579789756097
O	-1.0067708031219518	4.469834261292683	-3.3452015657560974
O	-0.4359428091219517	2.400880731292683	-6.556199135756097
O	-2.693167427121952	-0.503504650707317	-6.232359665756097
O	-6.1146872271219515	-1.552425853707317	-4.657646115756097
O	-9.30122819712195	-2.897018228707317	-5.932326965756097
O	-8.396306437121952	-6.603303478707317	-5.4784999657560975
O	-5.221968027121951	-6.332140448707317	-7.597798395756097
O	-11.552046517121951	-5.005490678707317	-2.475971675756097
O	-8.203385257121951	-5.638613038707317	-0.915031379756097
O	-8.897109907121951	-2.982108118707317	1.622150244243903
O	-9.635288597121951	-0.31123195770731704	-0.939692040756097
O	-6.652565177121952	1.6691556612926832	-2.258841014756097
O	-6.336733227121951	3.6925215812926826	-5.4506058457560975
O	-3.5898482171219515	5.896955961292683	-6.954530285756097
O	-2.6805978971219515	6.348225761292683	-10.607917055756097
O	-8.051356407121952	6.525271641292683	-9.325816575756097
O	-7.415592087121952	0.8111727712926831	4.724430484243903
O	-6.9701213371219515	-1.874681007707317	7.3268858042439025
