11

O	-13.866909516765194	10.81054869472405	40.31012251810902
O	-14.746921597126947	10.263627095478427	41.070045884959505
O	-14.432249912091919	8.957720945898732	41.24529268929256
O	-16.041973094530768	10.727046362075855	41.616488747599455
O	-16.453316125698034	11.895697941302622	41.520931820701605
O	-15.424700002495687	12.574465694062042	40.842030738347354
O	-14.112196106048176	12.203581771307487	40.20374928618094
O	-12.722046913570837	13.134251989007627	40.103597680447706
O	-15.202032508847129	13.627043065786516	41.50359964305989
O	-16.317434695372985	13.88564086306378	42.28592905321385
O	-17.089543620656947	12.9620304363937	42.18842282451043
