20

O	-12.785240810385234	17.039836111908066	43.419168213259226
O	-12.349017846229987	15.795473181492792	43.00591632099776
O	-14.304690478958673	17.040769767065548	43.27604178830264
O	-14.734831451822242	16.422797020719067	42.12270241526862
O	-14.73235185570472	16.15128886305551	44.408338293312625
O	-15.249726116997202	17.003139576805477	45.39983614720632
O	-15.699682299899175	15.163893296444428	43.87191839371031
O	-16.916120944782474	15.617021136750994	44.329191931642356
O	-15.648900921153757	15.456465888617467	42.40060917438114
O	-17.85701633751895	11.15844908972708	41.173261331904285
O	-18.401363635805357	12.17938569011538	41.82042234460717
O	-17.64460284705533	13.230945372388959	42.10608294269477
O	-16.353729430390697	13.230801784608992	41.73427234178654
O	-15.805421516985517	12.20817388297618	41.01123148490354
O	-16.641667143542072	11.1891920551184	40.65298037056359
O	-16.08187047252304	10.027758339545207	40.132042314441456
O	-14.480585687521287	12.491952345295578	40.85713344772244
O	-14.26013071601739	13.773487362699237	41.26666359158125
O	-15.427092822891876	14.191066273347989	41.75808269462791
O	-13.094387450825662	11.35303478553504	39.799677554363385
