32

O	-13.14503566326164	15.643090670781316	40.20411378391315
O	-14.338203371459393	10.387145095485085	40.45923340353919
O	-15.600344132289381	11.141562168306333	40.57308251845487
O	-16.920658768141852	10.8928532326774	41.152024843519435
O	-17.650237230307496	12.038077891371815	41.71913017070432
O	-17.056098960647105	13.09813470027485	42.43434042442894
O	-16.377050748609086	14.33556036633417	42.1843436928969
O	-15.098728436328145	14.685210220154351	42.404630603807625
O	-14.981262989877175	15.085278987995927	43.843336885608245
O	-14.814024016372443	16.549288920792435	44.12780818715758
O	-14.733594580826736	17.157067585104322	42.806755304543664
O	-13.62884942500824	16.268522685769895	42.198371398996436
O	-14.334748932745145	15.326993051872488	41.33956710667611
O	-15.818850527524818	12.45151282698651	42.64297774939944
O	-15.242471844319333	12.465646996466317	41.27993684622661
O	-13.85016231228179	12.36555909765303	41.49800185131236
O	-13.054867908218052	12.527435329088753	42.712781458672644
O	-12.14141101955597	13.386116770040823	42.22999375685578
O	-12.012476825141096	12.975214433730388	40.917197261639764
O	-13.053472058742745	12.248487752409387	40.249750917171724
O	-10.647784190814507	12.790002891380704	40.55988170100486
O	-10.604643789767032	11.830502254555574	39.59326567735913
O	-10.242008832325624	14.016251798525332	40.089080287613285
O	-9.433860514682978	14.71240137048311	40.95834084931022
O	-8.351516607400221	14.097461276618205	41.73970966668267
O	-8.797554034340823	14.146690007944978	43.04535548634452
O	-10.269946796489036	15.59583820086901	41.700058071657715
O	-10.527375654144489	16.97183874600319	41.51251871043239
O	-11.441988679162648	17.74361702866034	42.347088602897315
O	-11.653640843139957	17.68031879238832	43.765760678356735
O	-11.608219419011911	16.177257813623953	43.82922046910551
O	-10.651306879292004	15.433135672748021	43.041471475003725
