69

O	1.9125715029999997	0.20748689681071408	0.8025955745000004
O	0.8814933429999999	0.892780308810714	1.6929376165000003
O	1.674481263	1.761833041810714	2.5603031165000005
O	1.1738478529999998	2.7670070018107142	3.3009966465000002
O	2.982781953	1.311982656810714	3.0839031765000002
O	3.565450463	2.441860411810714	3.6818755565000005
O	3.869588503	0.5715974698107141	2.1773292565
O	3.254397913	0.972504642810714	0.8235057005000004
O	4.813643153	-2.100765658189286	0.35723221350000034
O	6.025612353	-1.443879278189286	0.29288886850000034
O	3.671435623	-1.247650378189286	-0.24126478549999966
O	4.824402453	-3.372002488189286	-0.18141326549999964
O	4.150965103	0.14963358581071412	-0.05031818769999964
O	-3.8218884870000003	10.242341621810713	-8.495813133499999
O	-3.0715884370000004	11.545364931810713	-5.0042591635
O	0.24728726999999995	11.145965631810714	-3.1823794034999997
O	0.21259679399999992	9.085113901810713	-0.006375654499999644
O	3.7779016829999996	8.097115991810714	0.8722074975000004
O	7.293976163	7.410621991810714	-0.3977317004999997
O	10.230880723	5.191221891810715	0.5209625555000004
O	12.792687723	2.692761501810714	-0.7362687084999996
O	9.918659723	0.5561833236107141	-2.0130157035
O	9.053023213	3.424203981810714	-4.3506710635
O	6.126148113	5.829575691810715	-4.0055664135
O	2.463541683	5.059030911810715	-3.3455856534999997
O	-0.4351334170000001	7.150700791810714	-4.6230134735
O	-4.191199607	7.006887691810714	-4.2076737635
O	-6.161121427	6.679296421810714	-7.4463368935
O	-10.335119977	2.765528161810714	-10.552942823499999
O	-7.235604407	2.2462784618107143	-4.7684094135
O	-3.5493092870000003	2.434754581810714	-3.8543054434999995
O	-0.808638865	2.2478092518107142	-6.4609411035
O	2.874572293	1.664296921810714	-5.9900550535
O	5.340941393	2.6144981818107143	-8.690960303499999
O	8.562512123	0.5906837678107141	-8.7123650835
O	6.689237632999999	-9.729944768189286	-3.0796428534999998
O	4.771594603	-10.276870868189286	-6.3070618335
O	1.174818283	-11.686043968189287	-2.6747219534999997
O	-2.626271987	-9.418045808189287	4.2759955265
O	-2.3909190170000003	-6.744552098189286	1.5949616265000004
O	-3.2583438470000003	-7.979457398189285	-1.8565601334999997
O	-2.249395167	-7.1989655281892855	-5.4170376135
O	-5.372225607	-6.3666449181892855	-7.4264139635
O	-3.6900140670000003	-5.313056668189286	-10.6681947235
O	1.3228069529999997	-2.556064518189286	-8.3378675435
O	-2.3327255470000003	-1.934060548189286	-7.5028577735
O	-3.202783417	-2.831950018189286	-3.9097100934999998
O	-5.678474577	-2.294073868189286	-1.0810161534999996
O	-6.074731237	1.372055519810714	-0.16161313449999964
O	-5.8493652570000005	2.148683761810714	3.5484337565000006
O	-5.921735817	5.337817641810714	5.6478318565
O	-2.668984157	5.094505361810715	7.5957279465
O	-0.13373083900000007	2.705529291810714	9.146693736500001
O	7.535834693	-6.891979448189286	10.517800476500001
O	7.343250853	-3.4061695481892857	12.0015487765
O	5.257171913	0.9571880408107141	9.113938326500001
O	4.476407903	-2.394082958189286	7.5132800065
O	1.102887123	-2.634043098189286	9.2602243165
O	-1.686299887	-0.6856725281892859	7.5249373965
O	-4.992600307	0.3855286556107141	8.9487793065
O	-8.176829367	1.801112731810714	7.4651511164999995
O	-10.678359177	4.152613611810715	9.1059870165
O	-8.956409597	-3.199951098189286	9.9430671165
O	-5.288566777	-4.146597488189285	9.661821146500001
O	-3.2712603870000003	-5.581524068189285	6.7520170465
O	0.36103923699999996	-6.7061721081892856	6.7119898765
O	2.344385423	-5.362489108189285	3.7364831265000005
O	5.872030743	-5.395068178189286	2.2633943965000003
O	6.963435693	-8.901789618189287	1.5441337765000003
