71

O	1.417225743403509	-0.9127281483087722	-0.4986562439017544
O	1.483093953403509	-1.5628977683087721	-1.7531535957017543
O	0.14348272340350898	-1.1790325083087723	-2.006219185701754
O	-0.494690492596491	-0.5985899383087724	-1.1023205807017544
O	0.36277195040350896	-0.0621252053087723	-0.24914738770175443
O	0.08089646340350898	1.0070739776912276	0.4993760742982456
O	-0.18552134359649103	2.0332824216912275	-0.35581883970175443
O	-1.482448926596491	1.4823844476912278	-0.6492707197017544
O	-1.573627796596491	0.1181337316912277	-1.1712539237017543
O	1.339258663403509	2.162071841691228	-0.7428856857017544
O	2.111099513403509	1.2477037676912277	-1.5129928247017546
O	3.354855463403509	0.7529836666912277	-0.9431500947017544
O	3.286468853403509	1.1758396506912279	0.2067765072982456
O	1.9504351534035091	1.5128538576912276	0.4153279922982456
O	-5.014801706596491	7.739590061691228	-10.298027135701755
O	-5.984107356596491	8.689503601691229	-6.738660285701755
O	-3.609124716596491	9.926604001691228	-4.018568005701754
O	-3.049535646596491	7.643486231691228	-0.9793274217017545
O	0.079609724403509	8.707602421691227	0.8476772842982456
O	3.413186793403509	10.572450031691227	0.5903328342982457
O	6.802187653403509	10.267642961691228	2.3226692842982457
O	9.94028096340351	6.770899091691228	-0.1654321637017544
O	8.03955010340351	8.903397901691228	-2.6795499257017545
O	4.271241143403509	9.138292851691228	-3.1920268357017543
O	1.7306161734035088	6.287880641691228	-3.5845023357017545
O	-1.444180556596491	6.576291121691228	-5.652899525701754
O	-4.360129046596491	4.243425231691227	-6.245531235701755
O	-4.9309288265964915	3.3574859616912276	-9.874462615701756
O	-6.970255176596491	1.1359497576912276	-12.173354445701754
O	-8.328283846596491	-4.640948608308772	-10.534356455701754
O	-7.356723906596491	-1.3941783483087722	-8.823737445701754
O	-3.786559046596491	-1.2426039683087722	-7.571676975701754
O	-1.241686280596491	0.8377931766912277	-5.665798555701754
O	1.582037693403509	2.6333670116912278	-7.414997135701755
O	4.690772673403509	4.162884291691228	-5.886434795701755
O	6.644885413403509	6.721469871691228	-7.793352665701754
O	10.419395463403507	-8.150126438308773	-3.1189400057017544
O	4.542417823403509	-9.504000968308771	2.5017055042982457
O	3.7530444334035087	-6.762938958308772	-0.027268516701754453
O	4.597927783403509	-7.699875188308772	-3.5655834757017546
O	5.744179273403509	-6.0113906483087725	-6.738320635701754
O	3.311905163403509	-6.7588645583087725	-9.556501325701754
O	6.480785543403509	0.24277703969122771	-8.456333935701755
O	3.098331413403509	-1.4347294283087724	-8.731743865701755
O	2.124022873403509	-3.1925854883087723	-5.552727665701754
O	-0.8165800505964911	-4.7280377883087725	-3.6116497357017545
O	-3.453338986596491	-2.0650830083087723	-2.8293661857017542
O	-4.420249826596491	-1.765594228308772	0.8504850242982456
O	-6.964103156596491	0.3569798576912277	2.7839446942982455
O	-4.757389356596491	1.7219510316912277	5.573334034298245
O	-1.6491844065964911	1.0280119216912276	7.682277294298245
O	-1.229138422596491	0.24817045069122773	11.370104354298245
O	0.059130299403508946	3.760590461691228	12.084935454298245
O	-3.138275216596491	5.373078211691228	10.811826854298245
O	3.359902203403509	-9.966556068308773	11.457196754298245
O	3.268909643403509	0.4819708732912277	12.384548854298245
O	3.557531723403509	2.6188406416912278	9.287760984298245
O	5.273292153403509	-0.32103978030877234	7.549038594298246
O	2.354386633403509	-2.628905798308772	8.231572624298245
O	-0.499335773596491	-2.2958520083087723	5.700012394298245
O	-4.066214906596491	-3.5973885283087723	6.275214234298245
O	-7.067840286596491	-4.0530186783087725	3.9792514642982453
O	-10.75135053659649	-3.791685968308772	4.836366604298245
O	-10.80372473659649	-7.305619468308772	6.2931372242982455
O	-7.648950426596491	-6.726758338308772	8.311687974298245
O	-5.316291616596491	-8.902801838308772	6.250924674298245
O	-1.836648336596491	-7.542100958308772	6.974073704298245
O	1.243350813403509	-7.2211531483087725	4.756151044298246
O	4.743195083403509	-6.002900838308772	5.657430264298245
O	6.172476353403509	-3.3496522183087722	3.3269021442982454
O	9.196379143403508	-1.0919954483087722	2.7905691542982454
