74

O	-0.9202473020185185	3.8093180416111103	-4.944857578864815
O	0.23125988598148162	3.20968963161111	-4.471588448864815
O	-2.0726723140185186	3.2701902016111104	-4.1019630988648155
O	-1.9624204250185184	1.9218876646111103	-3.843065298864815
O	-1.8585362200185185	3.9645780616111104	-2.787376798864815
O	-2.8362198540185184	4.97215068161111	-2.714398128864815
O	-1.9377581100185184	2.9440662816111103	-1.714668030864815
O	-3.1719197640185186	3.16304686161111	-1.146302459864815
O	-2.041079094018518	1.6747987476111104	-2.509157168864815
O	-0.8975911910185184	-1.2061442983888897	1.395674121135185
O	-1.9942108240185186	-0.4790190383888897	1.2339424411351851
O	-2.1087132470185184	0.27029392761111026	0.14514222613518502
O	-1.1141206210185184	0.27194055461111033	-0.757841781664815
O	-0.010937694018518407	-0.5247902783888898	-0.625914213864815
O	0.024310975981481464	-1.3538135083888898	0.4591906611351849
O	1.2196268959814816	-1.9977250883888895	0.759648271135185
O	0.8185309259814815	-0.23637216838888975	-1.669112755864815
O	0.14285788598148152	0.5456650006111103	-2.558230938864815
O	-1.0317215300185185	0.7999478786111103	-1.980849908864815
O	2.6455769659814816	-1.1493545483888896	-2.075631718864815
O	-9.55954525401852	-9.42087314838889	-2.9693123488648148
O	-10.503128214018519	-5.741584438388889	-2.8132070388648147
O	-9.130932064018518	-3.0364967983888893	-5.108941368864815
O	-7.059797824018518	-0.3049291483888896	-3.499118118864815
O	-5.135630914018519	1.4782969106111103	-6.245228308864815
O	-3.4616149140185186	1.3380072896111104	-9.612806968864815
O	-0.48922560001851845	2.86225199161111	-11.403937778864815
O	2.5981597859814816	2.1904424316111104	-13.486703978864815
O	3.8054284059814814	-0.1661859083888897	-10.761450868864815
O	0.7554181559814814	-2.2929551583888896	-11.470945078864816
O	-2.3689860860185186	-2.6259284383888897	-9.341117298864814
O	-2.6741244340185184	-3.2276270883888896	-5.604488848864815
O	-5.532353824018518	-5.09299234838889	-3.942976248864815
O	-6.447196514018518	-5.87849403838889	-0.358887595864815
O	-6.782157714018518	-9.57786974838889	0.424297641135185
O	-7.2617091640185185	-12.06953934838889	3.248754781135185
O	-5.606983254018518	-9.07868364838889	5.709404631135185
O	-2.7661874640185182	-7.948587388388891	3.4447405011351853
O	-1.8786611060185185	-5.898514258388889	0.36800086113518493
O	-0.9878447010185184	-7.512202818388889	-2.9449126488648147
O	0.6778845359814818	-5.908006278388889	-5.946847898864815
O	12.60960257598148	-7.14581474838889	-4.705398728864815
O	7.401331125981481	-1.5024639383888898	3.4873376911351848
O	7.694998745981482	-8.17257562838889	1.198424131135185
O	5.933541195981482	-10.94698914838889	3.1247655111351853
O	4.1702030659814815	-9.16050624838889	-4.254271898864815
O	2.560477855981482	-9.47490964838889	-0.831801288764815
O	3.276333355981482	-6.470549448388891	1.3803830311351852
O	2.137073305981482	-4.52275762838889	4.440767461135185
O	-1.4768355130185185	-3.38179683838889	4.236144431135185
O	-2.0423812480185184	0.33873291661111027	4.9379125311351855
O	-5.078938324018519	2.6573504516111104	4.980185171135185
O	-3.8915699840185187	5.537521811611111	2.777849861135185
O	-0.8143910460185184	7.418787941611111	1.4759457911351852
O	0.44494424598148163	10.95027733161111	2.0735681311351852
O	-0.6482804900185184	12.07370775161111	-1.393544454864815
O	-4.2884202640185185	11.12503539161111	-0.748697418264815
O	7.279098255981482	11.73377845161111	-2.727743468864815
O	3.9099739459814815	11.75277855161111	-0.8897778168648149
O	2.4493151559814814	8.95009837161111	-2.932044528864815
O	5.345495255981482	6.73047268161111	-1.917490578864815
O	4.633296445981482	7.26973384161111	1.7613236511351853
O	1.9266943859814816	4.9857063416111105	3.1708936511351853
O	0.04165611598148167	5.46843742161111	6.4355394511351856
O	-2.237929701018518	3.2447975416111103	8.516216811135186
O	-5.155487114018518	4.305225081611111	10.716716421135185
O	-2.833115754018518	5.29046602161111	13.566861821135186
O	-0.5155313720185184	7.20665763161111	11.264233021135185
O	2.3985475959814817	4.771581581611111	11.300119221135185
O	4.316176985981482	5.52982410161111	8.107614601135186
O	6.193952995981482	3.2446433516111104	5.6998393911351855
O	8.27824425598148	4.176289181611111	2.653728581135185
O	7.433374005981482	2.1369844466111103	-0.457919139864815
O	8.357738095981482	1.7919464576111102	-4.131997058864815
