31

O	-10.203030641957584	14.850693238217351	41.03865291966312
O	-7.743329922112395	15.790796533321572	41.256734582697554
O	-6.834237768395839	17.180944847852444	43.104860924899135
O	-11.353187795707576	16.80780232292117	41.933611837881436
O	-11.500762895830412	15.857409926942168	40.907956342165384
O	-12.747215135826819	16.898127672712327	42.54525090808153
O	-13.666448770757572	16.268126396472177	41.74854281138986
O	-12.698673015900093	16.079573460227483	43.83002472069674
O	-12.640509808113208	17.03604792327041	44.85725760463232
O	-14.032865111032486	15.333461706769253	43.86267677470563
O	-14.86053918322552	16.060975651023107	44.68734092452317
O	-14.387415625467629	15.319717439916078	42.41820606289987
O	-17.58043795161459	11.296305939211887	41.68715834953476
O	-9.816775085128752	14.70594077967797	42.45427035330531
O	-7.695706214298319	14.686682430930464	42.302871570853874
O	-6.133903641324911	15.947807350411775	43.446231344434075
O	-17.881077041900085	12.427997168821749	42.286015396804125
O	-10.32078453752223	13.330971828976175	40.40436941718862
O	-6.210360071447658	15.861564342122406	40.770237385670484
O	-7.076971052862601	18.465319919484415	44.014927026221486
O	-16.893486418551987	13.448253673754019	42.53014435830679
O	-8.982725706790898	15.636323568474923	40.25148680373808
O	-8.278597483030836	17.063748958084073	42.27999473352464
O	-5.717042532445024	17.626169202974026	41.88612041525056
O	-15.629107836988847	13.216691242213406	41.999272529016956
O	-15.36714181400228	11.936176314416672	41.315184698977085
O	-16.29508588756993	11.021581036882862	41.10975000511129
O	-16.17619642751287	9.749470432448874	40.53616797371214
O	-13.97544223460755	12.003295540740503	40.962754141892944
O	-13.488160795594064	13.324235809370204	41.328845650043824
O	-14.529555530212182	14.047155665951777	41.92983991497207
