81

O	-1.1526195045344831	-0.8599243524655169	2.7235608577689656
O	0.4333484054655167	-0.740665892465517	0.856376097768966
O	4.025937365465516	1.603550157534483	-2.284198002231034
O	-0.14311661353448324	-1.542231422465517	1.9813664077689659
O	-0.6633334635344832	1.407571881534483	1.687143917768966
O	-1.7738409475344832	5.416140727534483	2.870480027768966
O	-0.9562532216344832	0.5292778085344831	2.7886158477689658
O	1.5842920954655169	3.229961967534483	-1.3941194522310338
O	0.46576545546551673	0.6689556945344832	1.074653367768966
O	2.9353932454655167	3.038751907534483	-3.838291322231034
O	0.9879880354655167	1.7215576775344832	0.17729837476896596
O	-1.8851794095344832	1.1528621705344833	3.648626827768966
O	2.031875705465517	1.121453291734483	-0.711642807231034
O	1.7273741554655166	1.8968327325344831	-1.9982216222310338
O	0.5529788554655167	2.935996977534483	-0.40050509823103403
O	1.2172816554655168	4.102570917534483	-2.463129542231034
O	2.473270075465517	4.289644327534483	-3.3064709122310343
O	2.8738279854655167	1.9212900415344831	-2.945402082231034
O	-1.9226561005344833	2.530596517534483	3.420986477768966
O	-0.8414994315344833	3.282617117534483	2.876237767768966
O	-1.0675093706344834	4.526238957534483	2.106213877768966
O	-2.505139894534483	4.8726390375344835	3.861887277768966
O	-2.4962721945344835	3.4895796575344833	4.3972492677689665
O	6.4574130554655165	-0.2975987724655169	13.345265997768966
O	3.8601020254655167	2.391012037534483	12.680438597768966
O	4.152179325465516	5.052828157534483	9.966903497768966
O	1.6152004154655168	4.9876593975344825	7.328862177768967
O	2.646988995465517	7.009602617534483	4.247099367768966
O	5.6454071654655165	8.443967987534483	2.331202247768966
O	6.499932865465516	9.305035487534484	-1.268783552231034
O	9.081871295465517	8.954734417534484	-4.054227032231034
O	8.704178475465516	5.166994337534483	-3.733061402231034
O	10.064552795465517	5.505555227534483	-0.22152266403103402
O	8.126086375465517	5.242849727534484	3.033314257768966
O	5.684993785465516	2.590387807534483	4.184596597768966
O	5.103364775465517	1.482254292534483	7.765866617768967
O	2.746040335465517	-0.9317472524655168	9.488703477768967
O	4.4502798154655165	-3.7124294524655173	11.465176397768966
O	1.7679133554655166	-6.219346542465518	7.648841567768966
O	2.9811535354655168	-3.329001872465517	5.5408554377689665
O	6.619040565465516	-2.581779532465517	4.8644966377689665
O	8.157011325465517	-0.33255074246551675	2.238553437768966
O	11.732661895465517	0.8459666395344831	2.686709437768966
O	8.300648855465516	-4.082579782465517	-9.518281492231035
O	10.012696895465517	-6.9293348824655165	-7.682417412231033
O	-0.6279157005344833	-6.316235032465517	-4.1651387822310335
O	1.859658525465517	-9.002618762465517	-3.3285645522310343
O	5.375224005465516	-9.274358662465517	-1.954060732231034
O	5.377140905465517	-11.563363262465517	1.081541117768966
O	9.524277095465516	-4.977872072465518	0.7611499607689659
O	6.868512765465517	-6.689254972465516	2.861544647768966
O	3.404673065465517	-6.438848562465516	1.312606667768966
O	-0.3171480095344833	-6.643598772465516	1.9756218277689659
O	-1.4709507005344833	-4.248675322465516	4.676871417768966
O	-4.451371414534483	-2.063638942465517	3.7134320677689656
O	-6.591349474534484	0.5828263665344832	5.507224287768966
O	-6.462483384534484	3.385524497534483	2.820903927768966
O	-6.194520514534483	4.1557355575344825	-0.9389070802310341
O	-8.628090194534483	5.581133297534484	-3.451205332231034
O	-6.839077784534483	8.958671077534483	-3.423319302231034
O	-7.392801184534483	9.431120717534483	0.31740388476896597
O	-9.741112734534484	-2.7083401824655167	-10.914180602231033
O	-2.833153904534483	3.614820097534483	-12.841069202231033
O	-4.328081344534484	6.307730077534483	-10.607193302231034
O	-6.278503934534483	6.566520987534483	-7.315394812231034
O	-3.196999784534483	6.626310077534484	-5.097272212231034
O	-2.1178580345344833	3.3304034475344833	-6.700602382231033
O	-5.350616414534484	1.6346799265344831	-5.6936361822310335
O	-5.450863814534483	0.36885166053448315	-2.092222032231034
O	-8.536504584534484	-0.6137628024655168	-0.10482581403103403
O	-9.024332794534484	-2.3984714724655167	3.208296997768966
O	-11.867938404534483	-1.940412202465517	5.7140597477689665
O	-14.241995904534484	-4.077666242465517	3.6653656177689657
O	-13.340373804534483	-2.3344971124655167	0.42822624976896595
O	-11.324929304534484	-5.1456945524655175	-1.141443253231034
O	-9.082253614534483	-3.416936532465517	-3.6811628422310343
O	-5.492378694534484	-4.133070352465516	-4.755622812231033
O	-3.439310904534483	-2.462310472465517	-7.494384162231034
O	0.06487675546551663	-1.448615422465517	-6.385555522231034
O	3.2137692954655166	0.3051585725344832	-7.594307002231034
O	4.525065995465517	-1.5137239524655168	-10.702772702231034
