20

O	-18.518708075041392	18.20319391049835	44.99869129623633
O	-17.227925317484967	18.34873978264575	44.608407854839896
O	-16.441271993034587	17.241748350100835	44.57430412928636
O	-17.06784635705032	16.081321873618656	44.198963341088444
O	-18.41178193882087	15.958784348856302	44.373058518594824
O	-19.136419109663503	17.01768434735247	44.835300676226865
O	-16.151196881091487	14.941230372780279	44.11159476324128
O	-15.270171537424773	15.015997888634354	42.96199948004825
O	-13.831051702473992	14.991025435991244	43.48859070329501
O	-13.71017997733607	15.888433699871122	44.53529064397249
O	-15.505197159371871	14.36008650477848	41.76117257497557
O	-16.365599544590843	13.249560704120587	41.66044565361607
O	-16.04226166524982	12.292500396960413	40.61229365575845
O	-16.752342120165768	11.01744080932786	40.698349787038836
O	-16.082311535829696	10.19358256743357	40.014179240056144
O	-14.77172934145893	10.732124143347356	39.785615162537766
O	-14.729030865645388	11.919733024451737	40.31962672403113
O	-18.074339914372246	11.097321761088514	41.07449085072309
O	-18.431957398477003	12.172895050943913	41.82370811197161
O	-17.57559667851868	13.21088578561795	42.15815097135684
