33

O	-14.874722019705352	16.587676112594785	41.96636425308132
O	-11.528109940762848	13.797172317572413	42.29632278042869
O	-11.6901296287573	13.753767071961757	40.92261394721216
O	-10.36122777010551	14.333194885684291	42.827159625344315
O	-9.214093258080773	13.904714261119198	41.966030890501386
O	-9.450632593802844	14.594873694013325	40.733116930488386
O	-10.524168795415592	14.013053420106514	40.12035605010352
O	-10.068020911111162	12.754907416130074	39.62673705516512
O	-15.130343795288008	12.749930721454042	41.617710378647345
O	-15.48616175538729	11.484696353499876	41.10471662194763
O	-16.863962968108435	10.983179447663018	41.0429426770666
O	-17.648650120913246	11.445986321871496	42.09404771816303
O	-17.23376417165025	12.695912747338117	42.56442559034848
O	-16.070360786651335	13.48268793477369	42.50527094523735
O	-18.474792477796225	13.297271131031824	42.91335493127831
O	-12.979955080644721	13.11093174050016	40.55111487680479
O	-13.829510906943282	13.451094266306615	41.78052291234852
O	-12.872809579983166	13.955334240861836	42.62645517675145
O	-9.75222956568409	15.799460303401421	41.28846150858018
O	-10.774818533072084	16.441956244466652	41.88335905036675
O	-12.059895199358172	16.560827387599137	41.3062779850874
O	-13.23775140148586	16.915590841069513	42.164846705170305
O	-13.004618410980637	17.724922843571118	43.398811619550095
O	-11.899005608743888	16.89290300666329	43.93559268837713
O	-10.659488421543877	17.17275447800258	43.1522585395011
O	-18.194798501821374	14.634873796037601	43.27352377046625
O	-17.103220296470713	14.673539210465671	44.171975833904014
O	-16.796409884795207	16.00513879349704	44.78396004241276
O	-17.827176276045623	16.633036396902483	45.42426307632209
O	-19.035156741183798	16.444868420507564	44.8342252872401
O	-19.32313438710761	15.2336443629691	44.0247177378988
O	-8.452200761948976	16.21622934492937	42.01783505163213
O	-7.45275827540854	15.273158669548236	41.89109343018952
