32

O	46.34674375581579	5.687581881351588	32.080038290922296
O	46.03379862840683	6.061642787055357	30.72813611553122
O	52.04708452115436	4.549188749641147	30.07710874995331
O	47.013380582232	7.846101093877548	32.02134928404478
O	47.40303358910222	6.670727397785193	31.801292413004337
O	50.54321894760583	7.875947835348974	29.257130509851137
O	45.57955562533912	7.992304278106845	32.20858976655972
O	47.73742913453229	8.86147550189548	31.303908681615326
O	45.1765960646797	7.082691453457957	31.098734228430903
O	45.47375151634796	9.321775895917895	31.792687896994444
O	46.79630405880681	9.787690944293848	31.6522895135266
O	46.85356704083716	11.114186551499776	32.00695070990363
O	45.64501221121601	11.54897156261199	32.715035942687656
O	46.9048689285494	4.4395498102258255	32.051841503893
O	48.23510727636397	4.48732837560098	31.788999591583025
O	49.17481522410403	5.536353935081889	32.190549911853005
O	50.49945340308427	5.554331828546193	31.524042632829566
O	51.12466168365326	4.274137388634588	31.106644491490016
O	50.00729038060666	3.5102550500285927	30.466080335101353
O	48.70478090809276	4.237114326512395	30.4277214217519
O	48.454442932405485	8.501334572342772	30.195402147629547
O	49.78971158298914	8.935630202234575	29.742473346371497
O	49.68690217399014	6.912037036189625	28.691818464782116
O	48.51316113674598	7.160990384474726	29.451092580194526
O	46.24055905553692	12.474987920079148	33.68938436363052
O	45.08992483162419	13.555682953686524	34.32948358856522
O	43.84994302212988	12.61537549201395	34.094371785092505
O	44.299173648838355	13.744175605664342	32.97668437077506
O	45.2238204921294	12.774629919413737	31.97270369904854
O	46.26857499180172	13.405028386817909	31.408315466731892
O	42.72508112967011	13.034404557262851	34.684254865486466
O	47.207840687016784	13.293436923450454	33.195677061817406
