69

O	0.1357636307045097	-0.31583722041176476	0.3658132078235299
O	0.6770232707045097	1.5418566425882352	-0.9454362751764701
O	2.24823350070451	3.2042537695882354	1.6841809358235298
O	0.6121983107045098	0.8866997735882354	0.2729479538235299
O	0.3600849487045097	3.691645339588235	0.8481597758235299
O	2.3982931207045097	2.8765183595882355	-1.3787308141764703
O	1.0862770707045097	1.3695831615882352	1.4410751358235296
O	-0.07278848829549028	1.9734323725882352	-2.4921470241764703
O	-0.4044673032954903	-0.6646156504117646	1.6429665758235297
O	1.07411416070451	2.8263631395882354	1.7034889058235296
O	0.5441718607045097	5.078019299588235	1.1542488058235298
O	0.4419902697045097	0.8042001165882353	-2.18993937417647
O	1.5743179407045096	0.6860527795882353	-3.2027926641764703
O	2.3562836207045095	1.8604724155882353	-2.68013713417647
O	2.7722298007045096	2.8422597095882356	-3.5381192341764702
O	2.3983591007045097	4.1298387295882355	-3.3659631141764703
O	2.3136383107045098	4.501760509588236	-2.0259049841764702
O	-0.11279609429549026	0.8568944945882353	2.5688699458235296
O	12.57360033070451	1.8864640925882354	-1.6634267641764702
O	10.46686003070451	3.794124809588235	0.9402814358235297
O	7.16517273070451	4.850489529588235	-0.4794102941764702
O	5.28735386070451	6.109612849588235	2.50325836582353
O	4.83977407070451	6.088328009588235	6.26172873582353
O	1.8710464907045097	5.4642338495882345	8.49401501582353
O	6.05213340070451	3.363052179588235	10.39694544582353
O	7.654403080704511	2.940152659588235	6.99485888582353
O	6.51144077070451	0.8658979835882353	4.00916686582353
O	8.988974490704509	0.049060169588235336	1.2026056258235298
O	8.457139610704509	-1.1928454904117647	-2.2937641041764705
O	10.599069430704509	-4.096948280411764	-3.3419315241764704
O	6.90891785070451	-9.273807210411766	-9.04016372417647
O	6.93979511070451	-6.094666910411764	-7.024418044176469
O	5.63166958070451	-6.085639120411765	-3.45781074417647
O	5.18741162070451	-3.780818040411765	-0.4766159341764702
O	7.05285896070451	-4.452669050411764	2.7871144358235296
O	5.82298895070451	-3.1135533604117644	6.08319759582353
O	8.02190656070451	-3.0933961704117645	9.12927492582353
O	-5.11558469929549	-5.929046640411764	0.30780436682352985
O	-0.7088877412954903	-10.586366910411765	2.4450368858235296
O	2.0039150407045097	-12.488156610411766	0.5344475558235299
O	4.58004719070451	-7.959655620411764	6.4523234958235305
O	4.91224272070451	-8.449811110411765	2.69586431582353
O	1.8675005407045098	-7.206479240411765	0.78092926582353
O	0.7587134007045097	-6.856706160411765	-2.8011675741764703
O	1.7971671507045097	-3.4962822504117645	-4.2389864541764695
O	-0.5333866222254903	-1.1008371004117645	-6.0617794341764695
O	0.11959844770450978	2.140604223588235	-7.97084447417647
O	-1.2808656372954903	5.065686119588236	-5.90509985417647
O	-3.0626671692954903	6.368880409588236	-2.8430794241764703
O	-6.67615123929549	7.433417489588235	-2.97750602417647
O	-5.40648896929549	10.820068069588235	-1.7403864341764703
O	-3.6102756892954906	11.179132159588235	-5.09688840417647
O	-11.894943769295491	4.106095849588235	6.75630517582353
O	-9.87158840929549	6.969298699588235	5.28289442582353
O	-8.38609840929549	7.703806279588235	1.87540389582353
O	-4.76713092929549	7.5482155095882355	3.01385115582353
O	-5.27711208929549	3.8041235795882353	3.65240657582353
O	-6.98384262929549	2.8525766995882353	0.39299764782352986
O	-4.91481524929549	2.2376497295882354	-2.6874665341764703
O	-5.56165086929549	2.0413621215882354	-6.39896566417647
O	-3.9692811492954903	0.5675068355882353	-9.52152334417647
O	-8.82261499929549	1.4158549415882353	-11.44216455417647
O	-8.767499369295491	-1.6176812204117645	-9.16006871417647
O	-8.984835039295492	-0.6366189404117646	-5.47874794417647
O	-7.97304901929549	-2.221320500411765	-2.1814195041764703
O	-8.473896319295491	-1.2339346004117648	1.4185251258235296
O	-5.40925950929549	-1.5883223904117645	3.50794729582353
O	-6.42929067929549	-1.8915327604117649	7.03381212582353
O	-9.190485219295491	-3.2185991604117645	9.33063882582353
