82

O	-2.0971707732600007	-0.011288954039999854	1.23412826492
O	-0.8592403752600005	-0.17950861403999985	0.6887874349200003
O	-1.1003218022600005	-0.6663390900399999	-0.4987837530799999
O	-1.0901559452600005	-2.07196142404	-0.9377524720799999
O	-1.2529827702600005	-2.83735182404	0.022633554920000076
O	-1.7444797622600006	-2.20278886404	-2.20511653708
O	-1.4883832434600006	-3.25630544404	-3.26679465508
O	-0.040060936260000624	-3.05014132404	-3.4341908850799996
O	0.5097518837399995	-3.22816636404	-2.1111619400799997
O	1.7233930237399995	-2.54762765404	-2.1501735480799997
O	2.4284181537399996	-3.40921363404	-2.97056574508
O	1.8533804637399993	-4.29081309404	-3.94520279508
O	2.5653346937399992	-4.95632624404	-5.08435706508
O	1.9223744537399994	-4.62239766404	-6.3174608350799994
O	1.5374699737399995	-3.19617169404	-6.22658511508
O	0.23141799373999938	-3.38005998404	-5.5801325650799996
O	0.6419481937399993	-3.79120265404	-4.33300400508
O	-1.7333224132600005	-0.9070904440399998	-2.74549024508
O	-2.7573234862600007	-0.45542836603999987	-3.6047516050799997
O	-3.3767899662600005	0.7292743069600002	-3.42105787508
O	-3.0682857762600007	1.6143485559600002	-2.3909098250799996
O	-1.7523673402600006	1.3724047959600003	-1.92998849608
O	-1.4082168374600006	2.21291628596	-0.8166562970799999
O	-2.3660525182600005	2.60073930596	-0.04630160507999981
O	-2.4216376772600006	3.88610174596	0.6688812449200003
O	-2.7891748162600005	4.90986240596	-0.21802248507999988
O	-2.3830574462600005	6.19346806596	0.00042080492000007297
O	-1.7234579072600005	6.40644600596	1.17349087492
O	-1.1754351612600005	5.32964687596	1.87093733492
O	-1.1228047122600007	4.15259021596	1.13382667492
O	-1.4530179357600006	0.02460142896000017	-1.7208947610799998
O	1.5136886237399994	-1.0808247140399998	-1.70987908008
O	9.00752459374	6.85023959596	-10.27309992508
O	6.510085283739999	11.57384468596	-10.98590589508
O	11.202131693739998	2.21190920596	-3.6125952550799996
O	9.24713559374	0.40824881096000015	-6.1967303950799995
O	5.86171315374	1.6329234059600002	-7.61877809508
O	3.1312482437399995	-0.49407207603999986	-6.9291798050799995
O	-0.16508425626000056	0.8399619729600001	-8.05198884508
O	-1.9662828162600006	3.93310410596	-8.71839711508
O	-5.25143764626	5.31450342596	-7.394227155079999
O	-1.6776834612600005	8.82912209596	-7.62906186508
O	1.1616154037399995	6.39803474596	-7.18889574508
O	2.0302592837399995	4.15903704596	-4.23791799508
O	5.678957943739999	2.89627679596	-3.7705860950799996
O	6.845466353739999	-0.10379502603999985	-1.60268891608
O	9.991790093739999	0.5483031179600002	0.3303577849200001
O	10.482142693739998	-3.61617868404	7.77435008492
O	8.788179693739998	-2.97299229404	4.4889247149200004
O	6.327193363739999	-0.09219497403999982	4.20084277492
O	3.98044843374	1.5289091859600001	1.55103667492
O	4.666880323739999	5.18799843596	0.5977477749200002
O	1.7996922337399996	6.93675470596	-1.0282314470799998
O	2.4736242537399993	10.39829668596	-2.56758478508
O	-4.517488726260001	0.40129074696000017	7.35632186492
O	-0.2156948762600006	5.13085740596	9.06896431492
O	3.437211503739999	4.86521768596	10.18605641492
O	4.100405693739999	11.54223478596	1.6215498449200003
O	2.1909403937399996	8.98734548596	3.63277718492
O	4.013684533739999	5.99219626596	4.95836266492
O	1.6651903937399997	3.07678092596	5.60436114492
O	2.0376900137399994	-0.4995528060399998	6.757877304920001
O	2.4880877737399993	-2.83618857404	3.94829620492
O	0.3892724637399996	-6.01495638404	3.0434833049200005
O	0.5742301637399994	-8.55340630404	0.26336644492000016
O	-2.3550109092600007	-8.10268719404	-2.18622109208
O	-5.64062027626	-6.44169409404	-3.24628730508
O	-8.97410826626	-7.89361198404	-2.60229473508
O	-6.617115806260001	-10.33370811404	-6.710307375079999
O	-9.750224586260002	-2.10156630404	-4.97666162508
O	-9.33635543626	-0.2709080510399999	-1.64362994108
O	-9.08028556626	-3.25814319404	0.7305075749200001
O	-5.97718022626	-5.35286394404	1.16174909492
O	-4.905452766260001	-8.68479377404	2.42652899492
O	-1.8510551252600005	-10.52748141404	3.7191869749200004
O	-5.540002796260001	-13.81881911404	5.46220706492
O	-5.502960376260001	-10.69456121404	7.628679334920001
O	-7.38967475626	-7.78061166404	6.018107784920001
O	-7.38255723626	-3.9691805140399996	6.24962852492
O	-9.33205849626	-1.1333494540399998	4.62127226492
O	-7.085963966260001	1.4484204559600002	2.78831768492
O	-9.568503196260002	4.45550536596	2.98040960492
