27

O	46.22751941036435	14.779718736089162	31.401177184407402
O	45.96211113316268	17.430227778410945	31.023276437479275
O	48.368914473836256	13.367742935889593	31.275821738041046
O	47.09820524965252	13.422532395547606	31.78343996925437
O	48.808533796861965	11.996317273899743	30.870083233784133
O	48.6226933400993	11.030854814202767	31.82817066897987
O	48.22386461556594	11.51762540269074	29.574431252503913
O	49.10744421860247	11.68361435600308	28.493127209319255
O	48.06976539124981	10.037182629704054	29.769476705315796
O	49.141886314331224	9.310288147766524	29.222873352277105
O	48.14331336790403	9.881894153022467	31.25084149185958
O	44.841500292681985	6.195456378136709	32.68543683879962
O	45.530208318512095	14.778283561004878	30.082817974585257
O	46.73258872205295	18.646447527061287	30.68643130263007
O	46.10029848881581	6.074054592897527	32.25969417133851
O	45.01707739728288	14.972135488976932	32.536000366087755
O	45.087737643033854	17.695243006231085	32.42692598389531
O	46.751746281179265	7.107174712667716	31.728057607806058
O	44.85621793338289	16.860819817378562	29.823291619505742
O	47.09679370154725	16.21067673451263	31.38829118585407
O	46.36075194297086	8.374201975539453	31.963905935562224
O	45.09708961269167	8.535119244586376	32.50375435300726
O	44.3158900783824	7.41990948307624	32.725697201131354
O	43.06544311913031	7.606113723552221	33.34851256683258
O	44.845428387816135	9.828820731740162	32.71516008270237
O	45.935312219060975	10.480004327583236	32.22330380367879
O	46.85208205846966	9.604789129935778	31.808566879514245
