32

O	45.69431541123732	14.680170627828206	36.45551697510794
O	45.481722089218664	13.30176072056505	35.86644312247819
O	44.130686268362254	12.96622913464934	35.741210162207885
O	43.78555953353547	12.082696192992557	34.71286633809842
O	44.4346901634251	11.946605241161782	33.5430970614299
O	44.22440456753553	10.569969083340332	33.15025559963464
O	45.12969436692834	10.087725676908159	32.19397268063954
O	46.332093037967994	10.078375137399782	32.51544424842812
O	44.619734592859494	8.949555399274882	31.5586678970504
O	45.407448472697645	7.817478101704623	31.243550681427912
O	44.99848530895212	6.616088577253597	31.845005513173604
O	45.920995686612194	5.777599180024294	31.440932045481127
O	47.040360670221716	6.516317350840399	31.50196329208628
O	46.78570265355704	7.802101191470945	31.540951403534997
O	48.30315560251854	5.970920825136471	31.925305700581042
O	49.12900596276337	5.638442133802084	30.85033552018537
O	49.912739508539396	4.496615173909962	30.853289764357704
O	49.81175364608671	3.530772899218962	31.809367594406883
O	48.8009122736411	3.78272993205115	32.66729646000026
O	48.20711514810087	4.981389567129589	32.854018915240935
O	48.41181498818249	2.963071272117877	33.8190510633266
O	49.4923103343378	2.5294391143308808	34.3430041861336
O	47.34262430918915	2.0762121635719266	33.87080635592195
O	47.743963652239444	0.6363734557188625	33.79321460605937
O	47.679370593168336	0.21882654592670647	32.46445376575552
O	48.78646791772189	-0.12577299273424458	31.67417945837656
O	49.982947213436105	0.30844919084800715	32.24971237008598
O	50.09462979370474	-0.2190478470525683	33.524587313466704
O	51.5036236321002	0.244695577068768	33.91114596338489
O	48.97210200567152	0.1834104485054313	34.28720365819286
O	45.727360733945446	12.335990312824341	33.6263291059964
O	46.215298127914764	13.114447681974557	34.69007323060139
