75

O	-2.8497746440599983	1.04481554116	-6.24362999218
O	-1.858252320059998	0.38222134846	-1.7510764921799997
O	-0.9531753550599982	2.10908982416	-1.1245371760799998
O	-1.8483264130599981	0.47436329096	-5.43115806218
O	-1.7444911997599981	1.05885280716	-4.12875538218
O	-2.2387995510599983	2.37589986416	-4.11434548218
O	-2.3562973160599983	3.11617245416	-5.269473652179999
O	-3.009168924059998	2.4008922741600003	-6.26888085218
O	-0.4778418740599981	-2.98465640584	-3.4252779021799995
O	-0.9892452320599981	0.92829301616	-0.7322488131799998
O	-1.5321724390599982	0.13965708016	-3.0768604121799994
O	0.18095180594000193	0.15441034516000002	-0.25001088817999984
O	0.21714896594000188	-1.07214713584	-0.7643328901799998
O	1.271888845940002	-1.89324235584	-0.5168246081799999
O	1.7321999259400018	-1.9209000458399998	0.7999466778200002
O	1.3808343659400018	-0.86002893584	1.6139082378200003
O	0.5404179459400018	0.06622270215999998	1.08963016782
O	-2.2367160190599984	4.43901964416	-5.6233193321799995
O	-1.8225827230599982	4.79525269416	-6.9577071321799995
O	-1.534638559059998	-0.79731628584	-5.818326132179999
O	-1.575199671059998	-1.03535647584	-7.25528399218
O	2.221869785940002	-3.18182079584	1.23910073782
O	2.947377555940002	-3.83615316584	1.83010303782
O	1.2321743559400018	-3.00106918584	-1.35299674918
O	0.14071135594000195	-3.35828969584	-2.03742831118
O	13.086825445940002	0.31051047016	-9.57138749218
O	7.1246907559400015	4.75231101416	-8.16981611218
O	6.560573795940002	0.9693131471599999	-7.99184969218
O	2.9923805659400013	0.19977054616	-7.2233856121799995
O	3.187890565940002	-3.5599885458399996	-6.739815182179999
O	4.9939485059400015	-6.59336856584	-5.58088498218
O	4.4517398459400015	-9.30540155584	-3.0322723421799997
O	9.307305645940001	-7.919850415839999	-3.17890038218
O	8.525075145940002	-4.43775127584	-4.46078303218
O	6.596098295940001	-1.60114726584	-2.83448952218
O	6.900199455940001	1.98574198416	-4.120739332179999
O	4.659855195940001	5.00188523416	-3.63358856218
O	6.739008405940002	8.12493529416	-2.64259842218
O	2.3893625659400017	13.51697700416	2.41135854782
O	2.5621232459400014	10.44727020416	0.23536162782000014
O	3.7658696359400015	7.17052135416	1.6987446478200001
O	4.3835738859400015	3.53808902416	0.6501678578200001
O	7.942537735940002	2.1583825341600003	0.9034896278200002
O	8.566278645940002	-1.54182885584	1.21194908782
O	12.028359345940002	-2.96543454584	0.6854642378200002
O	-1.860488533059998	-0.32385125983999996	8.13621309782
O	4.129255595940002	2.04101414416	10.025501267820001
O	5.566606365940002	5.56002007416	9.67631576782
O	9.483488945940001	-0.055583600840000025	5.89145621782
O	7.630381505940001	3.19475751416	5.279126087820001
O	3.8824550259400015	2.82712510416	5.549484237820001
O	0.8331042859400017	5.00070163416	5.13144191782
O	-0.3924601440599982	4.94027133416	1.54010719782
O	-3.939586854059998	4.16138227416	0.37408948782000007
O	-5.606256844059998	4.25181543416	-2.9831869621799996
O	-6.293301154059998	0.66652300716	-4.1838243321799995
O	-6.289026884059998	-3.05613851584	-3.52343183218
O	-9.400412494059998	-4.94930729584	-2.40625815218
O	-8.885508224059999	-7.07834753584	-5.535978002179999
O	-9.708391614059998	-3.9386557058399996	-7.569881252179999
O	-7.764579924059999	-9.51646419584	-0.6333760131799998
O	-4.393625004059998	-8.77486294584	-2.26973401218
O	-3.206359714059998	-7.78185424584	1.2219892378200001
O	-6.025202784059998	-5.39293434584	2.1501294178200006
O	-6.176131224059998	-1.8697631858400001	0.8310939378200002
O	-8.794570774059999	0.79720282816	0.4815886678200001
O	-9.030476324059999	4.54942311416	0.06288454782000019
O	-11.455815854059999	6.56904016416	-2.06832370218
O	-14.01009705406	3.65032652416	1.6053606578200001
O	-11.64541999406	3.38241529416	4.55726097782
O	-9.88212159406	0.004799207159999985	4.7068344278200005
O	-6.6605109540599985	-1.34921264584	6.190867297820001
O	-5.148519264059998	-4.80570493584	6.47964269782
O	-1.5119157120599982	-4.94580589584	5.396524067820001
O	-0.2082094940599981	-8.00926812584	7.27005807782
