84

O	3.5008571566785722	1.6375943125683672	0.7471345187959184
O	4.180114616678572	0.47596007256836714	0.7584128187959187
O	3.661585016678572	-0.7615934884316329	0.2715426487959185
O	2.634395146678572	-0.5077028023316329	-0.6083015612040814
O	1.7062580966785719	0.27017925356836714	0.021208488795918523
O	2.165116026678572	1.4920268225683673	0.5489535987959184
O	0.5303786966785717	0.4236307425683671	-0.6032216612040815
O	-0.30673472932142815	0.969251262568367	0.08959295879591855
O	1.9722284666785717	-1.6696748074316328	-0.8672906522040814
O	2.4601107466785717	-2.7411325074316326	-1.4969182862040815
O	2.044460716678572	-3.955545607431633	-0.8259291872040815
O	2.832563366678572	-4.989420987431632	-1.3354623792040814
O	2.665986056678572	-5.270504357431633	-2.6386621612040813
O	2.0784895166785717	-4.323563137431633	-3.3807895312040817
O	1.663536676678572	-3.1863120874316326	-2.6743133712040814
O	0.07584991467857183	-0.6655999722316329	-1.1933844122040815
O	-0.8066449463214281	-0.9192075774316328	-2.2660290212040817
O	-1.3453862063214281	-2.146186997431633	-2.5810134472040813
O	-1.5021437613214281	-2.714911817431633	-3.813859871204081
O	-2.2115026733214282	-3.723370937431633	-4.3148566712040815
O	-3.0853572633214283	-4.280112087431633	-3.4398846812040818
O	-3.295512893321428	-3.617368327431633	-2.2903941662040816
O	-2.719340643321428	-2.390648547431633	-2.1177282092040812
O	-3.352875223321428	-5.950636567431633	-3.7742007312040817
O	0.6497947566785718	-1.8451100774316327	-0.9022146512040814
O	-0.04918772132142818	-3.163339807431633	-1.1579319852040815
O	-2.5578339233214282	-6.563254917431633	-5.215555411204082
O	-1.2777422233214282	-7.209498487431633	-4.790722231204081
O	-0.22369871632142818	-6.3650866574316325	-5.079071341204082
O	-0.5362545224214281	-3.423595417431633	-0.05608944120408155
O	-0.30232732132142814	-4.319660367431633	-1.7765567872040815
O	-0.47036814952142814	-5.621126857431633	-1.9339267502040816
O	-3.348300653321428	-6.864239657431633	-2.6144880462040816
O	-4.836777633321428	-5.950876247431633	-4.213268261204082
O	5.562382666678571	0.6812318325683672	0.6997140387959184
O	8.109393316678572	2.1447322725683673	-14.093044411204081
O	0.875403976678572	1.0154752225683672	-12.031009111204082
O	3.5843931966785716	-0.5845056462816329	-9.886702561204082
O	1.9971017366785717	-2.547536627431633	-7.111177371204081
O	5.122496796678572	-3.505934477431633	-5.192431741204081
O	8.579453766678572	-2.7172652074316326	-3.875426171204081
O	10.189290026678572	-2.3859254774316327	-0.5174952512040814
O	11.938857326678573	1.083807942568367	-3.783863531204082
O	8.774827886678572	1.053216972568367	-5.836918771204081
O	5.226781986678572	2.0261027625683674	-4.902732001204082
O	2.6883675566785716	2.720786462568367	-7.7424464312040815
O	-1.1057175553214282	2.830804922568367	-7.624715441204081
O	-2.584543573321428	5.828508132568367	-9.425405811204081
O	-9.946162813321429	8.391050002568367	-6.046623281204082
O	-7.141721743321428	5.927952472568367	-6.250201261204081
O	-3.939444873321428	6.675940052568367	-4.3217271312040815
O	-0.5047084395714282	5.111415422568367	-3.7512863212040815
O	2.6767348666785717	6.891348192568367	-4.763043891204082
O	5.959612036678572	6.0820672425683675	-3.1632086612040817
O	9.165983846678571	7.249677572568367	-4.656746011204081
O	-1.6958583633214281	5.046350502568367	6.745308408795919
O	4.857863476678572	10.391397852568366	-0.9816110682040814
O	1.2078261566785717	10.174697252568366	-1.9992352312040813
O	-0.6845979333214282	7.844122672568367	0.34162779879591865
O	-4.177609853321428	6.441877642568367	0.6661361287959184
O	-4.581224263321428	3.1704078725683673	-1.1748831392040815
O	-6.045027693321428	-0.16031142243163288	0.25561926879591845
O	-6.704439823321428	-3.5798998474316326	-1.2484790072040814
O	-4.161285673321428	-6.131278147431633	0.11895243879591866
O	-1.066546645321428	-6.910407227431633	2.252022858795918
O	-1.4220351743214281	-8.670849057431633	5.480023288795919
O	0.8552193666785719	-11.346385447431633	4.0081591887959185
O	-1.9515931733214282	-12.155088947431633	1.5330707987959185
O	6.198109876678572	-4.231587137431633	12.906058788795919
O	2.9968097466785717	-8.089955907431634	8.038809508795918
O	4.590894866678572	-6.924446447431633	4.810924938795919
O	4.159039656678572	-3.3744833974316326	6.105130518795919
O	0.49998534667857175	-3.547141327431633	7.121404438795919
O	-2.346297683321428	-3.2795637474316326	4.646777168795919
O	-5.990457433321428	-4.160956577431633	4.582116868795919
O	-9.114054163321429	-3.3171441974316327	2.6662023587959185
O	-11.976024673321428	-5.613247397431633	1.5747485387959184
O	-11.400055273321428	-5.540567987431633	6.892454478795919
O	-10.076483163321429	-2.099163497431633	7.758327878795919
O	-6.3355132433214285	-2.124238647431633	8.49608388879592
O	-3.4817533133214282	0.3866818875683671	8.46975648879592
O	0.17403444067857188	0.24033971556836708	9.42597738879592
O	2.481428916678572	1.625083632568367	6.7437006887959186
O	5.523246366678572	2.6440391225683673	8.741019488795919
