32

O	43.61454497596526	9.083244949212354	32.248419427955845
O	44.46416652199822	8.43069475496909	33.0913237034686
O	45.58316226048335	8.361894773217772	32.421574053869875
O	46.10547155575199	7.2480170024287744	31.612228430191855
O	45.189607432963705	6.498017184019689	31.24703048224558
O	47.17314517450305	7.700821081959648	30.77168773564641
O	48.33447788513889	6.881487015044764	30.24004776393968
O	48.84664805108644	6.370714627227748	31.522606119993583
O	47.72001346097446	5.697254299071503	32.12388669341506
O	48.01676624381266	5.680655594353905	33.48375504253831
O	49.045089870578344	4.756109500877969	33.469640105895664
O	49.90139956439123	4.477684531042326	32.35294114176986
O	51.22580403125204	3.7762507228103335	32.39039044250218
O	52.23152957660025	4.611027170501865	31.809773973425187
O	51.94950464867754	5.993790621436025	32.25582055339512
O	51.00916438954096	6.362390663191563	31.189339525281014
O	49.93665262006904	5.574594745671968	31.53862319517999
O	47.60914269616412	8.896156540170686	31.365018949871388
O	48.149995468373376	9.948757692350208	30.596633624516077
O	47.735802159840034	11.225332785495763	30.73735485399078
O	46.75856049253913	11.62819913742851	31.64423615415118
O	46.66143153407053	10.684198231149841	32.694024151370904
O	45.615903660940184	11.015892861049387	33.622063944554924
O	44.604584348041854	11.673383783088719	33.16792611026156
O	43.81240137929258	12.655541643911956	33.92591351216521
O	44.50615413532049	13.873372194846867	33.999149613297824
O	44.30987483661969	14.719343388287761	35.05086224339955
O	43.32894901145742	14.351418359572254	35.922034007565415
O	42.86715643149588	13.035066551563265	35.9369468112119
O	43.67236855497807	12.150354682265856	35.22949871091088
O	46.62697821654103	9.35356663401417	32.27196172269159
O	47.438761176845034	6.944975743291463	34.15958839646047
