76

O	0.08936949748275935	-0.6338492682224133	-4.516319072241379
O	-0.6745752275172407	0.44539732077758665	-4.39395291224138
O	-0.7870962015172407	1.0325969517775868	-3.180786622241379
O	0.23512404748275928	0.9430082867775866	-2.338734682241379
O	0.9018351174827594	-0.2961691082224134	-2.453250302241379
O	0.5586810474827594	-1.2149601282224132	-3.405130542241379
O	0.27382020748275926	1.9221453607775867	-1.2067681822413794
O	-0.28453168851724064	2.478642981777587	-0.1291506961413794
O	0.07371683748275937	2.1756840417775867	1.2083470977586206
O	0.6416117774827593	1.0261887972775867	1.1862708577586205
O	1.5786227174827592	1.3580427427775867	-0.20572207384137936
O	0.7584486674827594	-0.3890168882224132	1.5943047377586206
O	-0.2103686755172407	-1.0420135882224133	0.9872502277586206
O	1.551716897482759	-1.327796018222413	0.6863757257586206
O	-0.0009507855172407043	2.8049857217775864	2.4592663077586208
O	-0.31226232651724073	4.204644001777586	2.457827497758621
O	-1.0966454915172408	4.569307981777587	1.5154274177586207
O	0.5940219274827593	5.276189701777587	2.8080633677586206
O	12.21444720748276	9.876418581777585	-5.11535743224138
O	9.630192807482759	8.517569681777587	1.9131231877586206
O	7.0396140174827595	8.544760081777586	-0.9102017842413794
O	3.5636506674827593	7.8981099317775865	0.5010572817586206
O	1.5944672874827592	7.5689227517775866	-2.674694402241379
O	1.4411985874827593	6.629461151777587	-6.326946102241379
O	-0.7154455295172407	4.414598211777587	-8.48565697224138
O	2.4926791874827594	1.0831387829775867	-11.40389527224138
O	4.11145308748276	4.163492671777586	-9.92914375224138
O	5.46705482748276	5.234994921777587	-6.57692048224138
O	5.468624747482759	3.5501713117775866	-3.242344232241379
O	7.79302363748276	4.596160451777587	-0.42182602924137935
O	7.60734627748276	3.9790277717775866	3.301300367758621
O	10.928003407482759	2.8191887717775868	4.73972616775862
O	10.117087007482759	-2.2146678782224134	11.56908222775862
O	8.63483029748276	0.05973664177758664	8.94877241775862
O	7.70881776748276	-1.3656439582224134	5.537083407758621
O	6.29331309748276	-0.22242736822241338	2.1637885777586208
O	8.39051695748276	-0.5246043482224132	-0.9613962472413794
O	6.88250245748276	-0.6006841882224132	-4.34997430224138
O	8.89304232748276	-0.15157487822241333	-7.48643659224138
O	7.81359746748276	-1.8302734082224132	-10.716254872241379
O	0.6214842874827592	-9.854277988222414	-8.107784232241379
O	3.9106450274827593	-11.642497888222412	-7.50468862224138
O	-1.6797153485172407	-7.2561166082224124	2.5914546377586207
O	4.518132797482759	-9.429472388222415	1.0142634977586207
O	7.73999795748276	-9.356649488222413	3.0849784877586206
O	8.02542299748276	-5.444803358222413	-3.725926482241379
O	8.38362994748276	-4.942698618222414	0.01269788775862063
O	5.11265567748276	-5.027396588222413	1.9149902277586206
O	3.913690257482759	-4.6230879282224135	5.525476887758621
O	3.070027907482759	-0.9352599082224131	6.14871035775862
O	-0.2147852085172407	0.5285431437775867	7.553865697758621
O	-1.2262347775172406	4.093329641777586	8.40268487775862
O	-3.8294211425172406	5.414392261777587	6.00574387775862
O	-5.85187925251724	4.932440621777587	2.863524947758621
O	-9.56815276251724	4.128387361777587	3.061825857758621
O	-10.08326678251724	7.339893141777587	1.0613744777586207
O	-8.876452702517241	9.231543491777586	4.158397827758621
O	-11.55476509251724	-9.404316088222412	-7.4574816622413795
O	-12.23336439251724	-3.962536568222413	-9.07101307224138
O	-12.24571069251724	-3.344590768222413	-5.35195573224138
O	-11.04376399251724	2.4862437617775868	-1.5718226722413795
O	-7.755820402517241	3.8364664617775865	-2.9080345722413794
O	-6.66406714251724	0.16335644977758668	-2.778687992241379
O	-7.533463922517241	-0.6593606082224133	0.7880895027586206
O	-5.421176432517241	0.5447607967775867	3.709000027758621
O	-6.08363319251724	0.8864618397775867	7.41563387775862
O	-4.14195231251724	1.1490803244775867	10.64074742775862
O	-8.84596856251724	-0.0477655482224133	12.70621102775862
O	-7.303241422517241	-3.1310283482224133	11.15624622775862
O	-7.786437622517241	-3.208757638222413	7.37135959775862
O	-6.08100485251724	-4.855634658222414	4.426656307758621
O	-6.8673332225172405	-5.107583048222414	0.7360478727586206
O	-3.9125795725172408	-4.332950428222413	-1.4361665222413793
O	-4.6176984325172405	-6.0400399682224135	-4.69907026224138
O	-6.17033312251724	-8.836934458222412	-6.55198588224138
O	-11.07348209251724	4.682983901777586	-11.25824887224138
