37

O	47.08343469012061	9.288012092607374	29.65703237962212
O	47.60077409501241	9.721201374184268	28.361032553289867
O	48.071487971370765	10.974465226813646	27.85830916506057
O	48.300408297579516	11.279614078732584	29.410342365620515
O	47.43934983714559	10.967484738945046	30.525320204242085
O	47.089572432648566	9.560339167212769	31.06007163696276
O	46.165739792616655	8.717861221775596	31.791973119252905
O	46.10407488471905	7.485174355008939	31.018299843096703
O	45.06947793854773	8.577399879517525	32.67389384851868
O	44.57871372211312	7.1915966695795905	32.96848495830718
O	45.5061874175568	6.118225695235527	32.73122282596352
O	46.615964058922934	6.56334907109643	32.05482654000685
O	47.63524612160623	6.108680607738457	31.186246651573157
O	48.77833906870817	6.7293561973155755	30.63692403967295
O	49.03451759947516	7.48983299287642	29.314937946689096
O	49.86427173700942	5.673932056773154	30.254115684086916
O	50.685015106146565	6.25814171650011	29.035238813464684
O	51.37472309859982	7.492146271181879	29.389378035730854
O	50.18725857215185	8.544359741343909	29.365654216373525
O	50.512509034494414	8.915297507929191	27.945705215465996
O	51.84059791884734	9.26634736347498	27.867187121873275
O	52.24118903563405	9.680378139535284	29.06132574995454
O	52.611219102782734	9.260641694000116	26.630879946634643
O	51.37645913527671	9.61837694948355	25.81435231478387
O	50.54127532727142	10.53392331548024	26.6424188206615
O	53.16618466046532	10.691499030551142	26.54057971272832
O	52.44187984831898	11.395382851858884	27.6168733772567
O	51.0343230717055	11.41955652234511	27.79409103846267
O	50.68021277203016	12.703508525532122	28.17014973675294
O	51.19419613452139	13.791707962159267	27.420873623746
O	50.13183631756394	14.629620405282823	27.114603352379653
O	51.74213576865798	13.072855311209656	26.166087324935845
O	50.389272778452245	12.478098000291853	25.953871463770138
O	50.716104561849036	12.438043432532066	24.268579935708793
O	52.03688528147898	12.70188296469481	23.75617632565055
O	52.70502700618869	11.665710948955466	22.933962924844575
O	51.73331424093671	13.558801364227353	22.538676682782494
