77

O	1.96652330014	4.18323759814	-0.19599137266799982
O	2.71882649014	3.6534308581399997	-1.1864647106679997
O	2.39800903014	4.00388008814	-2.448155247668
O	2.16010053014	5.3978415781399995	-2.441087837668
O	1.19728727014	5.8360866181399995	-1.5885167976679997
O	1.3458508601399999	5.39139986814	-0.3476081503679998
O	3.7334145801400003	4.01542715814	-3.323335017668
O	3.9710280801399995	2.50879497814	-3.340385777668
O	4.593402510140001	2.40495292814	-2.007573957668
O	3.80650164014	2.8048608481399997	-0.9511526436679998
O	3.30153833014	1.79764217414	-0.13302056266799983
O	2.1297798601399998	1.2587914536799998	-0.24438589266799982
O	1.6632327401399998	1.8242142881399999	0.7565629723320002
O	1.8938087501399998	-0.0398257418600001	-0.7030839626679999
O	0.6930605701399999	-0.6420515018600002	-0.2925663442679998
O	0.2146592411399999	-2.15179178186	0.36184062733200023
O	-1.3810608098600001	-2.00327433186	0.6514025223320001
O	-1.6113363898600002	-0.7903721618600001	0.07432105533200017
O	-0.5077584122900001	-0.04922040186000021	0.09212342533200019
O	-0.39268166286000006	1.3323811350399999	-0.10557236766799982
O	-0.50686736046	1.9147594371399999	-1.3408323036679999
O	-0.44936012096000005	3.1592162781399997	-1.0256461926679998
O	-1.30198721586	3.36916090814	-0.05568532366799983
O	-1.38663397786	2.11862827714	0.4941926443320002
O	-2.9664477698600002	-0.2271854818600001	0.0954785013320002
O	5.362800310140001	1.4211328931399998	-1.8563531776679998
O	-4.11412742986	-0.24815215186000006	0.3196397963320002
O	-5.65587246986	4.60891227814	-14.558453007668
O	0.7938366801399999	1.4019994701399998	-11.951131807668
O	-1.00305504586	3.94679507814	-9.728363537667999
O	0.9691792801399999	4.412737788139999	-6.591882947667999
O	-1.45550346486	6.61095451814	-4.602574687668
O	-4.752339989859999	7.65430787814	-3.570958987668
O	-6.662666119860001	7.74453381814	-0.3938891998679998
O	-9.60664244986	6.30696989814	-4.276545477668
O	-6.681161619859999	4.9113745481399995	-6.2449054876679995
O	-4.25533541986	2.06066408414	-5.375055377668
O	-2.13979102986	0.4657263281399998	-8.114181987668
O	0.9432441001399998	-1.6733387718600001	-7.800869907668
O	0.8390342801399999	-4.74711948186	-10.026462667668
O	5.09689227014	-11.38845839186	-6.836112347667999
O	4.09393105014	-7.75306868186	-6.705961617668
O	0.8095686101399999	-6.75363625186	-5.100730647668
O	-1.28556948586	-3.6453830718600004	-4.381011937667999
O	-4.76546554986	-3.35311618186	-5.9132977476679995
O	-7.3832901798599995	-1.14169646186	-4.369132217668
O	-10.509428189860001	-0.21090110186000022	-6.234209657668
O	-1.59400153986	-5.52433205186	5.976879982332
O	-5.44941263986	-9.32375719186	1.9422032123320003
O	-4.45739732986	-11.69712459186	-0.8934599966679999
O	-9.02251348986	-5.64098675186	-2.956758167668
O	-5.646343459860001	-7.222164041859999	-3.704909437668
O	-3.15818300986	-6.57711785186	-0.8882551156679999
O	0.4626391971399999	-7.323317361860001	-0.16400041466799983
O	2.74145370014	-4.55508273186	-1.4471078676679998
O	5.227468740139999	-2.5869004118600003	0.6095269313320002
O	7.737194580139999	0.0013238381399998111	-0.4160860270679998
O	6.99215304014	3.30777818814	1.1745822023320003
O	4.757229110139999	5.30618198814	3.411039912332
O	5.59086039014	6.25260378814	6.963606422332001
O	5.26476452014	9.88756339814	5.793939102332001
O	8.38601793014	9.24918333814	3.629929422332
O	-4.11426283986	5.82846729814	13.210320592332
O	1.2201603001399999	7.92619837814	9.134903772332
O	-0.2857267548600001	8.11113060814	5.618816892332
O	-1.96168317986	4.77682287814	6.474841082332
O	1.09861867014	2.86418450814	7.724002172332
O	3.5913924201399996	1.38191862514	5.314693832332001
O	7.1318218901399995	0.13474954813999984	5.463220102332
O	9.45598033014	-2.06758244186	3.487781002332
O	12.17597861014	-1.9501577118600002	8.070454972332
O	9.13810367014	-4.18188408186	8.425739022332001
O	5.9117343901399995	-2.22592906186	9.027817972332
O	2.18566387014	-2.75973208186	8.455860722332
O	-0.93258904186	-0.7690505618600003	9.257351562332001
O	-3.24213211986	-0.4020412618600002	6.279314342332
O	-6.594555209859999	0.3207965161399998	7.7994830523320005
