78

O	0.6746751785294108	0.8135609505490193	-6.4225519686274515
O	1.0272974785294107	-0.010639810450980725	-4.9782826386274515
O	1.832752548529411	-0.9841281144509808	-5.479728048627452
O	2.585661018529411	-1.6187542594509807	-4.603889098627452
O	2.4282289685294107	-1.3519633094509806	-3.2063457586274513
O	1.4546618185294111	-0.6088752134509807	-2.6252309686274513
O	0.8680008585294109	0.09073740454901924	-3.639185428627451
O	1.366338198529411	-0.30150605765098076	-1.1591259406274514
O	2.555931558529411	-0.34829576225098074	-0.4783927296274514
O	2.715190468529411	0.7326542205490192	0.40595197137254857
O	1.5368639685294108	1.0215871705490192	0.6287469413725486
O	0.9953558585294108	-0.33567084755098076	0.3006492213725487
O	-0.29696453947058915	-0.14490517445098075	0.8001643513725487
O	-0.6458301669205891	-0.2916724329509808	2.0852526613725484
O	-0.41917869747058917	-1.6679989494509808	1.9251410713725485
O	-0.6168429563705892	-2.2786997094509807	0.8974672713725487
O	-1.137645431470589	-1.1805926754509808	0.11489798137254859
O	0.6201421085294109	-2.9179988394509806	0.5575744513725487
O	0.5155644985294109	-4.112851279450981	1.0619048213725486
O	0.9613945785294108	-3.119458639450981	-0.7495622666274514
O	1.0440818185294107	-4.0540938594509806	-1.7593946566274514
O	0.13736359052941083	-3.517167929450981	-2.757634598627451
O	0.5118324885294109	-3.722999849450981	-4.0257195586274515
O	-0.21732271347058918	-3.5553557194509806	-5.169531848627452
O	-1.0523335034705892	-2.4652064594509806	-5.056351088627451
O	-1.3275703484705892	-2.0755477694509805	-3.7757677586274516
O	-0.8551910224705892	-2.622443259450981	-2.6150831086274513
O	-14.17406839147059	-0.9217398834509808	-6.1063427086274515
O	-13.55618049147059	-2.765814639450981	-11.148494448627451
O	-10.542185641470589	5.012816750549019	-1.7604404126274513
O	-10.63817706147059	1.7040991905490193	0.08726360137254852
O	-9.38587867147059	-1.6021941294509807	-1.2606301196274514
O	-6.614898711470589	-2.944433969450981	0.8987782913725486
O	-5.450805071470589	-5.85899766945098	-1.1861653546274513
O	-5.0771508814705895	-7.472578609450981	-4.617301478627452
O	-2.085224461470589	-8.85581260945098	-6.5003729886274515
O	-6.649683101470589	-4.2013046494509805	-6.831402478627451
O	-5.000981181470589	-1.5561785094509808	-4.7573664986274515
O	-6.771282391470589	1.0689660405490193	-2.7724082686274514
O	-5.759302001470589	3.2476477305490192	0.0961055013725487
O	-6.739293841470589	6.8418668005490195	-0.3911652566274514
O	-6.537219131470589	10.36035488054902	1.0881155313725486
O	-1.5681539004705893	12.38941328054902	3.5224045513725484
O	-2.732633871470589	8.87227374054902	2.8497780813725484
O	-1.447376241470589	7.06651276054902	-0.2579326076274514
O	-1.831776381470589	3.760905130549019	-2.1113451486274517
O	-3.3004927914705893	3.617690000549019	-5.608968808627451
O	-2.5445354814705894	0.6464154435490193	-7.807560128627451
O	-4.516625341470589	0.18570310154901926	-10.99831414862745
O	8.491180908529412	1.7829095105490191	-1.8183190646274514
O	2.406811178529411	10.09811628054902	-8.89307908862745
O	-2.634311771470589	4.28836333054902	-12.064515548627451
O	0.3981763385294109	4.207572430549019	-9.793855628627451
O	0.20425832252941079	6.285887270549019	-6.623161478627452
O	2.512083378529411	4.982687870549019	-3.939025688627451
O	3.399658698529411	5.83210284054902	-0.3874031126274514
O	1.1759256785294108	3.9952737705490193	2.0654672313725486
O	2.376864068529411	1.8464325305490195	5.025395751372549
O	0.3978489285294108	-0.03346858145098075	7.535850851372548
O	0.6974160585294108	-3.7048945394509807	6.947590961372549
O	1.9410850485294109	-6.679907679450981	5.056776091372549
O	4.883444658529411	-8.73948525945098	6.207487861372549
O	0.6191841085294109	-10.05270443945098	8.97895196137255
O	3.220492988529411	-10.52738271945098	0.3960493913725487
O	5.257344408529411	-7.8987094694509805	-1.5181718846274515
O	6.9424537385294105	-6.255949379450981	1.4981007813725487
O	5.178702798529411	-3.803242679450981	3.8013692713725487
O	5.738637458529411	-2.4360803594509806	7.2788979513725485
O	4.727460158529411	0.5615987045490193	9.366255451372549
O	3.7991484885294113	0.6763684775490193	13.02145075137255
O	7.240174738529411	2.0924072505490194	13.84996355137255
O	8.831084828529411	-1.0225730574509808	12.29644255137255
O	10.043586608529411	0.6566425315490192	9.11466755137255
O	9.96538070852941	-1.6964228794509808	6.107802391372548
O	9.815834208529411	-1.3449004994509808	2.3204445413725487
O	9.87565410852941	-3.716966919450981	-0.6539524546274513
O	7.031423918529411	-3.2728244094509806	-3.2032033986274513
O	8.386920278529411	-4.71646010945098	-6.400512248627452
