30

O	49.93052018635085	6.457746907270341	30.84533604981336
O	46.8834411543651	15.418879914201717	30.09110155452435
O	44.391347243930376	6.826293199544165	32.94700089934089
O	47.957690025970024	13.528856403958631	28.838881745889513
O	48.75535192033489	14.787786227023664	31.13654243013735
O	46.98354126515363	18.291461779698203	27.94201067802756
O	48.939404427705234	13.623653447334155	30.29465937030139
O	48.7288692790723	7.191873502548522	30.366510814023243
O	46.604453426170174	6.347387707260184	31.788770958558796
O	50.20600885490413	13.034526570861887	29.96324235465427
O	49.30046089333444	8.593379546084996	30.167365438266042
O	47.893224850077374	19.23346686350967	29.562437644839086
O	47.51655162413459	7.115596258827391	31.20060055252466
O	46.79081660081446	8.303400805555386	31.096520439221333
O	45.910308491528255	8.344274278982056	32.14755423658762
O	45.28249282507833	9.539468820752548	32.55790151824513
O	44.02051315473429	9.211445190988659	33.01514042130574
O	43.55242376176935	7.839956770605046	32.963664494820534
O	45.539247373523	7.045651444113971	32.33854930057033
O	46.04952728963009	10.806670315589757	32.40919858244062
O	47.39809142999973	10.642289710920009	31.976956236358053
O	48.04640313206168	11.394090862240533	30.97394350954087
O	47.65251191643745	12.649688883936996	30.872164687492408
O	46.56249318218283	13.040916790269586	31.537107113332134
O	45.681314869284634	12.07047146579765	32.09334704962363
O	47.471391505438625	14.879285711814742	28.86378319441024
O	48.848882053381566	15.460668866232275	28.726365863780057
O	48.78982445422025	16.804607512716892	28.203554144503453
O	47.11394023481266	16.85775624299877	30.382534513573642
O	47.74599320967212	17.83928450224211	29.122002765671525
