34

O	50.538956164969484	3.547597440375367	31.79328187135174
O	46.27230024015634	4.575269371071011	31.73523823759142
O	49.336042038561075	3.24173046933112	31.188928914174685
O	48.464873171904784	4.22922132804729	31.504315127516364
O	47.120283612579165	6.875128084518574	32.29547456225868
O	49.493043509919126	4.607741887606253	27.882655990265686
O	49.3248035625254	5.505381698962836	31.505122757026786
O	46.88671811453788	8.889385299702184	31.374377236531846
O	51.1233828207562	2.9913484243686987	28.839533634161857
O	49.69512744339134	5.481268489533005	30.112747471803416
O	45.848459677142486	10.65017455085134	30.918527258975296
O	46.26116340728275	12.561226708813647	32.023836964714114
O	51.10954951906846	5.596620585415793	29.900002972115136
O	43.14473302812185	7.404269830623377	33.339209580720436
O	51.92319143090058	5.059645378972778	27.427180216857614
O	44.943901949304	6.392681237259302	31.93151914457795
O	48.6116122237431	6.099946393194898	29.339872456594073
O	47.39022045021499	6.017920841574917	30.263890224993883
O	47.286236266679744	4.547829776029344	30.678649905488232
O	46.19994299990147	5.83115984444272	32.29519792850335
O	46.505943191984315	8.146485239913503	32.4591507919258
O	48.18810803268258	9.403535320614916	31.706668945705502
O	49.19914380706321	8.683696601728201	30.9484834649307
O	49.80329763514922	9.042449690562677	29.662393787656914
O	49.52923278985671	10.556298291035828	29.624721145560304
O	48.07746766588707	10.748109313668909	29.902895972825682
O	48.03809772443162	10.889392997556133	31.444447692802427
O	46.68486784890707	11.29864163662177	31.819252914457145
O	45.24685229919208	8.366438574034104	33.011609817622926
O	44.282153132496326	9.394098893218034	33.271820589178574
O	42.90631508901075	8.807805686181833	33.07605333376587
O	44.49163869931589	7.105536706439908	33.07175820945295
O	47.504990041020115	9.498522311934245	29.535386516419305
O	51.20140333850769	4.0349157663087984	28.529700002932454
