83

O	-1.5707740842233333	-1.6733778113333333	-0.96419240795
O	-2.5126137442233336	-2.7043049613333334	-0.8911171949500001
O	-3.751428494223333	-2.2535652513333333	-0.55996743495
O	-3.7321123342233333	-1.1848318113333334	0.28840595304999994
O	-2.7084757842233333	-0.23642747933333352	0.25487390005
O	-1.5433023352233333	-0.3973475013333335	-0.47602863595
O	-0.4852954972233333	0.5510284256666664	-0.8626803429500001
O	-0.6610738102233333	1.7886007486666666	-1.20966684195
O	0.36485819577666656	2.6016485186666665	-1.37004522595
O	1.6571261657766667	2.3887785886666664	-1.8229621169499999
O	1.8639208457766665	1.3210316686666665	-1.02963833995
O	0.7458403857766667	0.7568676284666664	-0.24199631495
O	2.7602046557766666	3.3294188186666664	-1.68732174895
O	2.6242404657766665	4.652393068666666	-1.26095473895
O	1.3384477257766665	4.950104798666667	-0.92753727295
O	0.8073853057766665	3.8016514586666665	-0.53404313695
O	-4.812899634223333	-1.0048520413333337	1.0913599830499998
O	-4.795283494223334	-3.1500285313333336	-0.52374189495
O	0.3780464257766667	1.3011734486666664	1.0597227830499998
O	2.7574485357766667	1.8794449086666667	-0.24959307795000002
O	3.8954898057766663	2.9904112486666667	-2.21694095695
O	1.3588066657766664	5.881682008666667	0.16082169105
O	3.679884665776666	5.493972598666667	-1.28891278395
O	-0.03165210422333331	7.671617028666667	-11.01839329695
O	-2.1924950332233335	8.121898758666665	-7.88762296695
O	-0.005543184223333331	7.777451298666667	-4.80896720695
O	-2.621561224223333	7.613992498666667	-2.12832003695
O	-6.2461649542233335	7.087505088666666	-1.0498920759500001
O	-7.754036364223333	4.9355774986666665	1.7089796230499998
O	-11.231836044223332	3.9010520386666667	2.80422274305
O	-11.496766164223333	1.7117139286666663	-0.27072314195
O	-10.388988854223333	4.552961038666666	-2.51311679695
O	-7.441127034223333	5.356898488666666	-4.74728674695
O	-4.200581624223333	3.4501245586666665	-5.20459284695
O	-2.0327491262233335	4.1031038786666665	-8.26885134695
O	1.6060329557766668	3.3002775486666667	-8.85082581695
O	2.216278925776667	1.7349892886666667	-12.24318499695
O	8.862471835776667	-3.5529603713333335	-12.32990209695
O	6.736893505776666	-0.9596751013333334	-10.58484332695
O	3.5665260757766664	-2.0957167413333333	-8.78306528695
O	0.6255592757766666	-0.6847182413333336	-6.80136137695
O	-2.905283374223333	-0.9881290113333335	-8.15084934695
O	-5.779857794223334	-0.7326189513333335	-5.69602135695
O	-9.291963064223333	-0.3072341713333334	-7.1843445069500005
O	-12.245771564223332	-1.6675978513333334	-5.22239702695
O	-8.365757044223333	-8.977604211333333	2.0302313330499997
O	-8.588670034223334	-11.220901081333333	-1.05081620195
O	3.2339580157766665	-8.349695271333333	4.93240648305
O	2.457920585776667	-6.6140417613333335	1.56669156305
O	2.4688645457766665	-9.089567921333334	-1.3444145389500002
O	-0.4298587432233334	-9.504071181333334	-3.7701172669500003
O	0.8629984857766668	-9.902338281333334	-7.34947672695
O	-5.650630234223334	-5.637768831333333	-6.539227356950001
O	-2.0959457132233332	-5.4238319813333336	-7.86914543695
O	0.42076284577666656	-5.235335521333333	-5.05422370695
O	4.155619405776666	-4.842060401333334	-4.66262596695
O	5.211709225776667	-1.2040108913333336	-4.51451780695
O	7.352054035776667	0.5552546466666665	-1.85951210695
O	8.536060135776667	4.148565508666667	-1.4924971289500002
O	6.822463595776667	5.9160940386666665	1.34443851305
O	4.186949455776666	5.754334378666667	3.9854745830500002
O	5.233451735776667	5.3729905486666665	7.66640914305
O	3.517171235776666	8.703675218666666	8.26813688305
O	6.297367845776666	10.281146178666667	6.16108878305
O	-4.977210764223333	-7.258596281333333	13.60526710305
O	-6.203051124223333	-1.6865918213333333	13.97513370305
O	-2.5525187342233333	-1.2892670613333337	13.12599250305
O	1.0091277957766664	4.160865748666667	10.37779640305
O	-0.9714828422233334	5.189020788666666	7.27157254305
O	-1.2837988328233334	1.4499831086666664	6.53242456305
O	2.417094715776667	0.5245288256666665	6.85580327305
O	4.807658415776666	1.3893993576666666	3.9036807530499997
O	8.561298885776667	1.5379825416666666	3.7909678930499995
O	11.214532635776667	1.4694856356666666	1.1601820630500002
O	14.321114735776668	0.6388505846666664	5.38265006305
O	12.356039335776668	-2.5028128813333335	4.61337393305
O	8.792490835776666	-2.3655520613333336	5.9570714130499995
O	5.468409485776666	-4.022591201333333	5.14727278305
O	2.0023183757766665	-3.9689301613333337	6.74036027305
O	-0.7962093852233334	-3.2489291213333336	4.14229301305
O	-3.8819977942233335	-4.677444971333333	5.79830238305
O	-5.318151184223334	-7.267155891333333	8.11626113305
O	-8.339539004223333	6.866409178666666	12.28665040305
