34

O	45.5598857574614	14.649163926666514	31.667449156026716
O	52.745460169671134	7.5888287363302585	29.556976608645304
O	44.08125183620981	7.820508234092824	32.797766814205374
O	51.26325972657605	5.802348825662337	29.77341558780644
O	51.44006580073618	7.212328799784091	29.331634966986417
O	49.13096007199269	7.255454605802962	30.026241533065217
O	49.09337690490245	5.989913987464487	30.779933540376383
O	45.45075231924366	12.48091238479812	32.49303531691234
O	44.94648961058838	5.80675682248659	32.750408992447504
O	44.804620504761736	12.605404536145908	33.54248212818654
O	45.57847200614913	14.391144311013466	30.231191403337387
O	46.13284681522968	8.910524929620689	32.53750390297884
O	47.23855186608313	8.903627406241045	31.69954846507696
O	47.89225878448956	5.429783006502783	31.37176982206648
O	50.41395148970632	5.5908700223493515	30.98595970310626
O	50.39237192034993	8.034605231177641	30.014193966958736
O	46.931390745635625	9.565143098187312	30.55976646199744
O	46.0598927665711	11.200973003138301	32.0697676229437
O	45.68755657783353	10.150915110547011	32.787978919315314
O	45.40310934737551	7.810050517865978	32.68343241236728
O	47.72715388428672	7.690990883522924	31.61619137228675
O	47.0469407978417	6.505483293729982	31.67011608005246
O	45.887716532019674	6.615080924614275	32.34976517705664
O	46.26513581688939	10.768330272965049	30.82735315661139
O	43.79372579185545	6.5162054399446925	32.90508138359645
O	46.381345278942476	15.414078998092783	30.755632319578236
O	46.394257273024536	13.533666979547576	32.23913607797917
O	44.607678413992744	14.999355790116862	32.68611659656708
O	45.19425186755177	15.602103007878664	33.79589560778714
O	44.42980992686163	15.944680579476739	34.89177847909421
O	43.08302658444025	15.998274497559366	34.7759111741152
O	42.6338658301943	14.89397496807024	34.12908160941526
O	43.30054094488165	14.697157918606727	32.906650317532794
O	42.343626034632436	16.600532644194573	35.68200277033589
