42

O	45.07645488135666	7.355928937053432	32.71485959551694
O	43.82306091666214	7.2829339629573315	33.18538352447602
O	43.10108806700966	8.467781802698033	33.477636714185934
O	43.423250191115905	9.64917956389557	33.01151799752583
O	44.402111332206786	9.467598665586488	32.145766651918535
O	45.28434598222343	8.53425731659172	32.01897652146525
O	46.48176331435665	9.053544749519135	31.742374988269365
O	46.660914417697704	10.41968172531524	32.17670604929476
O	47.409164588726796	8.186149423054898	31.60543779138497
O	47.344549800866005	7.391488862118132	32.70392947002298
O	48.015206091245716	6.372144702478046	33.33640335573891
O	47.53253113107713	5.044914213775293	33.08994526667816
O	46.23200500510205	7.3362125990500635	33.43940781811021
O	46.23337030338546	7.988155550000766	34.480968563868664
O	47.677798674797984	11.046138150019509	31.601407505424095
O	48.073496290734425	12.219338687923015	32.24678624278276
O	47.51508089306455	12.64481804693662	33.43130029501998
O	46.240816481987295	12.152029831649816	33.694215427702076
O	45.817485738920126	11.11367728596351	32.913436800766604
O	48.39481272394954	8.314258454671064	30.607257590510855
O	48.26904813050879	7.362818989726794	29.770242798419098
O	49.77129355495402	8.602150691555448	30.470198768713594
O	50.90342914651064	8.267310759812482	29.650593511133394
O	47.63256595742207	4.25819554921638	31.78245513974491
O	48.49974802814888	3.1086370293408523	31.509818456805668
O	48.94066794821192	2.2598354066797635	32.47858868700453
O	48.11770262457489	2.408937920209312	33.51262653115656
O	47.407101556016315	3.670952270996728	33.52733710078498
O	50.38246376230126	2.5838711374941434	32.69654244090522
O	50.85815363509401	2.237884136706483	33.728916075887774
O	50.158569347957545	4.047273342412281	33.006098688096365
O	49.656093566630254	5.526321088112885	33.28036233674795
O	50.16152012933058	5.925791055609944	31.92868965608618
O	50.169724232287805	7.411440860781783	32.43741512998661
O	51.18324054288726	7.377872220675806	33.285532553578584
O	50.97294820886389	6.279851283549467	34.290476407042966
O	51.15617207914258	4.87770875464596	33.79424945446303
O	52.0112308930659	6.50767252484826	32.15407594152536
O	51.37885038979616	5.40779353146304	31.624681807343396
O	51.69922645142699	4.2505375640755565	32.49106245540665
O	50.29209147016887	5.2930873302534795	30.68032329255804
O	51.65243894223301	4.057510442839456	30.754879976528997
