27

O	49.43417381018803	6.380531320626878	32.40561018590915
O	46.02086635989692	11.071825761779696	31.079941258205533
O	48.95414109061646	5.113178721903841	32.28655302879637
O	48.99034468338018	4.313032149476774	31.068419132048177
O	49.0716888557614	5.225656045208735	30.069076426107408
O	50.10029201694184	6.153552608728528	30.19723781934494
O	49.88291769524318	6.943803920427825	31.243654095387683
O	47.914578671888535	3.251647464867892	31.039809106841112
O	46.700828032878384	4.182390835619811	30.944317430280066
O	46.67755435426766	5.064199740389979	32.083274418889204
O	46.353532843251365	6.342520139287371	32.0226332730954
O	46.87842035681893	4.910247625384251	29.899234428815106
O	46.908247624066625	7.4003238034085825	31.220229512923712
O	47.06300948067547	8.632424418688338	31.691649850642573
O	45.77073134388114	9.083978085129464	32.391462756086426
O	44.79644899340222	8.107609989686795	31.93839974246927
O	45.09041433515889	6.781746559431223	32.34543319864148
O	51.44428383147944	6.153216369674015	29.754062416053213
O	52.471327197107	5.253899472011838	30.030742057683803
O	49.52481910150102	4.020714341335662	33.04982274998262
O	50.36069884200805	2.8997367657487167	32.716012287872935
O	44.92133550492168	8.09373547163606	30.47961571524185
O	45.33782766970655	10.427135924400684	31.842675126826023
O	47.72523269782705	9.670966810102684	31.166329874600564
O	48.18960038160304	9.582287186940533	29.93528438027308
O	49.464129248660626	9.316423916443666	29.18955325929673
O	50.631007676534644	8.5425989957277	31.707728595698637
