90

O	1.2069586642105454	-0.5976071840545449	4.268412774363637
O	-0.006813645789454537	0.24503202594545498	-2.0715548926363634
O	0.9632063142105454	-0.004072255054545004	-1.1424775076363631
O	0.026056793210545437	-0.24179338405454498	-3.421880755636363
O	-1.0122123767894546	0.952065628945455	-1.4663258486363633
O	0.5303678042105453	0.739866986945455	-0.04442552563636326
O	2.3184759642105455	-0.10835908505454506	-1.4965126216363633
O	-1.1804036007894547	-0.21205990605454506	-4.021916155636363
O	0.7080829142105454	-1.437327994054545	-3.6627714856363633
O	-0.7159688937894546	1.1613177299454551	-0.22664058563636336
O	1.4568288642105454	0.684406042945455	0.9906406443636369
O	3.1673329342105454	0.043982373945454956	-0.4417155756363633
O	-1.3911228347894546	-0.30940372405454497	-5.370971665636363
O	0.5144117642105455	-1.681244714054545	-5.157650845636363
O	2.6450921842105455	0.028969500945454973	0.8147290443636368
O	-0.13960571578945458	-0.666620724054545	-5.924874845636364
O	-2.590619085789455	-0.12800655105454506	-6.102655145636364
O	0.6604755742105455	-2.720958374054545	-6.238939335636363
O	2.8838908942105457	-0.948191174054545	1.8379032543636369
O	-2.9182420457894542	-1.235775904054545	-6.956578505636363
O	1.4498701842105455	-2.5687402340545447	-7.222523815636364
O	3.379497334210545	-0.346467098054545	2.9951440043636364
O	-3.220040485789455	-1.305543184054545	-8.367412415636363
O	-3.2595111257894542	-2.2589865840545453	-6.269611205636363
O	2.9054567642105456	-0.436509792054545	4.270707354363637
O	4.493850084210545	0.425383824645455	2.8237115343636363
O	-2.6604100857894544	-2.4382083140545454	-9.154008075636362
O	3.7995331042105454	-0.41939196405454504	5.302050774363637
O	5.473340634210545	0.03092085294545499	3.6814718743636368
O	-3.7963555357894547	-3.0109405240545453	-10.001043675636364
O	5.160051554210545	-0.34361034005454505	5.000147814363636
O	-3.953011925789455	-4.390234314054545	-9.530305565636363
O	-5.3656225657894545	-4.7095739540545445	-9.762350295636363
O	-3.2280971257894544	-5.195956044054545	-10.519611865636364
O	-0.44449599078945456	-3.2725925940545446	-6.967633235636363
O	1.6162446442105456	-15.492072874054546	0.8449942543636368
O	5.068207654210545	-16.170434374054544	4.875817334363637
O	-5.136818505789455	-10.888653974054545	-0.24529302563636324
O	-2.604756485789455	-10.445100074054546	-3.0030547956363636
O	1.0725189942105453	-9.542889294054545	-2.433230534636363
O	1.9389905142105455	-6.317990094054545	-4.005868735636363
O	5.315214424210545	-5.4295562340545445	-2.8356643016363634
O	8.024018544210545	-6.150164674054545	-0.34527323563636325
O	10.198757094210546	-3.833838914054545	1.567646474363637
O	8.623301314210545	-7.741844584054545	4.4217567843636365
O	5.515044644210545	-8.260970004054546	2.4093910243636367
O	2.5109792842105456	-6.045135594054544	1.8949996743636366
O	-0.7644828097894546	-7.460402634054545	0.4960294843636366
O	-3.683112845789455	-5.730808614054545	-1.1827891276363633
O	-7.035833315789454	-6.9148985440545445	0.1898253343636369
O	-10.779679805789455	-6.317528224054545	0.05657149436363684
O	-13.068683805789455	-0.9068344640545449	-0.2414000456363632
O	-9.632659285789455	-2.1640960340545448	-1.0203410826363633
O	-6.876189525789455	-1.7617086240545452	1.5461876943636368
O	-3.133489615789455	-2.5340684340545447	2.0571951643636366
O	-2.0626780957894546	-4.971033024054544	4.763744114363637
O	1.5217246442105454	-4.761776714054545	6.0083943143636365
O	2.836449094210545	-7.582789914054545	8.152392134363637
O	-0.5969848741694546	7.386515005945455	3.958554854363636
O	-3.7264531357894546	3.9287807659454552	8.802209834363637
O	-7.1770497357894545	2.268873105945455	8.816722334363636
O	-6.749431375789455	-0.542044637054545	11.354842934363637
O	-0.5487894229894545	-6.108789544054545	10.952703234363636
O	-1.0090609637894545	-2.5692293840545446	9.685465334363636
O	-4.034908605789455	-1.9345311240545449	7.479022844363637
O	-3.5015791757894545	1.1023510219454549	5.234619814363636
O	-5.317178005789454	2.9007667559454546	2.513197934363636
O	-4.459331915789455	1.508099345945455	-0.8257760056363632
O	-3.3443363157894543	3.5477827059454548	-3.9089545456363632
O	-2.455515805789455	2.364823775945455	-7.513655645636364
O	1.3361281942105454	2.5647207159454553	-8.016124975636362
O	4.868866544210545	3.419381955945455	-6.7185484556363635
O	6.594489414210545	6.561678265945456	-7.709949965636364
O	6.584867084210545	3.1379321959454547	-11.824917665636363
O	10.059370094210545	3.358215345945455	-3.5271399056363633
O	8.272471424210545	4.684121755945455	-0.4751852456363632
O	5.864240224210545	7.134164445945455	-2.0811512816363633
O	2.7029039442105454	5.927172925945455	-3.797572435636363
O	0.34253137121054544	7.4227017659454555	-6.340220465636364
O	-3.1842199657894543	6.963657795945455	-7.595498225636364
O	-4.511634515789455	7.137155085945455	-11.157712005636364
O	-5.872670825789455	10.621835325945455	-10.468415925636364
O	-2.3296421757894548	11.757879025945455	-9.600872265636363
O	-2.867881845789454	11.999773725945454	-5.853222855636363
O	0.2750582632105454	11.127048525945455	-3.8806352456363635
O	1.1041444642105454	9.863980725945455	-0.38955739563636316
O	4.314219884210545	9.255499225945455	1.521409894363637
O	4.448768604210545	5.7378532359454555	3.079110964363637
O	6.947864154210545	6.304911055945455	5.886865804363636
O	8.507678244210545	8.591515015945454	8.428354334363636
