85

O	1.739294689622641	3.711003204415094	-3.3284900767169816
O	2.076587479622641	-8.502844175584906	5.228242733283019
O	0.6091719586226412	-8.136675155584907	5.398692883283019
O	-0.13545409037735878	-7.7287205055849055	4.266501793283019
O	-1.1099624033773587	-6.731870475584906	4.230879463283019
O	-0.8704804493773588	-5.447170705584906	3.5060993432830188
O	0.40062178562264117	-4.9069113555849055	3.6609434932830185
O	1.3193232796226413	-5.798862095584906	3.6898756532830186
O	0.7687950696226411	-3.819454495584906	4.599595883283019
O	1.4803234996226413	-3.995036695584906	5.743753133283019
O	2.183392139622641	-2.910724345584906	6.162807063283019
O	2.2064984196226414	-1.755520825584906	5.431425333283019
O	1.7637746496226412	-1.662719555584906	4.116832293283019
O	1.1027498596226413	-2.813041565584906	3.7442821532830184
O	1.1090827096226412	-0.43631718758490595	3.7274123432830186
O	1.4091782696226411	0.5012377434150941	2.8679333232830184
O	0.2033688936226412	1.086084932415094	2.4831298732830187
O	0.0904301666226412	1.4667222644150941	1.0956822982830186
O	1.1776814296226412	1.976823924415094	0.3530006732830186
O	2.143867949622641	2.381970354415094	1.0865645322830186
O	0.7029368076226412	2.984782474415094	-0.5519976817169814
O	1.3557038396226413	4.244792784415094	-0.7505064177169813
O	1.986691499622641	4.6554378244150945	0.38519609228301865
O	3.073908089622641	5.418794454415094	0.4686970372830186
O	3.481675429622641	5.928533534415094	-0.7838309667169814
O	2.6683435396226414	5.785594514415094	-1.9153357367169814
O	1.765287399622641	4.729735104415094	-1.9437014667169814
O	-0.7329884473773588	0.149945626415094	2.8992202032830185
O	-0.1676721801773588	-0.27365915058490603	4.011708523283019
O	-1.4298178103773589	-6.457181875584906	5.562163823283019
O	-0.6302891093773588	-6.7464273055849056	6.673868823283019
O	0.6875025356226412	-7.101591315584906	6.321201203283019
O	13.215687439622641	-6.209927765584906	-4.327118026716981
O	15.875049539622642	-2.097027005584906	-6.442743126716981
O	5.430896099622641	-8.922742775584906	-5.018971446716981
O	6.745445519622641	-8.521682925584907	-1.5489692367169814
O	8.192489169622641	-5.353897245584906	0.08268175928301863
O	6.247516199622641	-3.964829845584906	2.8463221432830186
O	7.674350969622641	-0.641749019584906	3.6341930232830184
O	9.71684501962264	2.240205284415094	2.4282268932830187
O	9.15658827962264	5.901244234415094	2.4562832232830187
O	11.26228343962264	4.394132634415094	-1.8680653467169814
O	9.803485639622641	0.905670302415094	-1.5998900767169815
O	6.156981309622641	-0.247334299584906	-1.5754853667169815
O	5.371604429622641	-3.871502215584906	-2.3835212467169815
O	2.2686843096226412	-5.859638145584906	-1.8892878067169816
O	1.1110090396226413	-7.915900235584906	-4.875661766716981
O	-1.6968217803773589	-10.117009595584907	-6.153927796716981
O	-7.399340810377359	-8.971441785584906	-5.052144406716981
O	-4.281328240377359	-7.811004435584906	-3.3598374167169816
O	-2.844813130377359	-4.380156665584906	-4.102640106716981
O	0.08048428462264118	-2.073780725584906	-3.0297376367169813
O	2.630682439622641	-1.130618305584906	-5.750921276716981
O	4.698832649622641	2.011872584415094	-5.235905856716981
O	7.725781419622641	2.538597204415094	-7.410986726716981
O	-6.1179549103773585	5.848754464415094	-0.41476187171698137
O	-5.344131140377359	4.591490914415094	-6.931213756716981
O	-6.180672050377359	1.495420294415094	-9.027492806716982
O	-3.7011866803773588	1.690961834415094	-11.913953926716982
O	-0.5954454573773589	3.580848174415094	-13.054758726716981
O	4.508484389622641	2.570170894415094	-10.759680326716982
O	1.4324315496226412	3.478477544415094	-8.729637436716981
O	-0.9364509823773588	0.661371564415094	-7.888145756716981
O	-3.079647670377359	1.269602636415094	-4.842092236716981
O	-5.597775130377359	-0.459652491584906	-2.6998702667169816
O	-3.861263180377359	-2.485298005584906	0.08955780728301863
O	-4.756707650377359	-2.067884455584906	3.7504591432830185
O	-3.4482947603773586	-3.9584076855849055	6.783591933283019
O	-1.2415729253773589	-1.7643340655849058	8.934320553283019
O	0.2575008456226412	1.696518594415094	9.681402003283019
O	3.5570564096226414	6.729783224415094	9.124343603283018
O	1.3918456596226412	7.947699894415094	6.273812743283019
O	-2.020538670377359	6.743750544415094	7.373983673283019
O	-3.051341000377359	3.104694574415094	7.088103273283019
O	-5.695630620377359	0.9819877354150941	8.669443543283018
O	-7.479352100377358	-2.274318505584906	8.000390073283018
O	-8.420616700377359	-4.967288145584906	10.523254573283019
O	-12.026210960377359	-3.7222822155849062	10.522830073283018
O	-10.741266260377358	-0.31219192658490597	11.662169873283018
O	-11.26119736037736	1.4537975344150942	8.345202983283018
O	-8.647905480377359	4.173693884415094	7.771602213283019
O	-7.108863430377359	5.959609504415094	4.781780123283019
O	-4.626309470377358	8.813142584415093	4.354604023283019
O	-1.7866454803773588	7.972865944415094	1.9301544732830185
O	-0.5627320173773588	11.345535904415094	0.7787080542830187
