28

O	52.3244565636554	9.441000755444348	28.622031215359634
O	52.490464742006395	8.000776232263478	28.37001681919288
O	51.10552504726259	7.441312399876065	28.24621920758888
O	51.12809973055864	6.914331880362713	29.618746899124613
O	51.118821911171494	8.13888261573977	30.308907191923705
O	49.79214349159733	6.459993579471499	29.858650552023853
O	49.82598851899208	5.070539943111854	29.55384774843164
O	48.80497393733464	4.127317120366075	30.097513606486622
O	47.84985616097818	4.8857005966013745	30.931042861430598
O	48.87639011454475	5.437096343744722	31.864386075413435
O	49.619874756497865	6.552263234456169	31.265117743961294
O	46.861394338742464	4.286633345296691	31.736478082283824
O	46.24279175733223	5.4854548274357136	32.310759295302
O	47.049192767445874	6.6733388022451114	32.27368988677435
O	46.29287842416843	7.908494268879919	32.35307195456441
O	44.843219975284335	7.786582694378927	32.546799781464635
O	44.42053165935049	6.5213296439481425	31.874481939513352
O	45.425622608262685	5.845292869845499	31.144085356406375
O	46.884565888038566	8.566056549919072	31.167696900104062
O	46.81887205719002	7.875684999131913	29.874190304566838
O	48.095368623679974	8.118153160903265	29.340548360317158
O	48.085470234193785	9.578413314282017	29.43435665767231
O	47.80088764389421	9.637536502062389	30.993040578270936
O	47.451551457324484	11.078051914061877	31.023152299095305
O	48.566943980862824	11.94349127760085	30.58528344690066
O	49.60825023504654	11.379314767297803	29.68829467823932
O	49.462691864189466	9.979865806485561	29.474890296536984
O	44.70371617612601	9.618986753212733	31.52652996241876
