85

O	-3.260588952227586	-1.755909177351724	-0.7888058360879303
O	-4.8687122922275865	-3.836271397351724	-0.21917343838793035
O	-3.889369892227586	0.4789145206482761	-1.8866036473879304
O	-2.859544642227586	-0.3873791573517238	-1.6328807593879304
O	-3.502292652227586	1.9233090486482762	-1.8356832473879303
O	-2.397370982227586	2.244592912648276	-2.5843559073879305
O	-3.328151422227586	2.468275852648276	-0.4491826053879303
O	-4.4612408322275865	3.171254202648276	-0.0026252073879303728
O	-2.231507622227586	3.483389602648276	-0.5920691133879303
O	-2.727273832227586	4.791289372648276	-0.7342244642879303
O	-1.593637636227586	3.1118356126482762	-1.8878449273879303
O	3.493124687772414	3.8266609426482763	-1.4832084633879303
O	-3.313962222227586	-1.6345137573517237	0.6967009026120696
O	-6.276400152227586	-4.2819310573517235	-0.2972323463879303
O	2.545217337772414	4.709931792648276	-1.8023829803879303
O	-2.106030340227586	-2.924550087351724	-1.0909491173879302
O	-3.879275702227586	-4.988590207351724	-0.9249855343879303
O	1.253435067772414	4.417775542648276	-1.6598974153879302
O	-4.2472096422275865	-3.5174257773517237	1.3617315826120695
O	-4.738413892227586	-2.436404717351724	-1.1842851683879303
O	0.830022967772414	3.1407793226482763	-1.5977529163879303
O	1.8024048477724142	2.183142672648276	-1.3706434883879304
O	3.109070147772414	2.585214622648276	-1.1857432633879303
O	4.090026067772414	1.5846679936482762	-1.0346786313879304
O	1.2583592377724142	0.9642838718882761	-1.3613219773879304
O	-0.07867580222758597	1.1791703736482761	-1.5026391153879304
O	-0.324912681227586	2.4779099226482764	-1.6790428573879304
O	1.241275317772414	6.368234522648276	-12.51791712738793
O	-1.807555660227586	5.2059649526482765	-10.49639491738793
O	-1.558866434227586	6.4171620126482765	-6.90092400738793
O	-4.413095622227586	4.554221162648276	-5.309313687387931
O	-6.793798212227586	1.6358835416482762	-5.31217504738793
O	-7.767873582227586	-0.9433817573517238	-2.7106415673879303
O	-9.786810322227588	-4.1432227273517235	-2.53253565738793
O	-7.198363932227586	-5.883410967351724	-4.702218977387931
O	-7.255404612227586	-3.0531657473517235	-7.190963597387931
O	-4.861733922227586	-0.4458152573517238	-8.48686342738793
O	-1.373621806227586	0.4254663826482762	-7.286719147387931
O	0.9712194477724139	2.4303445426482764	-9.54995857738793
O	4.109913727772414	4.349963592648276	-8.724256097387931
O	10.925766307772413	4.756086792648276	-7.39872097738793
O	8.789958187772413	1.7622402156482762	-6.45463028738793
O	5.111738167772414	0.8251667366482761	-6.0225997873879304
O	3.534516577772414	-1.858488957351724	-8.22070545738793
O	0.425467097772414	-3.662910417351724	-6.99626567738793
O	-1.468314470227586	-5.756108627351724	-9.57268013738793
O	-3.390721072227586	-8.794436887351726	-8.38099412738793
O	-5.854202792227586	-9.817447007351724	-11.11972202738793
O	0.5934562577724141	-11.558520907351724	1.4832892226120697
O	3.207211827772414	-13.306482907351725	-0.7040780228879303
O	6.382657827772414	-2.353836447351724	3.8921850526120694
O	8.663563767772413	-6.373909747351724	-1.0337574283879303
O	11.286546907772415	-5.713108067351724	-3.7342436973879303
O	3.9990552477724144	-7.147839577351724	-6.370172397387931
O	6.754278467772414	-4.526640637351724	-6.454409167387931
O	7.061863357772414	-2.677272517351724	-3.1474865873879305
O	9.052767507772415	0.18387877864827618	-1.7071401373879302
O	7.347795757772414	3.5100912226482763	-2.3115297073879306
O	6.468081767772414	6.152422242648276	0.28531303261206964
O	4.961779397772414	9.651842062648274	-0.023281552387930282
O	1.4850793477724142	9.664821572648275	1.4760083326120697
O	-1.332799130227586	7.816566792648276	3.12571915261207
O	-2.0048193372275858	8.180550722648277	6.87179520261207
O	-5.464326752227586	9.405260242648275	5.81328632261207
O	-3.714976282227586	12.481202492648276	4.36728511261207
O	-3.343344852227586	-8.064007657351723	12.46128607261207
O	-6.957732712227586	-7.366579397351724	13.51739197261207
O	-7.781579972227586	-4.892427977351724	10.75016897261207
O	-5.280637312227586	-2.090213827351724	11.04009597261207
O	-6.665431572227586	1.0640445686482762	9.39624657261207
O	-5.177180512227586	4.356907622648276	8.23097679261207
O	-5.793527002227586	3.783009542648276	4.492475022612069
O	-3.327329842227586	0.8871697090482762	4.730939762612069
O	-0.47423933222758596	2.707986102648276	6.48090675261207
O	1.8561418377724141	4.988906442648276	4.530551812612069
O	4.281613427772414	7.711416942648276	5.505821872612069
O	8.907160707772412	7.311704972648276	8.67413183261207
O	5.885897277772414	4.9809524526482765	8.64104033261207
O	5.085830127772414	1.539316784648276	7.23863754261207
O	2.114321627772414	-0.7999947373517238	7.541528932612071
O	0.9976525077724139	-2.1556015573517238	4.148899602612069
O	-0.862842172227586	-5.315164577351724	4.996322512612069
O	-1.1665730680275859	-8.237758377351724	7.4156865926120705
O	-4.854505702227586	-8.028878267351725	8.178166832612071
O	-13.770401792227585	-0.14216018735172375	6.08714182261207
