89

O	-2.2104112496905453	0.7063307420727276	-3.6100158558909086
O	-2.1671663066905453	0.01767909507272769	-2.3389267658909088
O	-3.3697735816905454	-0.4834121949272725	-1.8985066248909086
O	-4.727598781690546	0.19592125907272762	-1.8291487328909088
O	-4.665961201690545	1.0377412759727276	-2.9753678958909084
O	-3.461501151690545	1.4161162900727275	-3.633422825890909
O	-1.0599078906905453	-0.18397696492727245	-1.6010420308909088
O	-1.5875957286905453	-0.040128784927272454	-0.3094599118909087
O	-3.1548117816905457	-0.5283263449272724	-0.1547687158909088
O	0.3354055783094547	0.31083221707272757	-1.4001642988909087
O	0.9963429283094545	0.5882626090727276	-0.3895009918909087
O	-1.2759902926905453	0.3109359600727276	1.0185518841090913
O	-0.4091077026905453	-0.8125479749272724	1.3112787641090913
O	-1.3863051960305453	-1.6444090249272723	1.6161826041090914
O	0.036274078309454616	-0.31835571492727244	2.641630194109091
O	-0.7610636446905453	0.00274034507272769	3.676302864109091
O	-0.19242753169054527	0.22108042707272757	4.898047314109091
O	1.1065641083094548	-0.12667509492727236	5.061684964109091
O	1.8712535183094547	-0.31773966492727235	3.9085679441090915
O	1.2503902883094549	-0.8440112949272724	2.738673984109091
O	-2.1319031516905453	-0.11647129492727237	3.421906884109091
O	-2.8363777216905453	-0.6163706149272723	4.5130345241090914
O	-2.3302399146905453	-0.26986539492727246	5.732446184109092
O	-1.0269776506905453	0.14977706007272762	5.9530388241090915
O	-5.722782001690545	0.6838903450727276	-3.916124545890909
O	-6.821679491690546	0.22093041007272762	-3.460139235890909
O	-5.020555401690546	-0.5897953749272724	-4.3300850158909086
O	-4.351882321690545	0.18781376107272763	-5.411286505890908
O	-4.732806421690546	1.2289668900727275	-6.198806045890908
O	-3.660166241690545	1.5455686560727275	-7.08954188589091
O	-4.1676210716905455	1.3960056410727275	-8.47535586589091
O	-5.3147267816905455	2.2825215550727274	-8.836255105890908
O	-6.414205931690546	2.0295417700727274	-7.8554080558909085
O	-5.966252741690546	1.0753042422927277	-6.832912775890909
O	-6.116153011690546	14.425994175072727	1.0204764341090913
O	-8.444594851690546	14.015044175072727	5.856624994109092
O	-1.4007389011105453	11.226254775072729	-4.040617445890909
O	-4.199267631690546	9.071439095072728	-2.556674345890909
O	-4.075984631690545	5.733620665072728	-4.058826905890909
O	-6.716472901690546	4.0069873250727275	-1.8409865148909086
O	-8.440793561690546	3.2370005150727277	1.2959251441090913
O	-9.029563921690546	0.3937372480727276	3.574784084109091
O	-8.074592891690545	2.1553987250727276	8.418637554109091
O	-8.411162671690546	4.8506671750727275	5.960339734109091
O	-6.337895731690546	6.347463255072727	3.2410281641090912
O	-3.0037902416905453	5.434145175072727	1.8072582841090914
O	-1.0309113156905454	7.933737705072728	-0.32996567589090875
O	1.8030955983094548	7.378555875072728	-2.7826289258909087
O	4.659721008309454	9.775545955072728	-2.3154381258909087
O	12.191491868309456	6.510241375072727	-4.492525195890909
O	8.433827888309455	6.279038615072727	-4.341633375890909
O	6.7615183783094555	5.013628155072728	-1.1537755488909087
O	3.3143749583094544	4.3797460850727274	0.35969477410909123
O	2.1397306883094545	6.325338715072727	3.3760219541090914
O	-0.6056910656905453	4.968577305072728	5.5857211241090905
O	-2.312787409690545	7.273194805072727	8.06889847410909
O	-3.806467721690545	5.7762932250727275	11.226241404109091
O	0.8306967883094547	-4.302134074927272	12.603812004109091
O	3.560844778309455	-2.0150463149272726	13.930772504109092
O	5.430718868309455	-5.719488174927273	2.456483244109091
O	8.128286038309454	-0.9646910249272724	6.4753001641090915
O	10.492050568309455	1.9079447920727275	5.6020258241090914
O	3.412510638309455	4.107327695072728	8.36750647410909
O	5.7547923083094545	4.491651845072727	5.394546564109092
O	5.973834808309455	1.3947308030727277	3.211395674109091
O	7.498003638309456	0.20196044007272762	-0.029424515890908776
O	5.344211748309455	0.9569393330727276	-2.977103975890909
O	4.273896588309455	-1.5397617049272725	-5.6871904358909084
O	2.265962178309455	-1.0349606749272726	-8.87634401589091
O	-1.1290897596905454	-2.7531135949272723	-8.541932805890909
O	-3.652115891690545	-4.740228244927273	-6.429613955890909
O	-4.311327591690546	-8.358858274927272	-6.918019955890909
O	-7.950769971690546	-7.4118466049272715	-7.567118765890909
O	-6.695221031690545	-5.653122524927273	-10.74677407589091
O	-6.842126991690545	-10.081820924927271	-2.7990678358909085
O	-7.557462301690546	-6.568019084927272	-1.7760922478909087
O	-4.691827711690545	-6.820527484927272	0.6184612441090913
O	-2.0307426266905453	-8.237985394927271	-1.7162845698909086
O	-0.10111153169054532	-6.052093754927272	-4.1417170758909085
O	1.9513163683094548	-6.739960424927272	-7.2696528058909085
O	4.610274748309454	-5.032524094927272	-9.352362545890909
O	5.195886108309455	-9.910208324927272	-11.198919905890909
O	6.690642178309455	-9.688648324927271	-7.72966371589091
O	4.011890258309455	-9.939126424927272	-5.020118375890909
O	3.6615607883094543	-8.835074154927272	-1.4239979538909087
O	1.0588798483094548	-9.442834024927272	1.2559221541090912
O	0.08342337830945468	-6.262949004927272	3.0687956641090914
O	-1.4178713542905452	-7.461354864927271	6.256448954109091
O	-1.1469077876905454	-10.005827524927271	9.081349004109091
