83

O	8.722520565877884	-0.7098192931346152	-5.219588108188461
O	8.347727015877885	-1.9996349331346153	-4.489312058188461
O	7.0066953058778845	-2.455420843134615	-4.493969968188461
O	6.307606305877885	-2.982543963134615	-3.405176978188461
O	5.211421275877885	-2.221950653134615	-2.7320129181884605
O	5.400609665877885	-0.8487283531346153	-2.719247878188461
O	6.000572005877885	-0.3823431331346152	-3.7491386381884606
O	5.771802625877885	-0.023362503134615187	-1.5803595181884609
O	6.998655595877885	0.5009464788653849	-1.3594819831884608
O	7.017124395877885	1.2994813988653848	-0.2510240711884608
O	5.881969075877885	1.5853720088653849	0.4870346698115392
O	4.600659055877885	1.2614400784653848	0.04057259481153919
O	4.618350075877885	0.4629679588653849	-1.0639714011884607
O	3.720247925877885	0.8524673948653849	1.1000466918115392
O	2.7097675658778853	1.5280164688653848	1.583353141811539
O	2.037816745877885	0.5751813118653849	2.3711597718115396
O	0.6658355368778851	0.7897782188653848	2.734684141811539
O	0.03639424187788509	2.0467429928653846	2.6072791618115394
O	0.6719400548778851	2.916937546865385	1.988395781811539
O	-1.3349454541221148	1.969880528865385	2.346785011811539
O	-2.1421990341221147	3.1145877968653846	2.4009786418115393
O	-1.707623894122115	4.179410466865384	3.1308012718115394
O	-2.4952461841221147	5.288602266865384	3.286303121811539
O	-3.5506631541221148	5.485763026865385	2.404636231811539
O	-3.7692714141221146	4.492845146865385	1.4659154518115391
O	-3.4115553641221146	3.203641956865385	1.842922701811539
O	2.299460825877885	-0.5842723031346151	1.621929191811539
O	3.5848571958778854	-0.4502286931346151	1.3847071318115391
O	7.260565265877885	-3.3548984131346153	-2.4598684681884606
O	8.586673085877885	-2.8885800431346147	-2.4298247281884606
O	8.714801585877884	-1.716238433134615	-3.181961838188461
O	0.8358842968778851	11.331907426865385	-10.399633288188461
O	-2.5869646541221147	14.982558326865385	-8.58776717818846
O	0.4678711865778851	3.130394766865385	-11.204475688188461
O	3.519507455877885	4.4570691468653845	-9.45225964818846
O	3.6372755558778853	6.7074194368653846	-6.343458848188461
O	5.160530315877884	5.141404736865384	-3.3813700681884606
O	4.426538365877885	7.423436236865385	-0.5217980493884609
O	2.2952395958778853	10.242458676865386	0.8128411418115391
O	0.4640851380778851	10.748289636865385	4.07048532181154
O	-0.6145150841221149	9.972001206865386	-2.2868991381884607
O	-0.533445659122115	6.151292346865384	-2.416269508188461
O	0.4023798170778851	4.398466976865385	-5.654938628188461
O	1.3387091648778853	0.8814012718653849	-6.375762248188461
O	-0.4765485711221149	-0.770869623134615	-9.289810488188461
O	-0.9061901741221149	-4.066811813134615	-11.112825988188462
O	-1.258538634122115	-9.272355773134615	-8.301671508188461
O	0.08593346287788511	-5.963609793134616	-7.21832026818846
O	-1.961660284122115	-3.656271763134615	-5.011500218188461
O	-1.6506498141221146	-0.23667309313461504	-3.2286334981884606
O	-4.201391464122115	2.484316506865385	-4.330898438188461
O	-4.960419844122115	5.322161106865385	-1.9715267981884608
O	-6.720286744122115	8.388831516865386	-3.2805336281884605
O	-3.9486200141221146	-4.193131533134615	6.162183691811539
O	-8.944087204122114	-3.6771847131346154	1.7395183118115394
O	-9.428085894122114	-5.2974617331346145	-1.688331288188461
O	-11.728296644122116	-2.8622083231346154	-3.505666638188461
O	-13.213800444122116	0.6285899728653849	-3.2196616381884606
O	-10.082914044122115	5.2944132568653846	-4.108723028188461
O	-9.142589994122115	2.564905206865385	-1.654067058188461
O	-7.3902334241221155	-0.47647773313461506	-3.0815597881884607
O	-5.2792349141221155	-2.314465273134615	-0.5276780701884608
O	-2.912451034122115	-5.234938843134616	-0.3848237791884608
O	0.7127897408778852	-4.1476450731346155	-1.148632548188461
O	3.621200555877885	-4.9025540231346145	1.1600885518115391
O	7.328029905877885	-4.150347113134615	0.8221067918115392
O	8.492410145877885	-1.4916157731346154	3.174351621811539
O	7.6915559658778845	0.9183956588653849	6.05925763181154
O	5.211151635877885	5.430346326865385	9.260183101811538
O	1.8296011358778852	3.6860474268653847	9.316851051811538
O	2.977378655877885	0.07632028686538495	9.70652591181154
O	4.337753035877885	-1.9146157331346152	6.76084521181154
O	6.346445105877884	-5.031532383134616	6.33214272181154
O	7.058036955877885	-7.656562963134615	3.689949711811539
O	10.379594895877885	-9.339528273134615	2.887759801811539
O	9.288210185877885	-12.461081073134615	4.7805134118115395
O	8.887861135877884	-10.278381773134615	7.886337291811539
O	5.0921977358778845	-10.256840773134615	7.892787071811539
O	3.6786740058778853	-7.009530193134614	9.31011571181154
O	0.4389316161278851	-5.041108933134614	8.985031701811538
O	-0.9455710241221148	-1.9117582031346152	10.638707811811539
O	-2.3557532941221146	0.5727342068653849	8.140119171811538
O	-4.763527914122116	2.680400626865385	10.100794211811538
