31

O	46.68639383599881	14.485024755165085	30.95407710404339
O	47.09273629051502	17.083171935388954	30.343257501914405
O	46.751228760771234	18.436165327380092	28.070416123756086
O	48.96391771229759	13.227350517726817	30.89846548961809
O	47.61554197375354	13.15179836858743	31.170314700704626
O	49.34782599212757	11.762365989357145	30.60930975283239
O	48.84547964956981	11.0681021150848	31.724028357152346
O	48.42250963338102	11.404980943093186	29.44347620224814
O	49.06262179883404	11.536639884479495	28.22437692969467
O	48.06164830977691	9.988597697805693	29.786137228746668
O	49.03580018104267	9.18505550695034	29.172507055779025
O	48.13817799306405	9.982611228443202	31.282483124211666
O	44.445161526201495	6.7503999322420505	32.94619236788224
O	45.93731994219399	14.681286579637142	29.682496718727755
O	47.0809718691577	18.362964195830983	31.061312770838793
O	45.326243621634156	18.33032860248116	28.51398121271072
O	45.69006826711602	6.4724050672655	32.48718766785335
O	45.54141424151446	14.792223674011424	32.132504317019105
O	45.47879791154525	16.81055721487804	30.04588688820222
O	46.86841407638917	18.064672605878144	26.498114827170618
O	46.535177277813894	7.401992112470305	32.04341966794818
O	47.817785346181196	17.197337147550343	28.7663555454727
O	47.75193784802957	15.772129479727592	31.033964881892675
O	47.318519235092694	19.882207517419438	28.606741629417602
O	46.1787192152818	8.683018143401998	32.13459306125854
O	44.913580439984365	8.984070557425328	32.6336066703081
O	44.01726641469813	8.009284737726233	33.04693961501159
O	42.76052613861757	8.34220727716832	33.584164262799234
O	44.764977218994616	10.306895737728349	32.65668941873566
O	45.9493449688699	10.791514733019861	32.26172068708069
O	46.80509517957093	9.854353000278504	31.851857956437424
