89

O	-3.634465242732143	-3.9911350597607145	-1.7788528002678565
O	-6.030833542732143	-3.2236433597607146	-2.2399616902678563
O	-1.2929404700321427	2.7313353002392855	0.5209151397321434
O	-1.7974685987321428	2.2184827162392855	1.7554614497321432
O	-2.804806332732143	1.2002137212392854	1.3447471097321435
O	-2.021321645732143	0.5290132802392855	0.3068255497321435
O	-0.9799293427321428	1.4317919442392855	0.2566396597321434
O	-1.744033362732143	3.8208334502392853	-0.2350641202678565
O	-0.9893462657321428	5.055960550239285	-0.2382787852678565
O	-0.9024330117321429	6.4641864702392855	-0.39559262326785655
O	-2.2444472287321426	3.5224085102392855	2.268727749732143
O	-2.8254168127321426	3.5685534602392854	1.0287048897321434
O	-4.137894362732142	4.523244300239285	0.8927404497321434
O	-3.864258892732143	5.960796150239286	0.9853247197321435
O	-2.908054522732143	5.9236122702392855	1.9653713297321433
O	-1.7027156987321428	4.768504550239285	1.8635057497321437
O	-4.965414912732143	6.876168220239285	1.1183186497321433
O	-3.039378342732143	-0.11820809976071445	-0.3968588042678565
O	0.20073985726785715	1.9596402092392855	1.0027587697321434
O	-2.937257312732143	-1.4374017897607148	-1.2355157972678565
O	-3.9573468927321427	-2.4149667597607145	-1.1984042672678565
O	-5.326770032732143	-1.8505646297607143	-1.4075723282678565
O	-5.018040612732143	-0.5799241397607144	-2.0424505102678565
O	-4.436181352732143	0.3624164802392855	-0.9212282882678565
O	1.1530178572678573	1.3127102582392856	1.8886574797321434
O	2.649323127267857	1.1265913532392855	1.5022096897321433
O	3.317640597267857	2.4421704072392854	1.5057701197321436
O	2.198262107267857	3.2923420302392854	1.3250407397321433
O	0.9826779572678572	3.0794503202392853	0.6022658097321434
O	2.6906153972678575	4.620704950239285	1.0849059797321434
O	2.256059367267857	5.372069310239286	2.2745989997321434
O	0.8189676672678572	4.809431180239286	2.6129476897321435
O	0.997090227267857	6.039486310239286	1.9891172897321436
O	-1.707813557732143	7.192341460239286	-13.540859690267856
O	-6.551976522732144	5.040600610239285	-14.598748090267856
O	5.546972577267857	4.183322920239285	-10.946189390267858
O	4.360526697267858	7.114309750239285	-8.869347840267856
O	0.894988897267857	7.328928160239285	-7.288019220267857
O	1.3787611872678571	7.692299710239285	-3.4981371602678566
O	-2.391445812732143	7.473745480239286	-2.8792866902678567
O	-6.054038352732142	5.951324260239286	-3.343654540267856
O	-8.527614212732143	3.8785608202392856	-1.0057456832678566
O	-11.716709512732143	2.0550526922392853	-1.3930368322678566
O	-10.032823502732143	-0.22180845976071462	-3.921119270267856
O	-8.444966522732143	2.5059398182392854	-5.838536920267857
O	-4.899987302732143	3.6970389202392857	-6.539482010267856
O	-1.6396090037321427	2.4417109942392856	-5.212134920267856
O	1.7090706972678573	3.3765469102392855	-6.8793521802678566
O	5.264164137267857	3.251182850239285	-5.569059570267857
O	7.656366037267857	1.6394024653392854	-7.9880691002678565
O	11.073599187267856	-0.12028044976071461	-4.060809720267857
O	7.598298477267857	-1.7004907897607147	-3.865193810267857
O	3.871097847267857	-0.6817767597607147	-3.629467550267856
O	1.5976115072678572	-1.7553360997607144	-6.486124760267857
O	-2.053116117732143	-1.9702337597607145	-6.018920620267857
O	-4.452580102732143	-2.191658779760714	-8.903274920267856
O	-7.789279422732143	-3.9761624197607146	-8.429394100267857
O	-6.7942217727321434	-10.515125889760716	0.8480329697321434
O	-5.239828412732143	-12.672038189760714	-1.8817245402678566
O	2.5164006872678573	-6.197350949760715	5.210659719732143
O	2.988552917267857	-9.658176089760715	-0.5980800722678565
O	5.855967187267858	-9.739051089760714	-3.0548425702678568
O	-2.122633650732143	-6.230855409760714	-9.580824810267856
O	-0.8002904227321428	-6.836338379760714	-6.045809510267857
O	2.7440798172678575	-5.928777559760714	-5.310042530267856
O	3.6265789972678575	-5.286895109760715	-1.7391781882678565
O	6.544347017267857	-4.093455039760714	0.3364514797321434
O	6.625954857267857	-0.2991843897607145	0.5378654097321434
O	7.078475437267857	1.7835123527392855	3.657829979732143
O	7.550352957267856	5.5340006202392855	4.172156609732143
O	4.4563886472678576	6.970322920239286	5.782257429732144
O	0.9968380072678573	6.3762596702392855	7.121127719732144
O	0.3293282872678571	6.227555790239285	10.901952809732144
O	1.1366573372678572	11.283472060239285	9.407085209732143
O	-9.800600202732143	-7.718365839760714	12.239007309732143
O	-5.130153702732143	4.816623550239285	8.037674079732144
O	-4.385053412732143	1.0628299662392855	7.299213049732144
O	-1.0759577707321428	0.8568036752392855	9.404481109732144
O	2.2196566872678574	2.0965427642392855	7.734376969732143
O	5.5528556072678565	3.0146240602392855	9.117829489732143
O	9.119075187267857	3.3422280702392855	8.013535469732144
O	9.067786687267857	-0.28512461976071446	11.907362709732142
O	5.3338372872678566	-0.7803775997607147	11.489754009732144
O	3.050568457267857	-3.0022219997607147	9.425961609732143
O	-0.7018429157321429	-3.5657203497607144	9.313045609732143
O	-2.0924538597321427	-3.5654688597607143	5.739771379732143
O	-5.374345082732143	-5.248431859760714	5.745120579732143
O	-7.391890712732144	-7.924749589760714	7.365650439732143
O	-10.573927452732143	-6.021626989760715	8.106263659732143
