27

O	43.49143631314604	12.868750972008584	36.746640477598895
O	43.783295010181874	12.004859885995222	35.31204158907984
O	43.52398775162021	12.990972820497033	34.413027755432644
O	43.30817568531517	12.59997632655582	33.1731639450828
O	43.480155699050194	11.22283710638264	32.82245025603721
O	44.00913423327053	10.246037611033039	33.599464907991496
O	44.03308418391054	10.752838747115913	34.86607911623972
O	44.11001724753342	8.799487363433848	33.21338743970574
O	43.200537323910076	8.378555516269977	32.27723467880595
O	42.62816422656553	7.136084640792353	32.60055646424975
O	43.51707724017898	6.650953529015647	33.304867934744316
O	44.62393808308249	7.4723623259473655	32.71905641426028
O	45.69383146409824	6.770569419246626	33.28369239219855
O	46.22413358029745	5.651190794835381	32.77332881645261
O	46.70468123993223	6.436234216625763	31.713110884798763
O	47.05513674666558	7.5910549076452885	31.821324220903684
O	46.8503287917783	7.724548836767279	33.2460073584273
O	46.27834193928361	8.343735937283839	30.880886210007368
O	47.03225262621501	8.415059065359099	29.822826835716974
O	45.927419740595575	9.63661609401656	31.147269786144648
O	46.2037720330156	10.95774375957197	30.867282765383543
O	46.585259402035625	11.479786689382856	32.16683997759493
O	46.212953968266895	12.74453527657115	32.39582223854524
O	46.61095894440793	13.583828322666557	33.39844761196496
O	46.78893884465535	12.88547673896828	34.57280127827813
O	46.985271794306534	11.54124901629852	34.424517485841825
O	47.000053516561266	10.821131767790874	33.262347786336136
