25

O	50.191825474576255	3.797966203017798	30.167821528274963
O	46.247907001408066	6.100586281434846	31.03305697890432
O	45.52171956045916	5.315720962998032	32.779604657063224
O	49.74910924954302	4.994742937641536	30.767948812877876
O	48.41601275119269	4.934522941626517	31.28552949751167
O	48.039434556007116	3.6128063751637507	31.58622123764424
O	48.97527358491929	2.6228723776441134	31.78713493536632
O	49.92076556844885	2.600712882687379	30.766235484044216
O	48.80139423726064	9.077168955402344	30.21819030610033
O	45.36468822564179	6.374909369312526	32.144834322776106
O	47.63431244249121	6.089365696058506	31.058008271021723
O	45.31429105043232	7.729788310697503	32.74697391742904
O	46.048554186351545	8.607539318110103	32.06823138410241
O	46.20560742256421	9.87726690888838	32.5276441077392
O	45.055821379947666	10.500701522929926	33.0132974779942
O	43.99626955526586	9.685220355368191	33.36511999874862
O	44.13162299824257	8.358761250274169	33.11754165039452
O	49.08711494153067	1.4999710831311424	32.572001378571905
O	50.38691760742859	1.0400769553873763	32.99391321124362
O	50.4327124853942	6.084062208432492	30.3080159129434
O	51.84228793637399	5.854404092597727	30.019034209190302
O	44.98720531508398	11.901745948727093	32.77894656467664
O	44.710304118741774	12.966825754263066	33.08345736689749
O	47.20768808567026	10.529264266008607	31.821403945821515
O	47.6853590135085	10.083074573245407	30.655175075073814
