23

O	47.386712769363605	13.030702741976585	30.108315989101143
O	47.965318437581	12.136151008995425	30.99657019627237
O	46.83594612942677	11.465832611412122	31.5687690423782
O	47.02132136621381	10.234186777598522	32.01371969367297
O	46.07263251011822	9.251223632671389	32.160112538646196
O	46.702291307983	7.924433541711356	31.8610158769113
O	47.87670825161818	7.720216150902901	31.174928996793636
O	48.08394432912387	6.349297882537174	31.17074103226033
O	49.31177593535656	5.944699422197424	30.619371398415016
O	50.24423391686556	6.824903782333848	30.065601700176305
O	50.014833077311664	8.217827263141945	30.05824341769957
O	48.87794299452587	8.502721208165731	30.81011573945733
O	46.909416213671584	5.775677786002533	31.430997938422948
O	46.10423475670492	6.860151071544535	31.310169048928895
O	44.821790516516685	9.604373675450576	32.36782720002669
O	44.58082006020543	10.762378138688021	31.717970015131108
O	45.58264953312588	11.65149954373701	31.206629982624424
O	49.1562620954151	11.584821016242865	30.323909774338834
O	48.83144952937103	11.164174056416773	28.87373922928054
O	50.15681147528294	10.85851308582434	28.18382936041256
O	51.36040351838314	11.129167379273236	29.088770123019206
O	51.241900434914776	12.63754726472446	29.287540632027582
O	49.97209363701736	12.857083925584963	30.026411000379596
