30

O	52.123727291281085	0.38045391898057357	29.634285305175503
O	53.1511189087712	1.1461198646915784	28.848838126598114
O	54.35710736009576	1.474758393550255	29.684153086595572
O	52.63578352827753	2.425783983556107	28.352202729993643
O	52.4094181833258	3.2879064235286997	29.483524618943363
O	53.48883173909028	3.735912919694089	29.986745430470375
O	51.427205862974525	4.3113115860520335	29.48903085808409
O	50.87346791830346	4.482973341409517	30.85963289308842
O	50.20036697456009	3.2067228496474254	31.276712898570167
O	48.93101762469606	3.2626420804256524	31.99864839833857
O	48.075834457303564	4.444436663899199	31.79718167924971
O	48.51849850501193	4.853808862541607	30.468039657180096
O	49.82777321392053	5.4622927913822945	30.553237537837372
O	46.84097313856912	4.696673307226527	32.34358543803499
O	46.15622694942604	5.928693682395761	32.59568459783388
O	44.93015488612563	5.921216255309999	33.18730913913715
O	44.29677191796791	7.0968546756546	33.43287948354266
O	44.84571939526633	8.31284858995844	33.134977556929464
O	44.296217642363814	9.528509347979142	33.53624957695661
O	44.98888595139433	10.724127652214591	33.33207714107572
O	46.111052888361016	10.647218460569038	32.55801230240453
O	46.5630699895241	11.772442360996973	32.18627090481328
O	46.512740370684476	9.469821499121617	32.00888189912164
O	47.40815026601834	9.559213919667096	30.907904670062642
O	47.753045326730955	10.957242327713006	30.52753615503932
O	49.23498923315045	10.99387385874699	30.277681847310763
O	49.58209087356863	9.551913764148233	30.034404887175363
O	48.615025960844655	8.724432729630843	30.87549605289721
O	46.06869235081169	8.301973767741817	32.47905110452029
O	46.64853620776328	7.133322198774664	32.199424526271024
