87

O	-0.9279083654357142	-2.3685764166767864	4.498417643821429
O	-1.5952571254357142	-1.8474626666767864	3.3438750138214286
O	-2.935870025435714	-2.0507127766767863	2.9677665838214287
O	-3.1505822654357143	-1.3158485366767865	1.6885531238214289
O	-1.993469855435714	-0.8132645166767866	0.8029585798214287
O	-0.6178835184357142	-0.7851953066767864	1.2565803238214288
O	-0.6923347454357142	-1.7465520766767866	2.363666423821429
O	0.7322585765642858	-0.5455647656767865	0.5616586398214288
O	1.4047999745642858	-1.4145326566767866	1.5434885838214287
O	2.433083944564286	-0.37008689467678646	1.2804362938214287
O	1.385119274564286	0.7080358073232136	0.34845927582142877
O	1.722626374564286	-0.5039909496767865	-0.17209581717857123
O	2.175734844564286	-0.4716974096767865	-1.5064423161785712
O	2.750817484564286	0.7379631133232135	-2.329158866178571
O	3.556698724564286	1.2660781573232134	-1.0919483861785713
O	2.6108813845642858	1.3951819633232136	-0.01515551917857122
O	0.4504870145642858	-2.2571073366767864	4.426916803821429
O	1.578396454564286	-3.1439334066767866	4.499725353821429
O	2.2376891045642857	-2.9907190566767863	5.883886263821429
O	3.140040414564286	-1.8240403666767864	5.761558633821429
O	2.631348954564286	-0.9184808166767865	4.717266373821429
O	1.2040835945642858	-0.9624125666767865	4.354161283821429
O	4.468964864564286	-2.0333966066767863	5.944715703821429
O	3.357017544564286	-1.1189962666767865	-1.4566855761785713
O	3.518965604564286	-1.6394354366767865	-0.20780128417857122
O	4.664012644564285	-0.8199884966767864	0.3143015288214288
O	3.844909894564286	-0.9174102866767865	1.6126073938214287
O	5.471450754564286	-1.1421825466767865	2.591467773821429
O	6.923887754564285	-0.2159183136767865	1.3292160238214288
O	5.433281334564286	-0.7102245866767866	3.3588480438214288
O	5.170472114564285	1.2371940613232135	1.6799657538214288
O	6.193650264564286	-14.087959026676787	-3.834085986178571
O	0.6709994485642858	-12.949093726676786	1.3517929138214289
O	3.250516504564286	-10.177041326676786	0.8480556668214287
O	2.495427884564286	-7.432408536676786	3.2914969238214287
O	4.974437924564286	-5.033445416676787	2.035019733821429
O	7.054701184564285	-3.3741772166767863	-0.8867575861785713
O	7.118238234564285	0.36282795522321354	-2.1947201261785714
O	8.857180534564286	2.0060494733232135	-5.11846247617857
O	6.540916564564285	0.1010769653232135	-7.449277026178571
O	7.434159014564285	-3.1882323666767864	-5.851373656178571
O	5.524254394564285	-5.878930266676786	-3.9125442661785717
O	1.947946404564286	-5.783696006676786	-2.611504586178571
O	0.12259682996428582	-8.886033996676787	-1.3654790561785712
O	-2.934084015435714	-9.284705136676786	0.8528330348214288
O	-5.393669175435715	-11.776603426676786	-0.5988079331785713
O	-9.816618335435715	-9.469702506676786	1.7910416138214287
O	-8.102743815435714	-7.199876926676787	-0.7252331811785713
O	-4.617906975435715	-5.796923906676787	-1.4938719561785712
O	-2.869329745435714	-6.578018206676786	-4.777703766178571
O	-0.24532490943571417	-4.438635656676786	-6.326817116178571
O	1.8982011845642859	-5.666429866676786	-9.221005586178572
O	3.3415821345642858	-3.0806994466767863	-11.636911956178572
O	6.206799124564285	-4.708455746676786	-13.541886756178572
O	-2.584277125435714	6.148544853323213	-10.713314956178571
O	-7.995178425435714	4.133462933323213	-1.0855743061785712
O	-4.087989175435714	-3.2263462666767864	-9.146801446178571
O	-6.493675105435715	-4.6547439666767865	-6.602430396178571
O	-7.218117165435714	-2.3414075366767864	-3.705109466178571
O	-9.263585015435714	-2.3694220866767863	-0.5456801221785712
O	-7.263141635435715	-3.6843458066767862	2.3164653338214287
O	-6.713103365435715	-2.0306651266767863	5.707461303821429
O	-4.817222055435715	-3.147455946676786	8.816253793821428
O	-1.7897120954357142	-1.0017275566767867	9.404218623821428
O	0.4709906405642858	1.7771992833232133	8.190036733821428
O	0.42509042756428583	5.298371883323213	9.736913603821428
O	4.114798614564285	4.642603413323213	10.524608543821428
O	2.979663654564286	1.8714967733232135	12.916010843821429
O	4.480019324564285	14.134014873323213	-1.4195716761785713
O	2.154426204564286	13.039593073323214	1.3287389938214287
O	3.001306144564286	8.435443633323214	6.531240393821429
O	4.2934883445642855	5.375815763323214	4.76340068382143
O	1.587211774564286	6.071921293323213	2.106499783821429
O	-1.425522445435714	6.366220463323214	4.465448953821429
O	-3.169536275435714	3.3341569333232135	6.026436453821429
O	-5.488245435435714	2.7471590833232136	8.921951443821428
O	-10.622660835435715	4.803460343323214	9.623382563821428
O	-7.853905005435714	6.1870627733232135	7.391018073821429
O	-7.082633605435714	6.2289160133232135	3.673870433821429
O	-4.455867725435715	7.9609256933232135	1.5350969138214288
O	-2.8427579554357143	5.599845483323214	-0.9673944561785712
O	-1.466326775435714	7.758392273323214	-3.7030708661785714
O	-1.739233905435714	10.966341173323213	-5.627906726178571
O	1.825520244564286	12.190118273323213	-5.18160857617857
O	15.107370264564285	2.2453600433232137	-3.581466396178571
O	12.700780864564285	7.962968313323214	-1.8027175461785712
O	11.580093964564286	9.497833973323214	1.4797965938214288
