23

O	46.87195728798672	14.316930486296002	30.990931422629885
O	45.4483679317254	14.069034376086964	30.781857854619652
O	46.82861491390015	15.527193803065515	32.08464978686925
O	47.585095352966896	14.867800944571846	29.632803534837567
O	48.8713754270494	12.935931680853523	31.275901706136658
O	47.56777485554031	12.987039187570414	31.657104890977408
O	49.2309771788342	11.534851871897928	30.900301862719143
O	48.804341357175744	10.68696892781148	31.895080198578768
O	48.49560914681099	11.190000956889282	29.6355192010462
O	49.445740030235726	11.243417320465204	28.6027334032133
O	48.1426635071473	9.746833349794592	29.83430193623801
O	49.079883713312846	8.9071794848408	29.209963720777015
O	48.29888828037101	9.551366739973034	31.303806993157888
O	44.872481501998955	5.944484725624071	32.663462355600124
O	46.081892036898445	5.714563340083945	32.15081793176011
O	46.827675717690035	6.755510624521547	31.7955348514361
O	46.501509567655305	8.047389944670012	32.00955191735293
O	45.270426626919466	8.274631343664932	32.61902173631123
O	44.47055638363345	7.1968255622933786	32.884996972011315
O	43.1514348117062	7.4631389725318105	33.308319755435
O	45.02793221327769	9.607277846445626	32.69939469584049
O	46.12816863758421	10.221289494973902	32.26453244239453
O	47.02305490750581	9.27554483411267	31.884644801537153
