38

O	45.416387611756114	14.07968424246809	34.44105292807847
O	46.60717118592162	13.664051726921194	33.6310781409887
O	50.25559675376318	6.424152099501048	29.48170559520765
O	44.80799321406125	9.485148568620446	33.17650709711848
O	44.29358821826972	13.174314807829479	34.04955222885064
O	46.252600457246864	13.172286502417162	32.25979544825579
O	44.79828751563972	10.717599485389986	34.03284618587757
O	49.517616485872296	7.7732566554728635	29.675991700746238
O	45.884242899386045	10.565272140827577	31.485983696439316
O	48.238763049754155	5.904804627967166	30.26945181702889
O	50.82833836046928	4.836902876007675	32.75707621142687
O	49.652174503876175	3.9897999435709544	33.055862386543886
O	47.58173683930981	10.140645656911133	34.019333797006176
O	48.21942641084568	10.799696696577563	33.06870070028098
O	50.67266862592565	6.270099098424148	32.4332313983151
O	48.74465431123805	6.354238173335161	33.36132845969773
O	49.728457610565734	8.577197615459042	32.77828578108014
O	49.37596339854879	5.206168076179317	29.779685555919777
O	47.40023405606723	9.25868486499226	30.686780324738574
O	47.37567893455485	4.438496080100213	32.296368620336885
O	49.28442345518953	9.561925940168384	31.819032122071498
O	50.2484113757035	4.20752615966839	30.079898918247515
O	45.3953118211324	9.475161162236127	31.84755776521066
O	46.28953595068514	8.711362582153797	31.222993199231144
O	44.60914842896931	11.939286094728157	33.345639759727575
O	45.48028680156435	11.940032688017855	32.19125224211568
O	48.13750644579099	8.155968800092628	29.95192470796511
O	47.47745744335452	6.993407676073543	30.62541309200048
O	48.51376937752242	4.933304340785629	33.01576342511498
O	48.448214005683724	9.200705589024585	33.4829772590221
O	49.63493631741417	7.164472402735744	32.575885111652944
O	46.90489852015274	7.677326701949785	31.638860081846815
O	45.00520969121753	4.984147214518821	32.378265767016046
O	46.33269921095089	5.313948977553052	31.98131244014929
O	46.61433453013645	6.388786516718239	32.770273873203884
O	45.98482349204401	7.612549765421791	32.603402015390685
O	44.60541989138765	7.394922527609795	32.20029281253854
O	44.16061525432567	6.114701030467966	32.63794858044007
