67

O	-4.1313154159	0.41327769195999975	2.78091579672
O	-3.3789973959	-0.05814799204000032	1.74903093672
O	-2.0339383319	-0.22524546404000034	1.68439455672
O	-1.4483464299	0.6737466749599997	2.57858146672
O	-2.1087226459	1.1461299929599997	3.66121668672
O	-3.4774675958999994	0.9641072855599997	3.83587415672
O	-0.19526442389999987	0.12164940195999974	0.18090635172000008
O	0.38731550410000004	-0.18035575404000026	-1.0897331332799998
O	1.5052083441	0.4918627749599997	-1.3871924832799998
O	1.9423498141000002	1.7429451879599998	-0.7678746332799998
O	1.3738233141000002	1.9567860759599998	0.6028034667200001
O	0.3517363041000001	1.2188499069599996	0.9447636567200001
O	-0.10717845289999983	1.0174140958599998	2.34864818672
O	-1.3101568779	-0.5368658040400003	0.4392215367200001
O	0.6705843641000002	1.4992722409599997	3.12672838672
O	-1.6183230669	-1.18541064404	-0.7545955132799999
O	-0.5520656858999999	-1.2212507940400004	-1.4469588932799997
O	-1.3063954589	17.99200038596	-1.06171110328
O	-8.7808992259	8.06549837596	-1.2552358832800001
O	-5.8876190959	8.596219915959999	1.2182727257200001
O	-5.1835318959	5.446964985959999	3.11814196672
O	-1.9966762229	6.38001766596	4.95621739672
O	1.1388767541000002	8.47167197596	5.19848451672
O	4.8213846341	7.62415822596	5.57492303672
O	4.1309262841	11.35407108596	2.28695810672
O	0.6406286441000002	10.242394275959999	1.35292138872
O	-0.5343546228999999	7.03946621596	-0.31251935527999997
O	-4.0159932259	6.903948735959999	-1.9095276132799999
O	-6.1274974059	3.99316508596	-2.99886138328
O	-7.6412681059	4.3254769159599995	-6.43951552328
O	-8.7340693459	-3.1740513140400006	-10.381949063279999
O	-7.8648208659	-1.1529041640400002	-7.33161810328
O	-4.3314512059	0.15597261795999973	-6.966197413280001
O	-2.2631617458999997	2.24049696596	-4.548529273280001
O	-0.6958358528999999	5.546588615959999	-5.6357511032800005
O	2.3213801840999997	6.891355765959999	-3.8027498232799997
O	3.3377414641000005	10.502482065959999	-4.44691950328
O	5.0135160041	-5.38594288404	-3.31398390328
O	4.5942005841	-5.03885358404	-7.09944213328
O	5.0332798241	-1.8156959240400004	-9.05191230328
O	2.3254183841	-1.4508467640400005	-11.72194356328
O	4.3726628841	5.2208536059599995	-8.104807103279999
O	1.3828604041000003	2.9804138759599996	-8.76710397328
O	1.4635282641	-0.22180814404000038	-6.70004503328
O	-0.7052085788999999	-3.2187897140400006	-6.08747421328
O	-3.2901538359	-2.7506637840400003	-3.39928082328
O	-3.7854643458999995	-5.0871166940400006	-0.36069268128
O	-6.2328418159	-4.70805327404	2.62297718672
O	-4.3621694359	-3.85718917404	5.82643146672
O	-1.1592895919	-3.0469935940400004	7.65904842672
O	0.6264679641000002	-5.60103024404	9.78344471672
O	0.14515064410000011	-3.12173930404	12.660817836720001
O	-3.6199142158999997	-3.7718648540400004	12.37049773672
O	4.1675413041	-0.41835809404000024	9.45432252672
O	5.8320991941	-1.2592657940400005	6.109803116719999
O	4.340520354100001	-4.723555864040001	5.55688879672
O	0.8200522541000002	-5.21345749404	4.25266964672
O	-1.6477066638999998	-8.06406724404	4.24711295672
O	-4.7499665558999995	-9.17248221404	2.39915410672
O	-3.5396525959	-13.81277871404	4.62865938672
O	-1.1492793599	-13.08209681404	1.78056747672
O	1.6432761041000001	-10.68719321404	2.79015404672
O	3.9601708041000006	-8.22696598404	1.03404317672
O	6.911662044100001	-6.10801882404	2.16155359672
O	6.596654544100001	-2.48434362404	0.9828178847200001
O	10.1618607241	-1.2204880640400004	1.0174467117200001
O	13.8233610241	-2.09660200404	0.65344093672
