77

O	-1.3350540071632648	0.34605950610204195	0.6483098116938775
O	-0.45692153146326475	3.0747256171020423	-6.8500553983061225
O	0.9236315848367354	2.7711491971020417	-7.266189658306122
O	1.5666638148367353	2.4330571671020422	-5.9685383183061225
O	1.0053596248367354	1.073995207102042	-6.010473298306122
O	-0.32175613356326477	1.206519663102042	-5.659349838306122
O	1.4763370748367353	0.748706446102042	-4.674368428306122
O	1.2521376648367353	-0.6247640528979581	-4.654723938306122
O	2.4488054648367354	-1.4868486828979581	-4.444533858306123
O	3.1411980548367353	-1.039303052897958	-3.2442998383061226
O	3.358280654836735	0.370750606102042	-3.3884566183061224
O	2.942456994836735	0.820865979102042	-4.808851318306123
O	3.2095183948367354	-1.7785783528979582	-2.0849165163061225
O	1.9623178548367353	-1.675487462897958	-1.4126163477061227
O	0.9648409348367353	-0.894555412897958	-2.0663083233061226
O	-0.21073910816326477	-0.6797329428979579	-1.3008244943061227
O	-0.27622029916326474	-1.036426412897958	0.12988726169387732
O	1.1297463948367352	-1.127102792897958	0.5934374416938775
O	2.1684802548367355	-0.7881958328979579	-0.3060589983061226
O	-0.48959224446326477	0.728011614102042	-1.5877595983061226
O	-1.4042326851632647	1.304308552102042	-2.5311004783061226
O	-2.6347015051632647	1.791108708102042	-1.8498013003061227
O	-3.436756375163265	2.6640578171020417	-2.7321697683061226
O	-2.726001925163265	3.2779282271020422	-3.8834506683061223
O	-1.3455999091632649	2.9780469171020423	-4.0607970683061225
O	-0.6890882761632648	2.682189687102042	-2.8228030483061226
O	0.6627873248367353	2.065009657102042	-2.961344678306123
O	0.7326173648367353	1.547143830102042	-1.6320627363061226
O	-2.1276760551632647	-8.554949412897958	-9.260275468306123
O	-3.839074255163265	-5.119073652897958	-8.986198898306123
O	-1.3667003671632647	-2.5285910628979584	-7.853440608306123
O	-3.675341875163265	0.44416258310204204	-7.1921427383061225
O	-7.0833810051632655	1.826556499102042	-6.437425918306122
O	-8.449542095163265	4.188747877102042	-3.8193432283061224
O	-11.560541995163264	0.324464718102042	-4.5353369483061226
O	-8.824027015163265	-1.992719322897958	-5.710349368306122
O	-5.8267646951632655	-3.355187602897958	-3.8576753083061224
O	-3.9820353151632646	-6.436711212897958	-5.184086098306123
O	-0.49668420966326476	-7.737437932897957	-4.426382148306122
O	-0.3683611096632648	-11.457394922897958	-3.723930638306123
O	5.889908024836735	-13.631731122897959	1.6323411816938773
O	4.154569004836735	-11.06730402289796	-0.5053838403061226
O	1.1197053148367353	-9.271609122897958	0.9061679716938775
O	-1.4400263751632647	-6.673241112897958	-0.12873791830612258
O	-5.139052765163266	-7.443498052897957	-0.29991764830612255
O	-7.781841935163265	-4.7864215528979575	-0.03614751830612262
O	-11.361865695163265	-5.5530362228979575	-0.9877739073061227
O	0.7928977848367353	-0.40281015289795796	8.021876101693877
O	-8.066701135163266	-6.916557892897957	4.476085111693878
O	-4.629328655163265	-8.473146062897959	4.075741271693878
O	-1.8110308851632648	-5.979231162897958	4.667528441693878
O	1.971167124836735	-6.079397332897957	4.643018711693878
O	3.2134121548367354	-5.054434682897957	1.2000158316938772
O	5.719503494836735	-2.267494202897958	0.5211680116938773
O	7.202941634836735	-1.067992802897958	-2.7440971183061227
O	6.1432447648367345	2.388254807102042	-3.5465165983061224
O	3.818033434836735	5.2656187271020425	-2.9038857483061227
O	5.180226214836734	8.473108497102041	-1.4543476843061227
O	3.8686156448367357	10.209248797102042	-4.569765038306123
O	6.544307404836735	8.248596357102041	-6.489941618306123
O	-2.711746045163265	12.653649077102042	5.869420961693877
O	-1.6948182351632648	12.726312977102042	2.2096769516938775
O	1.1223176248367353	11.182968077102041	0.1815505216938773
O	-1.0862163111632648	8.846956117102042	-1.8114117443061226
O	-1.7684515351632648	7.0442309971020425	1.5235613516938773
O	1.8144414348367355	6.619509247102042	2.7271006716938775
O	4.167298324836735	3.9715551171020422	1.4757995416938774
O	7.767017304836735	3.2078474471020417	1.3108941816938773
O	10.099428304836735	0.29988594010204195	0.7892547416938773
O	13.526777004836735	3.719163407102042	2.954581911693878
O	11.210843504836735	2.3760318971020418	5.6378678016938775
O	7.828198144836735	4.160128757102042	5.6669699316938775
O	4.269133864836735	3.3724688171020416	6.774815861693877
O	1.0135758848367353	5.354321557102042	6.943872551693877
O	-1.8951400451632647	3.4210856971020416	5.464963501693878
O	-5.007156935163265	4.925035297102042	6.825476471693877
O	-6.444056855163265	6.6000613371020425	9.964764161693878
