21

O	46.052412011369	8.720081501082202	31.570924063699387
O	45.24045028337731	9.388989690858287	32.40884141091632
O	47.05116163424511	9.419984514887947	30.928902252988834
O	46.712664532826366	7.584786941650932	32.150837399858716
O	45.86379051530893	10.440424262926296	32.94997216793594
O	43.81439210949959	9.1838019913325	32.76344522753613
O	47.05915836960918	10.794529626782726	31.847158397850503
O	48.279433295331906	8.904446097853732	30.33185628659919
O	47.39800197367954	6.6720102486819135	31.174129035990205
O	45.3677444837619	11.541079277838595	33.61724028555155
O	42.91023418848651	9.831439581221364	33.2164366282759
O	48.49827458239494	7.459765995809658	30.601956116834256
O	45.416398628482106	12.742077045105209	32.96507206740506
O	45.06984284672157	13.851588796804107	33.81003165457649
O	45.511245291714246	12.763125360497785	31.700309148359125
O	44.15457898534191	13.686624590987108	34.85689603607195
O	45.29155436787803	15.052171638492883	33.19346086398969
O	43.16164262882846	14.60335862202888	34.706707176371204
O	44.38841866580285	16.004492566367816	33.550382518595555
O	43.142829087974626	15.598620472847356	33.768724501598435
O	43.71023695560428	12.38759727886017	35.02812402571552
