31

O	45.88937839897603	14.879586913186264	30.940159258387745
O	46.053875162385964	17.483000359733474	31.3366289985724
O	45.30113680792515	18.984580904984348	29.262564157816655
O	48.32946343875115	14.003777067280646	30.87876172746093
O	47.00442458438205	13.702730063049884	31.000624803685554
O	48.92036342849927	12.663709925349401	30.48382740855283
O	48.75944604501756	11.819956041665764	31.564591916458888
O	48.00730137736594	12.11915929814293	29.377417737778707
O	48.37446518760903	12.530925331489042	28.120227331050828
O	48.112198468993576	10.641517843596503	29.635537878812702
O	49.20994381115312	10.048584821968104	29.02950318898136
O	48.18765335657426	10.64563314190648	31.13684972818234
O	45.164309219711456	6.971428302409178	32.76239820028817
O	45.52822289043918	15.428811543665574	29.603323180270692
O	45.94738679850919	18.76465927956331	32.012510364807426
O	44.6790831770138	18.46981831381889	28.061534555411896
O	46.37562020034854	6.851755080047434	32.23344108381934
O	44.49320489235593	14.643882013347849	31.798414937959823
O	44.372111320956584	17.187838123107255	31.181426119566375
O	46.18669454349466	20.331723809011596	29.307350625760353
O	47.0679576428712	7.910924186345046	31.816590089450788
O	46.48483211896514	17.72047423191699	29.682361408075135
O	46.682131050768476	16.097287012372647	31.824728228105432
O	44.05713427297038	19.18839788135726	30.415368326377376
O	46.501177414007635	9.125943656201676	32.03103229009277
O	45.239200952306696	9.251115551174106	32.607669797336456
O	44.54502713215916	8.13208296950657	32.98234265514439
O	43.27210426426019	8.258895353613138	33.53960426932924
O	44.96284963144512	10.536052619850015	32.826539570925306
O	45.992994121457	11.184624456863832	32.280022408817935
O	46.918934212588226	10.372483444384574	31.760011245957465
