37

O	44.02475257458204	11.638063982060157	33.876781015904626
O	44.89202519992564	11.218379109170785	32.93326794012164
O	45.208914928470776	9.93800302979021	32.431909563772365
O	44.428676487993876	8.895334599777765	32.825204492863996
O	43.73018138431498	9.353550477465195	33.907656601935436
O	43.39410139976118	10.566718224282049	34.34429918918022
O	46.5337456811453	9.741253143959451	32.15334538942717
O	46.98373606019443	8.55040114445914	31.718947278747315
O	46.23746316656715	7.368251107849346	31.84831741238389
O	45.12557967275689	7.714034427566425	32.60578580363533
O	47.387471467611	10.89518568933918	32.608564516152434
O	47.06024127907665	6.461691610796102	32.515387679534214
O	48.322858606510174	8.344711570304085	31.138836569117345
O	48.96897491458794	7.052064677198338	31.26023613463326
O	50.0563680721533	6.5918617516693505	30.432287461286766
O	48.58332631407292	8.762705611867535	29.995278305616466
O	44.77069503544403	6.840997917736189	33.402308755275996
O	47.20868507435591	5.074659816834576	32.03889817726527
O	46.818488685095865	12.092509192916115	32.063835516931164
O	46.691661384382265	13.313538937069513	32.72879059807583
O	47.18769439980646	13.382576863452627	33.985755198069846
O	47.20989764495372	12.227836209338388	34.682837706063644
O	47.020309730148185	11.05589358155261	34.005189272722326
O	47.52004715610529	4.494146509528173	30.79140023590393
O	48.57657797019164	3.5987446390817865	30.819391552795693
O	48.82811864957737	2.988678854710515	32.05508712278481
O	47.622047662914724	2.752204678829126	32.739761383537555
O	46.826071411644456	3.89235244144779	32.713775094814316
O	49.88971432351921	2.0531942421642553	32.052788762457276
O	49.726030741447666	1.0538759580010408	31.079155007140226
O	50.08735192372868	-0.32630199597521514	31.443055785676624
O	51.36208319281276	-0.5865815325169903	30.75354573969859
O	52.54644165643759	0.05383558424195911	31.32256073041509
O	49.388738784180916	1.4191034076131936	29.919714920348746
O	52.96676604782607	-0.40771880820165585	32.396154001038134
O	53.44832334270263	0.6555363251276498	30.483050961306045
O	43.9090514652559	13.167354579055297	35.048086406838635
