31

O	46.24723560129271	7.410001278068914	32.717218612781814
O	45.95025216484828	6.175508039153801	30.487802310554972
O	52.29309122920453	3.7163834703931125	31.998039730395238
O	45.06522501858359	7.82462384454875	32.01528232803165
O	46.60001175796961	6.1280568203371475	32.505989521498265
O	44.66606662085539	6.589817916180564	31.148734241446697
O	47.2603914800482	8.351406615288226	32.398978202089296
O	46.42138658640681	5.228545007720045	31.539225464164062
O	45.784377342902374	8.567889685052497	30.976875871578017
O	47.08396712057889	8.044989530773359	31.09088735216943
O	47.2292975821483	4.2197661786638845	31.125470701431095
O	46.894500737897516	9.797421578980765	32.253281658482344
O	48.24181431030492	8.333407044852496	30.47728887916332
O	48.43143198319277	3.691009130369391	31.443861688149003
O	48.93305338435728	6.97230992844912	30.717908177581776
O	47.93486394361745	10.470808832151352	31.407757068825823
O	48.54786223178174	11.605086393165953	32.12693591446871
O	47.44058926207242	12.09086180276031	32.93301313800779
O	46.58970725163425	10.860426734537473	33.078664384278895
O	49.06667513969232	7.2852435760896235	32.27034281256953
O	50.56906661569644	7.291861073089375	31.935639355716926
O	50.28226579575678	8.85439838804759	31.768219653684742
O	50.591914950374985	8.805106584973311	30.226771239814983
O	50.16235025058813	7.337610734942219	29.880500369863555
O	49.253086520947356	3.1217718973558046	30.334245189342518
O	50.61102586527873	3.741417493095529	30.475845930065372
O	50.92584599568578	3.700580295971032	31.992679601134032
O	50.20768699125336	2.568229407397939	32.60639480205628
O	48.7370736907023	2.967436560038667	32.69823317392474
O	52.58298789230604	4.82465863211422	31.16161881510266
O	49.20335432467395	6.103940887773625	32.83082737644932
