87

O	-4.882624452245614	3.0069108822982455	-3.4139477925508768
O	4.070680957754386	0.7924545162982454	-1.1578515385508767
O	-4.785480612245614	0.4676077582982454	1.9505429674491233
O	2.322176057754386	0.6004461462982453	-2.9467387225508768
O	3.3663850177543866	2.8300696622982455	-1.7472304725508767
O	7.1359699177543865	-0.45108032770175455	-2.549958892550877
O	2.2901542277543863	2.3177562422982456	-2.5700972825508765
O	-4.121347922245614	1.8498867842982454	-2.8717913125508767
O	-5.124068832245614	1.2441190877982453	-0.4475967725508768
O	1.7512131577543861	2.9723952822982453	-3.728624252550877
O	-2.7001860822456143	2.2058194522982455	-3.3009835825508764
O	7.930646007754387	1.3755211512982455	-1.9394686745508767
O	-4.291940752245614	1.5426808102982454	-1.4407914585508768
O	-3.1088190422456137	1.0135347722982453	-0.9224950905508768
O	-3.1793101822456142	1.1022771882982454	0.44454294744912315
O	-2.036614312245614	0.9983978282982453	1.2658118574491233
O	-2.422508662245614	0.3816399962982454	2.4405266874491236
O	-3.7886169022456144	-0.07019827770175469	2.620327657449123
O	-4.494773442245614	0.8916209242982454	0.7374031274491233
O	-0.751490007545614	1.5227880442982453	0.7275512474491233
O	-0.857016770245614	2.1914294902982454	-0.5271448865508768
O	-0.005006289245613971	2.012771884298245	-1.6378685985508767
O	1.249537807754386	1.7290839342982454	-1.3417674905508767
O	1.561935277754386	1.4204668572982453	-0.08061251755087684
O	0.531936107754386	1.1108179302982453	0.8525870674491232
O	3.6578847777543864	0.3424803592982454	-2.488370402550877
O	4.266945377754387	1.2772642524982454	-3.493156132550877
O	5.653732647754386	0.9510310722982454	-3.7242058225508767
O	5.478024677754386	1.2414000404982453	-0.9958032267508767
O	6.583029217754386	0.8867997872982454	-2.2627099325508766
O	-7.020785242245614	12.056149162298246	0.8390329774491232
O	-3.8877446822456143	10.837558822298245	-1.0335291181508768
O	-4.567626772245614	7.551913702298245	-2.6037487025508765
O	-1.104957479245614	6.5054504922982455	-3.8168095225508765
O	2.5700554677543863	7.075178172298245	-3.575651682550877
O	5.461431987754386	4.796957622298246	-3.424785532550877
O	9.171504567754386	4.604440182298245	-2.560270572550877
O	8.475285467754386	5.622755432298246	1.034928167449123
O	6.220079287754386	8.410387712298245	-0.20682356255087675
O	2.526829667754386	9.221181612298246	0.05649952744912312
O	-0.27184027224561397	7.280265762298246	1.622181907449123
O	-3.605934292245614	8.937011892298246	2.4971181574491235
O	-7.013496062245614	7.515023982298246	3.2819774774491233
O	-11.681239282245613	4.486404072298245	7.432283607449124
O	-7.934933772245614	3.903408872298245	7.686441927449124
O	-4.751380672245614	4.325813342298245	5.549795787449123
O	-1.961565902245614	6.620910602298245	6.780896327449123
O	1.5911272677543862	6.1787385322982455	5.561644457449123
O	4.128889247754386	8.913551842298245	6.239688027449123
O	7.784710457754386	8.012649912298246	6.6442798274491235
O	9.891754117754386	11.151977562298246	6.223473637449123
O	8.210930067754386	-2.8598091277017543	9.157038287449124
O	-2.154536042245614	-5.7956722977017545	6.297326887449123
O	1.897361577754386	4.288990872298245	10.157792987449124
O	-1.874029142245614	3.875583852298245	10.345790887449123
O	-3.1056375122456137	0.8021895412982454	8.519685117449123
O	-6.402079802245614	-0.8416391577017548	7.720882767449124
O	-7.823702482245614	0.4281030322982454	4.481485497449124
O	-8.804445262245613	-1.6765609677017548	1.530957247449123
O	-10.574820952245613	-0.8516612577017548	-1.7520445285508768
O	-8.174806182245614	-1.5390101777017546	-4.636158662550876
O	-4.660320182245614	-2.5109484577017547	-5.784566692550877
O	-4.006262692245614	-5.8697945977017545	-7.350555412550877
O	-2.766897082245614	-3.9309924677017545	-10.407521642550877
O	-6.401760212245613	-2.8249309777017544	-10.896983742550876
O	-7.662139822245614	-6.409267717701755	-10.519394522550877
O	11.586921517754385	-12.124276737701754	-2.0205101945508765
O	9.940805717754387	-9.111959137701755	-3.6044604225508765
O	6.243010747754386	-9.816427637701754	-3.771832092550877
O	4.604972467754386	-7.728114027701755	-6.5139132925508765
O	1.081125607754386	-6.6267467477017545	-7.3697566025508765
O	1.474096607754386	-2.902683057701754	-6.576698392550877
O	2.0164758777543863	-4.023634387701755	-2.9388756825508766
O	-1.008450239245614	-6.169434557701754	-2.528527932550877
O	-4.498106172245614	-4.777581157701754	-1.9637437235508768
O	-8.007078332245614	-6.157869487701754	-2.246682772550877
O	-10.374817952245614	-10.350169137701755	0.5718822974491231
O	-6.6489181522456136	-9.726426237701755	-0.02991523255087669
O	-3.742328592245614	-8.381280817701754	1.999074167449123
O	-0.01608363024561399	-8.127187857701754	1.3726890074491231
O	1.377416667754386	-4.759407687701755	2.3202771974491236
O	4.963157687754387	-5.5650753877017545	3.104291727449123
O	7.661827917754387	-7.890990107701754	4.148269847449123
O	10.023424217754386	-7.586613847701754	1.188661017449123
O	11.811525617754386	6.391135602298245	-8.013812012550877
O	11.975593817754387	-0.10937330770175469	-8.267504382550877
O	9.818411217754386	-2.748193657701755	-9.951270122550877
