35

O	42.82512497828535	13.878870207535904	35.69792308598117
O	43.5622695722966	12.969879940694446	34.93565403732785
O	44.558435588267216	13.521723954494927	34.21226373206085
O	44.82178044977342	14.84011675136339	34.26467338324649
O	43.801139181969916	15.691038940618142	34.53305174186805
O	42.77157522516302	15.180546886793223	35.31582483544731
O	45.32361028166113	12.540926358005095	33.48715056269013
O	45.06686006651601	11.177330645098335	33.00990396713902
O	44.33330566137368	10.906575620659563	34.111331886523566
O	43.55108989569822	11.617701318044249	35.02617658790436
O	45.61441250628691	11.061707976311377	31.830472436183054
O	46.18938235135604	10.051042654627192	32.21246388360506
O	47.31675865638397	10.028483568103514	31.402882708505597
O	47.72200949336668	11.174095148213015	31.065930673002615
O	46.56279597893222	11.88467926806253	31.260769859101227
O	46.46245801003717	13.156733220155395	31.231929612755327
O	48.68875049640571	11.619400224086334	30.187049719098866
O	50.11352739799317	11.782424211399952	30.607354867109546
O	50.5886986075838	12.551613826003022	29.359200881883982
O	51.362738062256206	11.689595025151487	28.603592189742464
O	50.61806176677526	10.553812001398196	28.743546172158645
O	49.143093884908744	10.701710426885858	28.995056979474203
O	45.291659907555335	8.797884307152827	32.35780967060072
O	44.22428067561632	8.240488844842417	32.956774744794906
O	44.02018016883427	6.866014838945223	32.73344423103042
O	45.07152823458279	6.027836411896779	32.41488251373865
O	46.270571803334605	6.553622058149088	32.22384836369648
O	46.25244381690045	7.905304940085839	32.6071122018358
O	47.471665622899266	6.118430478395008	31.54291440315903
O	48.42065953745194	7.132905095456694	30.999895247144753
O	49.317231981674624	7.791822444607322	31.867775771888034
O	50.28177216946154	8.576809760879065	31.05501232680157
O	51.42675336841026	7.834000600805386	30.401013217018008
O	50.84209610289843	6.46976406798321	30.397950718168705
O	49.3734299988985	6.375518752542609	30.04366347611576
