30

O	44.00414693700474	9.25079073121009	32.12534829630529
O	44.89882337199494	8.617607087296498	32.915787364640885
O	45.89598827961293	8.033924293457142	32.3717401033571
O	45.84348453138786	6.820406387360093	31.506986505452687
O	44.777321360606344	6.236384137055188	31.53211962580954
O	47.05760132548714	6.489300794535401	30.972922862089575
O	47.61419595146708	5.468465693553197	30.07495712297479
O	48.68107104921837	4.740651021060746	30.74812961964919
O	48.227180664818015	4.357113949553762	32.018392674037244
O	49.24514533949705	4.447383568088149	32.96131564939044
O	50.246067712880404	3.5626266368862822	32.49942641822806
O	50.69762905028296	3.635002203183264	31.168327409593118
O	52.12676459876516	3.491505372475663	30.723699308786152
O	52.570161064942866	4.585014487142905	30.005883879540093
O	52.02431489738683	5.819215482052502	30.35036982780242
O	50.644514280659735	5.745674754604294	30.121664873900702
O	49.97757885324271	4.521569394711904	30.36402383431389
O	47.9089079028503	7.565616019976019	31.46888997718999
O	49.11600245071787	7.928242737107199	30.966665848699716
O	49.21144781786205	8.952935252611312	30.10657891232591
O	48.487013412325034	10.075611173810715	30.673413670767737
O	47.67845150653014	9.899392104842411	31.785083305604147
O	47.110028724728295	8.625478932005434	31.96648065668499
O	46.785151435429164	10.948787437901155	32.30046202318297
O	46.17959880231618	10.906655196401115	33.548438224337424
O	45.34176224335778	11.934368198304481	33.97472692868518
O	45.74273822435854	13.188174391741386	33.52153192516958
O	46.719550610559196	13.354777202819324	32.563622465991834
O	47.40796217052919	12.177798066096933	32.295037064713505
O	49.50183447798651	5.758066451892679	33.55675973519219
