31

O	51.45860647300361	0.20486640635703512	34.016188799505116
O	50.04887037681115	-0.2233257577155232	33.60790787999907
O	48.92770980555312	0.2206634266717007	34.35087565635896
O	47.71159962933999	0.6669132213220728	33.82743363596124
O	47.31557385539015	2.107046350782597	33.87696958943144
O	48.378580825866116	2.990286821589722	33.76927961857908
O	49.46965043990415	2.580372562243099	34.298129651852506
O	48.726076305097216	3.811109487537437	32.61968110630459
O	49.74091874075124	3.5660623008239494	31.760087184065146
O	49.86970682563061	4.5592538043316475	30.830752839353046
O	49.09476599131883	5.7056834791601645	30.845155983652845
O	48.27541604008412	6.0387839512418715	31.923917023090674
O	48.16686776636478	5.026297129378678	32.829994196896926
O	47.04396298996127	6.663215240001656	31.525825668080586
O	46.715256208821	7.919169418971957	31.68567930832388
O	45.3383481873338	7.926988940257781	31.39565313254506
O	44.51921770437286	9.01358425947568	31.85267621956026
O	45.06454742352025	10.231096190997125	32.31383672293679
O	46.295504463880434	10.250330017830006	32.48279975133763
O	44.289409285217	10.865867355163392	33.28880545990866
O	44.57818920843162	12.17561569590062	33.696378105275905
O	45.29155882541667	12.973500287059348	32.85386525026055
O	45.527498379988614	14.285656144209124	33.1659800999256
O	45.37775666209988	14.694458802629137	34.48528736328865
O	44.92660237692464	13.742732143619495	35.382810827085606
O	44.0970434675983	12.75552438896866	34.863780029154626
O	44.985453990523894	6.651946327588972	31.86880088291416
O	45.94498833352888	5.914942287804411	31.356351165305814
O	47.652889234988535	0.21590496989135133	32.510797223851206
O	48.76238285973663	-0.20206252892609466	31.754990062365273
O	49.95080535128036	0.2754663040177947	32.31724462267496
