36

O	48.78737848496886	-2.182990096242559	33.93521960539309
O	46.73292532380539	6.984005541743883	30.03889766432711
O	43.94949364728847	7.928917116096447	31.91901229221529
O	51.26050172761304	2.9582528074225394	30.684094673887177
O	43.763788765201404	9.979691630694873	33.265487825765234
O	46.4106210457047	3.497774388607386	32.28082217804686
O	50.6860731507995	-1.481051015900407	31.906647674561853
O	45.52460328658758	9.636269175879377	31.851088752974125
O	49.31378351774459	-0.9706441154458876	34.389604779608604
O	45.602663418251105	13.492501905618717	34.413430527862815
O	48.07109086570771	3.501423391487145	33.78522527835452
O	50.791989640198466	1.6384842647692555	30.790652246526317
O	46.32663458186453	12.47645201950041	33.81645282252226
O	47.79147829406208	7.718789650861344	30.73935842956077
O	51.20262583176958	-0.335776396876005	32.58579192948961
O	44.23747748376013	13.352959606299915	34.52310066148973
O	46.377342636607395	7.238975847355202	33.858901970545034
O	45.637810569969574	11.526024869153936	33.07070350100328
O	43.651602988956114	12.2292959831896	34.00265513215964
O	47.13650806920408	6.151131694878046	34.23510263834292
O	47.28931414876636	7.889673079852997	33.009712104497936
O	45.719535681671864	7.369813994941744	30.94815736871175
O	48.021304348059324	5.674143902373974	32.12022267707982
O	48.00760046838485	0.9784384494878671	33.71636499145658
O	48.72828639193409	2.1863074004250285	31.883041798281376
O	47.37909961943066	9.1462264956089	30.67976038573946
O	44.305731075831154	9.147975043255077	32.31309124262043
O	46.907210573775615	3.9941341543891187	33.34563119086813
O	44.36594267201512	11.238565870867397	33.4605921207005
O	48.24096188524171	2.182040128072031	33.19845600566677
O	45.915777524279115	8.879801513601269	30.768079711829074
O	47.02717657450861	5.383084077663799	33.07697451511161
O	48.00290134664384	7.136470453884354	32.03797347017747
O	49.06049174784964	0.0860812582620234	33.50541334149242
O	49.72917028042135	1.2477291546615987	31.64182106487024
O	50.13497058814296	0.5664503419414233	32.7557434510877
