37

O	48.58001964358306	7.197080101710471	30.66833751369848
O	46.83637686435432	8.538945681185146	29.979494200255893
O	49.542420270004214	7.499582884437084	29.588359244709387
O	47.57374981461709	8.94669456935951	28.765174736615506
O	48.325949675859604	8.803093600129742	31.63242092673457
O	45.8122358248438	11.714982173513295	29.74554037094459
O	45.760860424042335	13.826253104070462	29.368243600401875
O	46.37969304443119	12.357753849131209	31.405487523824732
O	48.40230664697209	15.901940685780083	28.49710571486197
O	46.23091408361608	16.045120795795395	28.66662510284108
O	50.350942140706124	12.985061853145178	28.93449240920975
O	50.07050476563847	11.241874558940404	27.831087771181757
O	48.347994679019266	15.17831017040358	29.811539067491545
O	46.41679396104942	15.844152360135634	30.14394910954788
O	49.530448686763634	12.292030620157059	29.932038507887405
O	50.063471058410485	10.800226676587409	29.244326125329323
O	48.02003164072208	9.948000011004671	32.22367743205235
O	48.01614137114435	10.174447045091046	30.346120335466807
O	46.40748794428683	6.581208604825898	31.243185920688372
O	47.24676210097449	15.552089973905497	27.86918006822919
O	50.40320374271803	12.563028055739471	27.6470903216226
O	46.63301930768165	12.554732878327648	28.94738198607126
O	47.211826044761864	7.032294604797447	30.152803096167403
O	45.39343461272217	11.353733955832201	31.106946645963752
O	46.558705204461816	13.63548020107233	30.743569966811425
O	48.97862491419282	8.672280596804082	29.090888175043922
O	48.63361516932092	10.837088868963257	31.33033264110784
O	47.21041869294206	14.540795423993796	30.17803785857246
O	48.86507842448502	10.985269539915636	30.00884841932966
O	49.14513397244804	9.226476300364865	30.477201225700476
O	45.735312316715685	7.64785718842774	31.871605867434145
O	44.673341941370985	7.167719542940073	32.60728992370439
O	45.25788390011541	8.830932833212547	31.198512778023968
O	45.383365775196324	10.060809277063806	31.91680257556711
O	44.30277410284214	9.781426363475708	32.86524462161151
O	43.93306480348711	8.346490198888723	33.08043120962348
O	47.64368801404378	13.113259513542003	28.60992203930899
