79

O	-0.7717919415000003	1.4993794177241377	3.117266417775862
O	-0.3792141415000003	1.1679207467241377	1.8743491577758622
O	-1.3525526845000002	2.7338307497241376	3.3132355777758624
O	-1.6730214405000003	0.5665789957241377	3.732729957775862
O	-1.1258073004000002	1.7822428157241377	0.9512580187758622
O	0.7347535044999998	0.3137608597241377	1.3937508377758623
O	-1.6971929665000003	3.128801749724138	1.7454812777758624
O	-2.2170653855	3.165374869724138	4.407439617775862
O	-1.9027110745000004	0.7699939677241378	5.203332877775861
O	-0.9211164035000003	1.9687379437241377	-0.40006395322413774
O	1.3780295044999995	0.17596519372413777	0.3890889317758623
O	-2.6010262055	2.0573484497241377	5.3200170477758615
O	-0.6210543365000003	3.235748589724138	-0.8180747502241377
O	-0.6280755205000003	3.368819449724138	-2.2489195322241375
O	-0.1498682155000004	4.0722735197241375	0.01094505856586227
O	-0.27439673450000035	2.2860012997241377	-3.0633287222241377
O	-0.49892853950000027	4.672642109724138	-2.6414526222241377
O	0.7262076244999998	2.6831373997241377	-3.8939636722241375
O	0.20016755449999968	4.809101989724137	-3.8001612422241378
O	1.2024534244999996	3.9609036397241377	-3.9998644422241374
O	-0.012982665500000268	1.1146420934241377	-2.3749893322241378
O	-11.048314275500001	-6.413318390275863	-0.7244350002241378
O	-11.542894245500001	-3.879927630275862	1.9872037477758622
O	-10.6876205955	-0.14918868027586218	1.6356785977758623
O	-8.142633805500001	0.7748601347241377	4.243062747775862
O	-7.2627392355	4.3345464497241375	3.1076907577758623
O	-7.1485974055	7.007461389724138	0.45253947877586226
O	-4.4272957755	9.285796839724139	-0.8570940722241377
O	-4.0219660355	11.683722859724138	-3.774226872224138
O	-4.1895430255	8.715755099724138	-6.212554852224138
O	-7.2842341955	7.399212269724138	-4.5728778422241385
O	-8.2342399555	4.319877989724138	-2.678485542224138
O	-6.1037219255	1.4673758437241378	-1.4369913222241377
O	-7.6552198055	-1.8116161102758623	-0.4127940002241377
O	-6.4301433455	-4.724048790275862	1.6225521377758623
O	-7.0409984055	-8.12164533027586	0.06887560107586227
O	-6.3443701555	-11.839306340275861	0.3766396397758623
O	-1.0925009845000002	-13.916403940275861	2.0702439977758624
O	-2.6697949655000004	-10.537319040275861	2.4886071377758623
O	-1.7266508885000003	-7.727983780275863	0.07674271707586228
O	-2.5251289755000004	-4.011968980275863	-0.5995210302241377
O	-4.1181909155000005	-3.044859230275862	-3.919838412224138
O	-3.8150777555	0.4678838947241377	-5.232073322224138
O	-6.1140804355	1.5686061387241377	-8.093409582224139
O	-4.8708690355	4.254082659724138	-10.441867202224138
O	6.2324091845	4.7330008997241375	-9.348236682224139
O	5.9669389745	1.7930272197241377	-11.806303802224138
O	11.006352654499999	0.38367544772413775	0.7171359927758623
O	7.5084949844999995	-1.0541651002758623	0.04490228017586227
O	7.603503964500001	-4.0876193702758625	-2.3016869822241377
O	5.5732512045	-4.435036630275863	-5.485644182224138
O	4.1002682845	-7.946725560275863	-5.8478007322241385
O	2.0493940744999994	-7.746252540275862	-9.066453582224138
O	-3.6867547955000006	0.42018940672413774	-13.429248402224138
O	-3.7511960855	-1.7699749302758623	-10.338125602224139
O	-0.6335474375000003	-2.086520460275862	-8.224072012224138
O	-0.42049121050000027	-4.924232000275863	-5.7436116122241385
O	1.8770683244999995	-4.237558880275863	-2.8014981022241376
O	2.9091049045000004	-5.854266630275863	0.3716151757758623
O	0.6293442644999998	-5.142001890275862	3.2523468077758624
O	1.6857987544999997	-3.881002930275862	6.722822367775862
O	-0.3821580465000003	-3.0738588802758624	9.834274137775862
O	-0.3692751565000003	0.6106642157241378	10.641604097775861
O	0.5527206544999996	4.173657819724138	9.512657637775861
O	3.3794934144999997	6.120031029724138	11.049656297775861
O	12.860236554499998	11.947257459724138	-1.9752559222241377
O	1.2312575444999998	9.500849269724139	6.145137377775862
O	3.2756064645	7.663545559724137	3.472223757775862
O	5.3124337245	5.3923076297241375	5.763452227775862
O	3.8411071645000003	2.1711408497241376	7.143868567775862
O	4.7770444245	-0.13112917027586235	10.022635397775861
O	4.1543399945	-3.6992943502758626	11.156815297775863
O	9.439498454499999	-3.1397365202758625	10.736762197775862
O	8.985027254499999	-0.0018857502758622413	8.622314547775861
O	8.6511254845	0.7693672617241377	4.920359797775862
O	8.404356064499998	3.9538589697241378	2.878028307775862
O	5.5715294244999995	3.9324700197241373	0.39420773977586226
O	6.6163896245	6.466396069724137	-2.190959542224138
O	9.5461530545	8.078227139724138	-4.017590362224138
