33

O	-2.513328230985521	-0.3912670530100318	18.39354001244905
O	-3.5288442067414523	1.5850541805074831	20.348495282640034
O	-3.121901036202568	0.8706579854015992	21.353870567425368
O	-3.4453191638544167	1.6653126833805891	22.56124050453913
O	-2.208201861534205	0.05483732619871429	21.8751656446534
O	-4.596895387501695	1.8310258078858106	19.65137309386099
O	-2.9250107590695147	2.8901760835822228	20.763865075263013
O	-1.595397232622666	2.323237316016551	21.301976901534854
O	-1.366967686105239	1.5115069961613847	20.102453094650816
O	-1.7827243092273934	3.4480200613629752	17.907863441255266
O	-2.1482690661853856	1.2761554312596164	18.81478468329071
O	-0.6358626524527331	2.746515650723532	19.839607634747082
O	-1.5255984933119349	3.825370476305467	19.43527128923024
O	-2.3605661744712085	2.127577056233467	17.681323701782414
O	-3.720792294131529	2.7290666636218597	25.24106207709823
O	-3.7980357210099083	0.8999493112429537	23.753474032873527
O	-3.0557380892509247	2.9642575414521404	23.054774747187242
O	-2.4829699688187206	2.754757338687222	24.449249428724155
O	-4.060471246624118	1.3473848636683092	25.192438267762974
O	-3.796736564909333	3.6735375145402904	26.208629185916383
O	-3.039500620084968	4.713119949948682	25.585112522862037
O	-2.533241989927342	-1.3949263318963447	21.77864623158837
O	-0.7098258685607153	0.2791657591368001	25.185240545517335
O	-2.096955346988779	-2.2654965588329046	22.901382983083842
O	-2.0254614465387926	-1.6900751680777772	24.2466506358757
O	-1.422674178214827	-0.4518967410623992	24.252419645730974
O	-1.6814280038668292	0.302281817822289	23.140002167915306
O	-1.133619950513154	0.8603338228795301	26.386627725412847
O	-2.381068300932364	0.05568925859349849	26.564554238389306
O	-1.1412360545120475	2.222223336769473	26.71262454081966
O	-0.16049714136607562	2.9809466401017044	25.984754892938764
O	-1.2796760470541617	3.336110128092264	27.413012835654232
O	-1.8036750213803314	1.9216544953931218	28.059181911050093
