37

O	0.36831641475462973	3.017580964145205	21.164195203275604
O	0.35241983125616827	4.241993317215318	19.757321929779042
O	-0.8656562730104368	4.062553922660106	20.584166473158895
O	-1.555405866607444	3.069093524683068	21.476887850095185
O	-1.892430774683039	1.7073990266668306	21.29080663860789
O	-0.5683200854933201	1.9382407087774463	20.42216960975163
O	-2.4781406572698508	0.5377141298706496	21.31146128715693
O	-1.0794411143611824	-0.035484539459149644	21.618284671287803
O	-2.0239964312719048	-0.7286653713887414	20.785217783533522
O	-2.0787449979748254	-1.8203588313170873	21.638300619235817
O	-2.4950288493797435	-1.4173237666067409	22.936340932544823
O	-3.1211696566571274	-0.17149808045957404	22.319266431697695
O	-2.097054285470746	-0.08357835472403741	19.449792982694824
O	-2.609388960300574	0.9146463044100714	18.700748393956626
O	-1.4783999738708151	1.9574013344664523	18.149615568170994
O	-1.5502634966319073	2.91208920500718	17.177363544792993
O	-2.486179938978339	3.8548883537391254	16.637688780310857
O	-3.223993407140153	2.6344363528083696	16.5285461265727
O	-2.501436912003818	1.4628402145617856	17.118056099651564
O	-2.055082473982215	0.8769980666719803	15.961921318940835
O	-0.9481625353118455	2.862019124139099	15.808430908174113
O	-1.1066662923340953	4.337019499128489	15.722225090216469
O	-1.9390339480435204	3.7856605330284023	14.720981391540342
O	-1.7276884174868528	2.6477361583361936	13.836226197853568
O	-0.13111840537343344	2.4748690132198554	13.802826374902073
O	0.07833368898456206	3.9374327568800314	13.989506476814132
O	-0.6512159091234505	4.354633652698318	12.792823345543736
O	-1.9372029630462713	4.689359157490175	13.73238947752388
O	-0.33234934593582866	4.287738966788055	16.791760575188803
O	1.1493673186962825	4.6897476053821325	14.335799545013389
O	0.7545947813156005	6.060601906000937	14.46806368290845
O	0.6406235002085311	6.9228020802815475	15.431085894311272
O	1.3275163898700995	8.21037545022924	15.279417771785218
O	1.795835332315952	8.10707341230714	13.925008162121394
O	0.613833212410709	7.742059549480983	13.13437264163344
O	0.5368349109131331	6.295069739028808	13.098890462476863
O	2.0978369124689005	9.383891346635505	13.51921654078919
