113

O	-2.7973498945814286	-3.1427763164428573	1.8024826672857148
O	-1.0502296455814286	1.7258624555571427	-0.5694842287142853
O	-0.1202322345814284	0.3032380235571426	0.8123286542857148
O	-0.3231142045814286	2.734704423557143	-0.02886853711428522
O	-2.1682025615814284	-0.8170163764428575	2.447509957285715
O	-2.9845885145814286	1.3311074479571428	4.800953207285715
O	-3.747215354581429	-2.313662236442857	1.615598717285715
O	-2.4619486805814286	2.8182005535571424	2.4285277072857148
O	-2.4779360345814285	-2.7298719764428574	-1.1776452127142851
O	-1.7307802412814286	-0.39608771644285734	-0.7327653217142852
O	-2.6062000355814288	-3.8973203264428573	-0.3400579407142852
O	-2.0299051825814285	-3.966699436442857	0.8834496932857148
O	-3.6200469545814284	-0.9377165264428573	1.7797136172857149
O	-0.8991605075814285	3.898615753557143	0.0025284807857147845
O	-0.5158087145814285	-2.633838856442857	-0.4580297087142852
O	-0.00416933458142843	4.707451273557142	0.4112792642857148
O	-1.3374759345814284	2.6798178635571426	3.375064867285715
O	0.7440299354185715	2.7084722935571426	0.7523295392857148
O	1.1252217854185715	4.0510834235571425	0.7340457022857148
O	-2.1691757525814284	3.9524090735571424	-0.6065871337142853
O	2.2596220154185716	4.502710613557143	1.4358957872857148
O	3.6895398454185715	4.551828293557143	1.2096573472857148
O	2.6682126754185713	3.6812119335571425	2.5944005572857147
O	2.079862565418572	5.895727353557143	1.8482555272857148
O	-2.9672893545814283	4.973471833557143	-0.5460849377142852
O	-2.8817648345814284	2.9267099835571426	-1.291980412714285
O	-3.2848223345814285	3.3141128035571423	-2.590440922714285
O	-3.5333216545814286	5.3492324935571425	-1.7978804327142852
O	-2.3565466795814283	4.986746173557142	-4.074063512714285
O	-3.1439255145814284	1.7303074795571427	1.8818167072857148
O	-0.8187394935814285	0.5021683455571426	-0.15651299271428523
O	-1.6626490208314284	-1.8044335964428573	-0.6972554377142852
O	-3.650922574581428	-2.0439413464428573	-1.586641832714285
O	-4.447720354581429	-3.3656951164428577	-1.5304859127142851
O	-4.134610544581428	-4.718450786442857	-1.556567652714285
O	-3.7689687245814287	-4.662703366442857	-0.18380689071428521
O	-0.7624800835814285	-3.785225526442857	0.3906956912857148
O	-3.1087526745814285	3.548264123557143	3.609195947285715
O	-3.661622274581428	2.5228445035571427	4.654765207285715
O	-1.7961891155814285	1.3524259939571426	4.094358417285715
O	-3.1022485445814283	4.689433223557143	-2.861652862714285
O	-2.7434731345814285	0.2816333735571426	1.8513978572857148
O	-1.9641909855814286	-2.413424546442857	2.423083937285715
O	-10.455813234581427	-10.949047026442857	-2.287585002714285
O	-8.683522044581428	-9.913763326442858	0.9434744802857148
O	-7.9240103045814285	-1.0497968364428574	0.7843785892857148
O	-7.7601158645814285	2.8835560535571427	1.1845748772857148
O	-10.158796734581427	4.233365013557142	-1.4954435327142852
O	-10.438108164581427	0.8469637645571426	-3.268659662714285
O	-10.878871014581428	-3.0226927064428573	-3.181733302714285
O	-8.070788354581428	-5.589692456442857	-2.8847955727142853
O	-7.405008814581429	-8.989869226442858	-4.085672002714285
O	-4.572933654581428	-11.379621126442858	-3.601548062714285
O	0.7135635954185713	-9.918824126442857	-4.779442292714285
O	-1.9000273685814286	-7.664417786442858	-3.451815292714285
O	-3.7024671045814284	-5.860031946442858	-6.337235512714285
O	-5.862844364581429	-2.673265246442857	-5.565465182714285
O	-8.538775064581428	-1.2945381364428572	-7.822614312714285
O	-9.133389424581429	2.4093392235571427	-7.012701812714285
O	-12.894359584581428	3.049449633557143	-6.4911168827142856
O	-10.696483584581427	7.706455213557143	-8.941599842714286
O	-6.0859440845814285	11.769721073557143	-3.5998267627142853
O	-5.576782164581428	9.353322763557141	-6.561336262714285
O	-2.6101983005814287	11.270095363557143	-7.584013292714285
O	-1.3604440985814286	11.436964673557142	-4.054688422714285
O	-1.4210895595814286	7.656272923557142	-3.508900772714285
O	0.12061728541857142	7.026860583557142	-7.042656552714285
O	3.566357675418571	8.199935843557142	-3.086461372714285
O	3.6480553354185714	4.526681543557142	-4.193538152714285
O	5.895739775418571	5.355820203557142	-7.033264552714285
O	8.793851515418572	4.651759543557143	-2.074404692714285
O	11.715448615418572	2.2460498215571425	-2.560891672714285
O	12.614696515418572	0.5561663535571426	0.8151026562857148
O	10.044192415418571	-1.9229551964428575	5.169340067285715
O	7.8369904654185705	0.4132142495571426	3.108259957285715
O	5.1842788554185715	-0.6857568264428573	0.6041142732857148
O	6.005406155418571	0.4099845835571426	-2.915186152714285
O	4.827085015418572	-0.3494098364428573	-6.439284772714285
O	5.359753235418571	-3.6229101764428577	-8.234592042714286
O	3.0573483454185713	-2.5682850664428574	-11.104255262714286
O	0.33865737541857155	-0.05124721644285746	-11.938576962714286
O	-1.9478438965814284	-0.6885007264428573	-8.060115722714286
O	0.22124448541857156	-3.9077188264428573	-7.421946432714285
O	2.3676744054185717	-4.559853866442857	-4.3980185327142856
O	3.6709785754185713	-7.376724806442857	-2.225444172714285
O	1.0709801354185713	-9.440682826442858	-0.3504020227142852
O	2.1397707854185715	-9.751011526442857	3.167218057285715
O	-1.0955743945814285	-11.367682026442857	4.223909497285715
O	-1.6915068735814285	-10.324210526442858	7.764954267285715
O	-1.5985157108814285	-7.364160746442858	9.968535167285713
O	0.1907727954185714	-6.971335336442857	13.276233137285715
O	10.917852515418572	2.3183550905571426	7.465061157285715
O	13.025748515418572	6.633466403557143	5.215390447285714
O	9.481974015418572	7.9974890735571424	4.929825807285715
O	6.136675845418571	12.433816773557142	4.301286707285715
O	2.3385206954185715	8.894549643557141	8.206715347285714
O	-2.1273454865814285	7.490872503557143	11.487984237285714
O	-1.2104580775814284	-2.4285286064428573	14.177565937285713
O	-3.7637460145814288	-2.807049566442857	11.263666137285714
O	-1.3407795825814284	-1.0562486264428572	8.971046647285714
O	1.7690257754185714	-2.838227566442858	9.478175327285713
O	1.7007908754185717	-5.682506736442857	6.988100527285715
O	3.5563066154185714	-8.688373426442856	8.220981207285714
O	7.212402655418571	-6.036365716442857	8.021572877285715
O	6.2535359154185715	-3.1787571964428576	5.636962007285715
O	4.6855359754185715	0.07658726355714274	6.621582237285715
O	1.6955314954185716	0.5952589425571426	4.706033807285715
O	-0.7982253845814286	3.9317247335571426	4.357310397285715
O	1.1955782254185714	6.574021703557142	5.003132127285715
O	0.7770492154185715	9.965286493557143	3.4447912772857148
O	-2.9238266845814285	9.750204333557143	2.939881577285715
O	-4.574841814581428	11.024490813557142	6.1358444972857145
O	9.073445115418572	-1.7140392764428571	-12.987772462714286
