25

O	-2.7474792670573356	1.6589652426678825	25.343801997680714
O	-2.666281645505443	0.8979255382924128	26.713125350499688
O	-0.6169582419203556	1.5517373731833137	26.42127492476313
O	-0.5709138277935351	1.1190835656062412	24.912559516853307
O	-1.8556325593510405	1.3877318599109696	24.217531867977083
O	-1.376069664294267	0.6991306603681778	27.286116376258903
O	-3.1925498274156703	1.8533364458515913	18.23601845068918
O	-3.9727555723210877	1.9533330160592057	17.129099447557696
O	-4.858406241416147	0.9446936669904814	16.908973178859863
O	-4.499729901764072	-0.21031565047439205	17.51746303078414
O	-3.9403559075741073	-0.10426140251529203	18.790921478477877
O	-3.3321750259072638	0.9776128159253549	19.33726748553853
O	-1.1849512752848828	2.2223779656574	21.97483963267362
O	-2.675476829629765	1.3124610491102726	20.596252383631704
O	-2.6177581654938398	0.7753534543164077	21.831564284507134
O	-1.9720730320880109	1.472381505027689	22.79696507596598
O	-1.690740124631101	2.255086765026341	20.722882532670805
O	-3.051645080664647	-0.6498046572179574	23.90048562910431
O	-3.375530679698761	-0.29614532383049536	22.367396937980615
O	-1.6582836843869895	-1.6014608428486898	21.972734839373494
O	-2.486532063872895	-1.7499976843489775	24.25261905014959
O	-2.8932153823691347	-1.4490918256093308	21.690015342049147
O	-1.4649267837415259	-2.020689719576609	23.339385027498775
O	-1.3085145976064232	-2.72023870629452	21.080591529542485
O	-5.328706339106786	0.8320411709336296	15.630020341766917
