30

O	-1.3103008103575593	-0.5373664610680593	23.237025951900172
O	-1.1886440763088255	0.6891452973985184	22.808379943893144
O	-1.5262427714606883	0.4309833854361884	21.498891650500987
O	-2.653252725358744	-0.2905073889758376	21.70618276986921
O	-2.189738540859837	-1.2363383854006196	22.555286730375094
O	-2.918980250573658	-2.350494494159775	23.00790131209996
O	-3.1723286393120027	-0.7198545665235122	20.49773265133857
O	-2.5706484091642667	-1.5414069984769765	19.802734165836014
O	-3.808422912365031	0.27258785955457454	19.667912040313585
O	-3.854988520298243	0.6260754075646089	18.30160826122831
O	-4.931716070732591	0.6321698366649868	17.449496157122997
O	-5.126111242435032	1.460373479118088	16.403073446478878
O	-4.056976166938734	2.2420298327688633	16.024503027009416
O	-2.880889633828811	2.039296683607098	16.6703597669465
O	-2.89816083500276	1.5799765931979084	17.967064718442025
O	-1.5763977885787943	1.6675392012935761	16.072529672966162
O	-0.7891460155477366	2.583183778746775	16.554933346951124
O	-1.5926502531934288	1.8964819045281396	14.621831736784285
O	-0.5862469894337528	2.529303725782559	13.865676036479808
O	-0.46218144435614894	2.3830189052030786	12.518142966066048
O	-0.013476894310023635	3.428647163700365	11.961676113093567
O	0.04903360294504777	4.320281922535576	12.897424986074096
O	0.2858345739979038	3.582012419096878	14.058132932770206
O	-6.006873956633244	-0.33735813247817503	17.800308902896912
O	-1.1914099046670474	-0.7297927073198736	24.710284622310283
O	-1.3853123801081513	0.2835825166345649	25.608321837030335
O	-1.1431637769904164	0.10426592269425192	26.94353950466985
O	-1.4374239803884858	-1.153838645188594	27.454415070986204
O	-1.1924515386776355	-2.215161671876844	26.590046834899443
O	-1.2479245727054873	-2.0235342378901966	25.214086982301016
