30

O	2.2311826036335987	1.6768149064706441	27.193883277957067
O	1.873830906778018	2.343155185130397	26.005256432030972
O	0.4958577121112864	2.3511004124532366	26.02363176811042
O	0.24273151517509195	1.1312670840553063	25.645495125744706
O	0.5939815651377254	0.2954441182398486	26.697531186783266
O	1.1776549960311717	0.9380441940232003	27.823505089853896
O	0.23604688139079766	3.6960534900704887	26.299201750439742
O	0.8953730805124271	4.775802893639692	25.55217751856754
O	1.168176008421629	4.119512556121086	24.23852904146705
O	0.14941717386556919	3.1731267967353762	24.115087296853158
O	-1.16556246291043	3.591086181589334	24.66624405824158
O	-1.1831341624131668	3.8152271830881	26.104211753386586
O	-0.31181070327336236	2.56592175625077	22.86823137579332
O	-1.191380656192103	1.5112576009290266	22.801877966945963
O	-1.6590523461853075	0.9829733310038862	21.629681444750684
O	-2.151154193736079	1.9356712814615578	20.729841344235517
O	-1.2155735754963526	2.924630762937926	20.670529808747727
O	-0.36313536641130484	3.214990027931518	21.66894155821884
O	-2.136553241181933	-0.3685689652447306	21.516682538139747
O	-3.122172099954292	1.5707184183841085	19.684974450880034
O	-2.8974722570510494	1.6349256205360754	18.334436642812115
O	-3.8564081588709884	1.7123911502487505	17.360287133098712
O	-4.981657954095671	0.9405604841603408	17.632091573293177
O	-5.1826246701157945	0.53258532861004	18.91893550491215
O	-4.438424759178092	1.1718658417958858	19.919282949080337
O	-2.6807897247473176	-0.9337286096688237	22.609352930491603
O	-2.9682541764817616	-2.2331700654869127	22.456188679996956
O	-3.264641324953219	-2.704330668588928	21.25343957797058
O	-2.830871211525735	-2.1332728598799497	20.144680384546632
O	-2.5162774963200256	-0.8317860120654456	20.30578026948196
