95

O	-2.3695852052936512	2.4091959247777774	2.7502637739047624
O	-3.047697432293651	1.4986504027777776	3.5688177839047626
O	-3.168964992293651	0.12029760977777759	3.2554764739047624
O	-2.3395559192936513	2.1864227447777775	1.3506614839047624
O	-1.9852962022936511	0.7766270858777776	1.1760312309047622
O	-2.215585143293651	-0.17289530522222252	2.2575740939047626
O	-2.542643972293651	-1.4238146152222226	1.7056711239047622
O	-1.5747116566936512	-1.6375904452222225	0.7046044509047623
O	-0.45257227229365116	-0.7565254952222223	0.4377532599047623
O	-0.7835714972936512	0.6615516317777776	0.3526459979047623
O	-4.365160222293651	2.0140787247777774	3.6686795339047626
O	-2.645364462293651	-2.3564811452222227	2.7903736839047624
O	-1.115329440293651	-2.8871316752222227	0.9431810369047623
O	-0.009389722293651204	-1.2263756252222224	-0.8921701060952378
O	1.4318192977063486	-0.9759223952222223	-0.9222392260952377
O	2.059886757706349	-1.9597669452222224	-1.8836065860952378
O	1.1905190677063489	-1.9563254652222226	-3.1001978760952373
O	0.20722464770634885	-0.8245570852222225	-3.1824770360952375
O	-0.6966914562936511	-0.5256466452222225	-1.973238336095238
O	-0.9011949682936512	0.9477246097777776	-1.9623670860952378
O	1.740390277706349	-3.2901252152222225	-1.1541484960952377
O	2.6015816377063494	-4.004679065222222	-2.0225649960952374
O	2.214139867706349	-3.5539079552222224	0.07444619890476231
O	2.297545107706349	-3.488194035222223	1.3842507339047623
O	1.4087561277063487	-3.678982545222223	2.7522206639047626
O	1.5296144277063488	-2.3701136752222225	2.4187764939047627
O	-5.0425914022936515	1.2210828517777776	4.675293513904762
O	-5.850590242293651	2.1014209847777776	5.515555983904762
O	-5.603574342293651	1.8837981747777777	6.945905513904762
O	-5.6175708522936505	0.6069681127777776	7.436525233904763
O	-4.617070392293651	0.05407483677777758	6.680030163904762
O	-4.0080859322936515	0.8874761800777776	5.627805293904762
O	-14.320859962293651	-0.24403628522222232	-0.41424912409523773
O	-12.244019662293653	-3.0603639452222224	1.1995340669047623
O	-9.509293712293651	-2.2880484852222227	3.7079218139047625
O	-2.280537793293651	-6.702406615222222	1.0505400969047622
O	1.0577992977063488	-8.843210005222222	0.19678193360476232
O	-0.12445664229365105	-11.504172455222221	-2.2588275360952377
O	-3.5021416922936512	-9.758073555222222	-2.8578494360952376
O	-6.637505152293651	-7.850725455222221	-1.6437003560952377
O	-6.848632772293651	-4.019122975222222	-0.9993782760952377
O	-9.615389562293652	-1.6631047152222225	-1.5312865960952378
O	-9.795930652293652	2.0106689147777774	-1.0593016860952378
O	-11.132434912293652	3.9633000747777776	-4.026560216095238
O	-7.957835772293651	8.847201714777777	-2.4410000960952374
O	-6.155198132293651	5.726896974777778	-3.5641269460952376
O	-5.516295492293652	2.213157034777778	-2.5778909360952373
O	-5.852093002293651	-0.4696346452222223	-5.1949305860952375
O	-4.422806192293651	-3.9745376952222222	-4.745402196095237
O	-5.544977192293651	-6.899621405222222	-6.908613586095237
O	-2.877242102293651	-9.579136455222223	-7.066808776095238
O	4.506299947706349	-10.635392955222223	-9.490071046095238
O	6.823680247706348	-6.4534186352222225	-7.0725561860952375
O	7.05202980770635	-0.48568144522222234	-7.136875996095237
O	10.264903637706349	8.888104104777778	-2.6050690260952374
O	7.857354917706348	10.526686664777777	-0.21339291009523767
O	8.278904367706348	7.903190294777778	2.5359330639047624
O	8.188577657706348	4.831535764777778	0.2392255042047623
O	5.073757027706349	3.3726692347777774	-1.4323082060952377
O	5.365552357706349	3.7263299947777773	-5.209780696095238
O	3.0323527877063494	3.2612075147777775	-8.157370786095239
O	0.32894344770634887	5.688282614777778	-9.131937556095238
O	-1.0819828262936513	3.3801279547777776	-11.850176386095239
O	-1.0408391812936513	-0.2952204952222225	-12.803797386095239
O	-2.6607464922936512	-7.3201506152222215	-12.212095186095238
O	-4.043174432293651	-4.311258085222222	-10.247232986095238
O	-1.5670982679936512	-1.9069258752222225	-8.559886986095238
O	-2.5417186622936514	1.6826324637777776	-7.457325406095237
O	-0.8443143412936511	3.7278646547777776	-4.7877179360952375
O	-1.636867259293651	6.3842547447777775	-2.1472285560952376
O	-4.165415062293651	5.408774944777778	0.6121652889047623
O	-2.7325257222936514	6.187645684777778	3.9510388039047624
O	-5.4689405622936516	4.805340684777778	5.930423113904762
O	-3.8399099722936514	3.3358283347777773	9.070139703904761
O	-0.8703390402936512	1.5045328377777776	10.307875313904761
O	1.6061597777063488	2.4448348647777776	13.056294013904761
O	-0.20646517229365124	0.17589809077777763	15.508083013904761
O	-3.401192842293651	2.2219213147777777	14.79511911390476
O	-1.4988316450936512	5.405473224777778	15.667881613904761
O	12.990794537706348	-4.663989615222222	3.4654364139047624
O	1.615667417706349	-3.0739561252222227	10.250392513904762
O	3.578892637706349	-2.0527682252222226	7.2366517939047625
O	4.283607767706349	1.4868574357777775	8.002574553904761
O	1.199074397706349	3.2000306847777775	6.4473005139047626
O	0.5443771977063487	6.457268274777778	8.247271913904761
O	-2.129591121293651	9.012029714777778	7.350092133904763
O	4.526203957706349	7.8241985447777775	6.799817593904763
O	5.364879427706349	5.497809474777778	3.8588325839047624
O	7.250050557706349	2.2151501547777777	4.046729663904762
O	5.543223437706349	-0.5680106852222223	2.5324788239047624
O	6.170120037706349	-4.337263295222222	1.2142909239047623
O	9.847321437706348	-3.859147055222223	1.0081697189047623
O	11.972243937706349	-6.186156995222222	-1.2234459060952376
O	9.463016737706349	-9.044876035222222	-1.1347645960952377
O	10.281814237706348	-11.267294155222222	1.8739644839047622
