94

O	-5.997446469460318	4.142246707571429	-1.3713619921428568
O	-6.674152759460317	5.473653097571429	-1.0603586631428568
O	-8.058843079460317	5.52966067757143	-1.3208748279428568
O	-8.470318849460318	4.1678366775714295	-1.1204022031428569
O	-7.682271989460317	3.4766004775714294	-0.007485782142856889
O	-6.281074139460317	3.2617011475714293	-0.2988540111428568
O	-8.110007939460317	6.159860687571429	-2.6096536621428568
O	-4.626469699460317	1.5603215935714294	-0.22628734214285684
O	-5.4874599894603175	2.3672825185714292	0.47497227785714324
O	-5.531427549460318	2.0193683505714293	1.8087244178571433
O	-4.672154389460317	1.0426571615714293	2.377646617857143
O	-0.11941827946031758	-0.16938680242857074	-0.9084700551428568
O	0.9310355405396824	0.7725837555714293	-1.3698525901428569
O	1.9429813005396825	0.4524835075714293	-2.2090801151428567
O	1.6592021405396826	-0.6211755224285707	-3.0549301021428565
O	1.1710717205396826	-1.7387727924285707	-2.3883520221428567
O	0.2979161005396824	-1.4986340524285708	-1.365332103142857
O	2.874470990539683	1.4595552515714294	-2.691389812142857
O	5.108155750539683	2.2201491795714294	-3.6558311321428567
O	6.481798330539682	1.8390542695714294	-3.997837552142857
O	5.644752860539683	2.5496924455714294	-4.980347532142857
O	-0.7082549614603175	-2.5576375024285705	-1.0267280761428568
O	2.3473949005396824	2.5549276945714294	-3.063823682142857
O	-3.5845809694603172	0.8774581705714293	0.41974850785714324
O	-3.521327799460318	0.5925626175714294	1.7355877778571434
O	-2.5189524564603176	-0.16571567242857066	2.0453033978571433
O	-1.5161644742603175	-0.3507193824285708	1.1627886178571432
O	-1.3187607154603176	0.12055018757142943	-0.11676232214285687
O	-2.2318236404603176	1.7631071606714293	-1.0482171561428568
O	-2.5272982354603175	0.6627999375714293	-0.4578911061428569
O	4.059158140539682	1.1928926115714293	-3.4738825021428568
O	-12.401989039460318	-7.188863712428571	0.030119007857143165
O	-11.789758739460318	-4.072307512428571	-2.1290014361428566
O	-10.524944009460318	-0.9822836524285705	-0.3302151241428568
O	-3.378546169460318	2.1564375035714294	-5.0894354321428565
O	-0.5278209694603175	3.7942372775714293	-7.116291692142857
O	-0.8815098054603175	2.212970340571429	-10.620252032142858
O	-3.2504988394603176	-0.5000166124285705	-9.350437392142858
O	-6.245851469460318	-1.7986807324285707	-7.348190652142858
O	-6.178153529460317	-2.821420022428571	-3.6838059921428568
O	-8.000501539460316	-5.40450211242857	-1.690436293142857
O	-7.8163575094603175	-6.2268259524285705	1.9732197478571432
O	-7.287877819460317	-9.878527002428571	2.711323897857143
O	-2.9378930294603176	-7.650385732428571	4.641214207857143
O	-3.3779977294603176	-5.359819862428571	1.751654327857143
O	-2.8684042694603176	-6.81221185242857	-1.7094657701428568
O	-2.3124006174603178	-4.470925062428571	-4.733598872142856
O	-2.737124499460317	-5.758972302428571	-8.313872452142856
O	-0.7360732804603175	-3.643446312428571	-10.715202562142858
O	-2.9588366194603175	-2.3540914824285704	-13.609066562142857
O	7.547064360539682	1.8613045695714294	-13.268908662142858
O	6.586853040539683	-1.7334846324285706	-12.373109862142858
O	8.076548100539682	-0.11581214242857074	-7.504772882142857
O	9.015428360539682	-3.7374613124285707	-7.026148912142856
O	9.299596960539683	-2.1364962624285706	-2.050367989142857
O	11.536890660539683	-0.08868384242857075	8.402555527857142
O	7.297664560539683	3.4413420175714293	9.318287037857143
O	7.837652620539682	2.6093211005714294	5.616412927857143
O	5.628645250539683	0.2529552075714294	3.5555558378571432
O	7.625889970539683	-2.7988918924285704	2.494569107857143
O	6.8793269205396825	-6.1902885024285705	0.950077697857143
O	5.309209170539683	-9.08976890242857	2.7630528378571433
O	4.905633090539682	-11.11279670242857	-0.45278514014285687
O	4.840622260539682	-10.63868530242857	-4.211937832142857
O	2.1283712405396824	-8.52451640242857	-10.551203142142857
O	0.4797417105396824	-8.59614830242857	-7.076774652142857
O	2.2007282605396825	-6.83669485242857	-4.113283902142857
O	1.3959502205396825	-7.704823542428571	-0.4389480261428569
O	1.9823235005396826	-5.47613357242857	2.520520827857143
O	0.47636304053968237	-4.599394632428571	5.937407477857143
O	-3.1037779994603176	-3.257131632428571	5.946335637857143
O	-3.2013478994603175	-0.14099673242857058	7.9997246678571425
O	-6.754961919460317	0.7357513695714293	7.096963557857142
O	-6.935923469460318	4.540488497571429	7.027905287857143
O	-5.091305639460318	7.638273247571429	6.017373907857143
O	-4.0544019994603175	10.63947806757143	7.950178397857142
O	-7.087414159460318	12.58019749757143	6.759023627857143
O	-9.299712149460317	9.76598355757143	8.234566727857143
O	-7.555580659460317	10.24751386757143	11.569683637857143
O	-3.2517185194603178	10.60566725757143	1.8750993978571433
O	-0.31965727946031763	8.32806708757143	1.4800062578571431
O	0.4273858805396826	8.105091707571429	5.136477407857143
O	-1.2304494954603176	4.870711647571429	6.260340297857143
O	-2.2958764624603174	4.863446557571429	9.872058937857142
O	-3.8591931394603174	1.9999157245714294	11.855535337857143
O	2.0882602505396823	5.1293499875714295	10.745122637857143
O	3.7788548305396823	3.9300361275714293	7.457125047857144
O	4.863482870539682	6.067137237571429	4.481948517857143
O	3.4510299305396828	4.864024467571429	1.2038748978571432
O	3.8784762605396823	5.40188852757143	-2.600783632142857
O	7.430794740539682	6.89587137757143	-2.137466593142857
O	9.903867660539682	6.94134312757143	-5.047887232142857
O	7.204320850539682	6.814269037571429	-7.696182282142857
O	6.176883700539682	10.408415087571429	-8.645481652142857
