31

O	-0.10580494842827548	0.17244914498432595	22.45199463425388
O	-3.5960718997879564	1.160883778924579	17.877249011500467
O	-4.8445558365781505	0.6216069980885159	17.55158345775442
O	-5.418949491185961	0.6201517837678858	16.317872281605652
O	-4.890212081274425	1.501137049339475	15.381625524689042
O	-3.61318088975202	2.0052424651697525	15.598990753727001
O	-2.964533701655131	1.512771216603644	16.725786972231003
O	-3.0414897277107062	1.2655211727644409	19.244849954314034
O	-2.9107943549324373	0.01827891772454948	19.923299398713993
O	-2.368644467474287	0.17332414280773478	21.21631229937238
O	-1.5268936028680247	-0.7324836153980003	21.951878526546796
O	-2.2002641014352826	-1.4223918722721842	23.14285999254639
O	-3.2046786799603626	-0.7402001405043402	24.04681753106727
O	-3.0924113614284545	0.6568410688928912	23.52875282662032
O	-3.179894149592167	0.656030823573061	22.0415200161239
O	-2.8887713798024097	-1.2724129757074063	25.301121556582846
O	-2.2030491886312538	-0.28528923779710813	26.029852395496214
O	-2.596749872983839	-0.36654694847587543	27.330504466631815
O	-2.4559256143321178	-1.6675400173268957	27.857482864531086
O	-2.894036790184108	-2.7840502352676335	27.155914188361542
O	-2.832136624659589	-2.514201123702162	25.840602246647542
O	-2.932132753189922	-2.197878519493151	22.50518636143342
O	-1.679896517528622	0.955820349096818	25.368828518405724
O	-3.5855492081950264	-3.7590697273287317	27.97030671859927
O	-3.9869194466598277	-4.883322153599168	27.558988898214775
O	-3.7851827987493047	-3.586063783441748	29.398168415718352
O	-4.982352761243621	-4.037784015919905	30.114719227849413
O	-4.636076165450008	-4.6294489844205575	31.45021571784408
O	-4.705586607496807	-3.7366965663118643	32.50346722287301
O	-5.337241622680832	-0.04398289394024535	18.654384196249428
O	-5.51763654684895	1.7664530613312592	14.216994412027356
