43

O	-1.7814137451717826	1.3533068541324602	20.812756853576158
O	-1.866136128382695	2.893522178125303	15.33527034186953
O	-0.7511170310288688	1.3791189575253586	16.458425540667797
O	-0.839661992665803	3.005303347859962	14.456304969548246
O	-0.29764092830678823	2.377373714224058	19.089170138621203
O	2.1867576304019485	4.532251360464273	19.026854399025698
O	-2.0117325557943504	2.5964388608540117	20.650966186785038
O	0.6820068602982454	4.89133504413657	16.63524718172402
O	-4.220068406087399	1.1492906944210508	19.03370703963744
O	-2.8742514433499835	2.0725509406982536	17.152463809867815
O	-3.8635165093795796	0.5746358122798912	20.30790571075276
O	-2.5995605907326214	0.17412116688236223	20.58341179688222
O	-1.4091990552251916	3.37604396279061	19.668366896659975
O	-0.6509566295898185	4.185837526448821	13.948137635724791
O	-2.901733843694915	-0.255916853550088	18.218600799720924
O	0.2525259432728588	4.03226036335671	13.063584303989806
O	1.8575284649588135	4.003141097460871	16.54153597260702
O	0.20272016490421718	2.2200240097000377	14.240594577145568
O	0.7154768319980374	2.768853292385163	13.06411117716922
O	-1.5977122343024797	5.157934248431787	14.329629527764295
O	1.8526513690396191	2.226544084242496	12.434699279081972
O	2.135114414968681	1.1347443404038233	11.525606695341235
O	2.7770773593467757	1.4776447430569983	13.311355469392797
O	2.581619909902198	3.272407958660197	11.715238873237375
O	-1.498937220993324	6.422476309311519	14.056880796715241
O	-2.7540866427899413	5.01377251605294	15.14915462940768
O	-3.932532174066546	5.474980458600065	14.519004367307199
O	-2.692702365377275	7.005836752210625	13.543854507658097
O	-4.452418623956069	5.7016834699793915	12.165526537474431
O	-0.35885367539553226	4.694432432360594	17.54372688254396
O	-1.7883196160334665	1.974251666373915	16.268247578309513
O	-3.24359710676186	1.1359805879754121	18.140269807062673
O	-4.765659879218568	2.458759974564345	18.99769820499431
O	-5.374911071994387	2.247347812381144	20.40097690142473
O	-5.702116247340702	1.1517586494275651	21.18919455679796
O	-4.336188743767057	1.0038309060966257	21.554753393089022
O	-2.5693185076898155	-0.7280459137120363	19.550316620638583
O	1.7458201287621602	5.937142557589733	16.98153274377538
O	2.1916441845316434	5.795510126222868	18.475368891023265
O	1.9514135215572894	3.574861250516504	18.05729721298221
O	-3.7016798013305294	6.179659271665434	13.315455317504309
O	-0.690065222160419	3.4705819182229876	18.35146007538217
O	-0.7325154825282545	1.2129487481885957	20.111782000180504
