87

O	4.993925723839344	0.9909434578885246	-2.1827768752131145
O	5.404879943839344	-0.29150289311147537	-1.3724553822131147
O	5.018956733839344	-0.21757723311147537	0.061904394786885364
O	3.676090913839344	0.2862412668885246	0.23939337478688538
O	2.9269652238393444	-0.5774200331114756	-0.37564878021311465
O	3.089264733839344	0.7051481298885246	1.4458111147868853
O	2.0697852338393448	-0.08980910311147539	1.9800720747868854
O	0.7602278338393444	0.39298398688852454	1.6366872247868853
O	-0.12316153616065562	0.18156768688852454	2.7322203447868856
O	-1.4034064551606558	0.2551632968885247	2.1227308547868855
O	-1.6494046821606556	1.4966182578885245	1.6135774547868853
O	-0.7414778371606556	2.0787700538885243	0.6899039647868853
O	0.6120028538393443	1.7452850478885247	1.2535196047868853
O	1.4354618538393444	2.0737184168885245	-0.27917828721311466
O	0.37485133383934444	1.4517912129885246	-1.6876173062131148
O	-0.40438665016065567	0.42735133688852467	-1.0439426732131147
O	-1.7594141741606557	0.29457867688852457	-1.3798666492131146
O	-2.1884637261606557	1.1721402048885246	-2.3325972252131146
O	-3.4857517961606552	1.0817290238885247	-2.7293361752131147
O	-3.5636193961606555	2.2160652268885244	-3.3689673852131143
O	-2.419344986160656	2.7264337368885245	-3.7488505152131144
O	-2.0922255661606557	2.9596262668885247	-5.136349505213115
O	-3.3735381761606558	2.7272826568885247	-5.980688565213115
O	-2.0843506461606554	4.131882166888524	-5.939607385213115
O	-1.5604275831606556	2.241954260888525	-2.8109556652131147
O	-0.34109050116065565	2.4584577818885247	-2.337323595213115
O	-7.8741780261606555	11.985959226888525	-0.19196050321311464
O	-4.184409086160656	11.959193926888524	-1.2600099202131148
O	-2.983494186160656	9.401689566888525	-3.8291392952131145
O	4.206909853839344	5.727417096888525	-0.6584172602131146
O	7.739916333839345	4.200851286888525	0.5445636047868853
O	8.976921553839345	6.288134426888525	3.4121293647868858
O	5.603096523839344	8.079698606888524	3.7598645847868855
O	2.4587502338393445	9.735553696888525	2.2927280347868852
O	-0.6681755731606557	7.768257986888525	1.1135950247868855
O	-4.236798666160656	8.806412646888525	1.2700197547868854
O	-7.272278266160656	6.955492086888524	0.15098367478688524
O	-10.021734146160655	6.772768376888525	2.7523438247868857
O	-12.076913146160656	1.6035289670885247	0.4606887747868854
O	-8.677718086160656	1.7262627958885246	2.0601278447868854
O	-5.308906256160656	3.1898903268885244	1.6685727447868857
O	-3.6721476761606553	4.774376346888524	4.723694404786885
O	0.11513938683934433	5.4801879968885245	4.769312044786885
O	1.6295488638393445	7.852720696888524	7.333091164786884
O	5.292647923839344	7.075456396888525	7.871203314786886
O	9.941348453839344	1.3697110008885245	10.386094924786885
O	8.075429033839344	-2.6362702431114755	7.401430744786884
O	3.295392053839344	-6.189249943111475	6.671198834786885
O	-2.0754889461606556	-13.581526073111474	0.7415837147868855
O	-4.451753646160656	-12.287828973111475	-1.8852145452131146
O	-1.7079515841606556	-10.999504173111475	-4.207834925213115
O	0.46675094383934446	-9.412092273111476	-1.4571203332131146
O	-0.2776036491606556	-6.155617703111475	0.40888568478688525
O	-0.8108902873606556	-6.930082053111475	4.098749004786885
O	-2.1502434961606554	-4.968778883111475	7.081317014786885
O	-5.744491356160656	-4.086156613111475	7.615396004786884
O	-5.003287086160656	-1.8819720431114753	10.658121724786884
O	-2.1026394161606556	0.022117446888524572	12.216224024786886
O	2.908966023839344	5.266293196888524	12.630803824786884
O	-0.09169497016065564	4.935968726888524	10.252151724786884
O	-0.5233281211606556	1.6925799378885247	8.283073184786884
O	-3.854324586160655	0.6284421698885246	6.603885254786885
O	-4.185128976160656	-1.6672295831114756	3.6091616947868856
O	-6.500682786160656	-2.2888685931114754	0.6130289847868854
O	-6.7871421261606555	0.5182788268885246	-1.9289627152131148
O	-6.2437175561606555	-0.8755182831114754	-5.352600285213115
O	-6.232025596160656	2.4314189498885246	-7.060231915213115
O	-3.7112614561606554	2.1509469168885245	-9.934199365213114
O	-0.35131834516065563	0.8100786768885246	-10.784531875213116
O	0.5944406838393443	-1.4971960131114754	-13.670276375213115
O	1.7769728138393444	1.4421971364885247	-15.747347775213115
O	11.378619753839343	-7.899764893111476	-3.1699397452131146
O	4.798445413839344	1.1451500668885246	-10.009500655213115
O	4.558551313839344	-1.2065633631114754	-7.153274845213115
O	2.187080243839344	-3.656216453111475	-8.527955145213115
O	-1.1486484191606556	-2.2595711631114757	-7.336728635213115
O	-3.958741996160656	-3.214928723111475	-9.640438225213115
O	-7.677021726160656	-2.509712143111475	-9.216311365213114
O	-3.119820436160656	-7.466585823111474	-8.446814085213115
O	-1.1490822731606556	-7.149888663111476	-5.151962665213115
O	2.602671133839344	-6.939153233111476	-4.832949935213115
O	3.6982599538393437	-4.033223933111475	-2.8997854852131146
O	7.045853543839344	-2.698067233111475	-1.0862150852131147
O	8.615940553839344	-5.901602973111475	-0.9129847042131146
O	11.428264853839345	-6.484467203111475	1.6301039447868853
O	12.337531553839344	-2.803398763111475	1.9082119847868855
O	15.101592953839344	-2.1159995031114756	-0.6396327722131147
