105

O	-6.474431778127691	1.5637130446461536	1.1201966572292306
O	-5.842230418127691	1.0528211836461536	2.392444947229231
O	-4.517785148127691	0.5950019656461536	2.516815277229231
O	-3.5337222781276916	0.19064021164615363	3.272046367229231
O	-3.637164428127692	-0.6612975493538464	0.8686612772292307
O	-2.445226514427692	-0.7542981293538464	1.3095635372292307
O	-1.6158878651276918	-1.5375666993538462	0.39721784222923073
O	-0.44511811812769175	-1.1775583293538465	-0.20259608577076932
O	0.1916401918723083	-1.5582838093538462	-1.4182091627707694
O	0.600015221872308	-0.4088832593538463	-2.3328124027707693
O	0.5975387818723084	0.8125843866461536	-1.4541502127707695
O	1.7668228718723085	0.8325217276461536	-1.0638582737707694
O	-0.5493798481276917	1.1226935375461538	-0.4684130297707693
O	-1.0947872381276917	1.7205198566461535	-1.6645293427707695
O	-2.403189192427692	1.5636789426461537	-1.5210669427707695
O	-2.480286493027692	-0.4220977293538464	2.657634957229231
O	-3.011342959127692	2.4301109106461536	-0.44692295977076935
O	-2.2727161461276917	2.623437490646154	0.48324713222923066
O	-1.2828845681276917	1.6463137126461538	0.5146106742292307
O	-3.370875901127692	2.8494871706461535	1.4822813972292306
O	-3.6630546581276917	3.085373900646154	2.8549198872292307
O	-4.9685956581276916	3.5423635606461534	3.3201882572292307
O	-6.097653568127692	4.026799660646153	2.779183907229231
O	-5.571124478127691	4.405785300646154	1.5614418472292306
O	-4.376245228127692	3.795870010646154	1.2288877772292306
O	-0.5475756081276917	-2.456501159353846	-2.1239208327707693
O	-1.2478580481276917	-3.3578878593538457	-1.2906401127707694
O	-1.8395592841276918	-2.828844279353846	-0.1494809436707693
O	-5.586449538127692	2.8811045006461535	-1.1838599747707694
O	-2.786745118127692	-3.6507765493538464	0.6737606122292307
O	-4.334649498127692	0.3602107046461537	1.2304843372292307
O	-5.080364408127692	0.7572842316461537	0.0765573322292307
O	-5.8189682781276915	1.8823903536461537	-0.07909808577076932
O	-5.000846908127691	3.2913408106461537	-2.320461612770769
O	-4.8543424181276915	4.644765480646154	-2.829327142770769
O	-5.866431248127691	5.6405921006461535	-3.0561309827707692
O	-4.452675118127692	-1.5361887893538462	1.1568486272292307
O	-6.916307918127691	4.750979920646154	-2.528646832770769
O	-6.501093178127691	3.9182455106461536	-1.4125582227707694
O	-5.828474918127691	6.231919510646154	-4.364547462770769
O	-12.349007298127692	-7.484749039353845	5.305314807229231
O	-12.495480268127693	-5.0205697693538465	2.3623925472292306
O	-11.209223798127692	-1.5635971293538462	2.803453577229231
O	-5.653407998127692	-0.4333968093538463	-4.53736926277077
O	-3.498566488127692	1.0506057736461536	-7.46655929277077
O	-4.703238358127692	-1.2444416793538464	-10.09683802277077
O	-6.419465288127691	-3.642244239353846	-7.608186052770769
O	-8.741139698127691	-4.574967659353846	-4.637637442770769
O	-7.655450178127692	-4.483750229353846	-0.9313311737707692
O	-8.644692418127692	-6.197898649353846	2.126417377229231
O	-7.555009948127692	-6.028893559353846	5.67737131722923
O	-6.5081700781276925	-9.330536559353845	7.154590967229231
O	-2.0961888581276917	-6.479611629353846	7.221857667229231
O	-3.4575197781276916	-5.097059079353846	4.077222367229231
O	-3.549565398127692	-7.5332250093538455	1.1241868972292306
O	-3.964177388127692	-6.130911409353846	-2.485919842770769
O	-5.0706782781276925	-8.385183319353846	-5.387621772770769
O	-3.930457688127692	-6.946843119353845	-8.71843054277077
O	-6.897904158127691	-6.539804229353846	-11.17037572277077
O	2.877676651872308	-1.8102185793538463	-14.63125872277077
O	2.5309481518723085	-5.070201879353846	-12.62452992277077
O	4.811705651872309	-2.0957805093538466	-8.79092979277077
O	6.312934421872308	-5.446387889353846	-7.786638382770769
O	7.382786581872308	-2.449605699353846	-3.6075841127707693
O	11.525039031872307	-0.20675736935384625	-0.7964419427707693
O	12.783590731872307	-0.9241688093538463	2.702003687229231
O	12.120584131872308	2.0970697616461536	4.997564807229231
O	7.989958431872308	5.614272620646154	6.226026557229231
O	7.634086831872308	3.8785849706461537	2.8185834572292308
O	5.096061991872308	1.0580647796461538	2.036329047229231
O	7.061143001872308	-2.0635022893538464	1.2153634772292305
O	6.364580531872308	-5.757209899353846	0.8286637172292307
O	5.605581091872308	-8.080084909353847	3.7023853572292307
O	4.719263401872308	-10.958887959353847	1.3518810572292306
O	3.7562483118723082	-11.553463359353847	-2.2730647827707693
O	-1.3699370481276918	-10.629608659353845	-4.315956332770769
O	0.7963801318723083	-8.076438499353847	-2.440183812770769
O	0.9580386618723082	-7.828028749353846	1.4237302472292306
O	1.9048098118723078	-4.827741519353846	3.486350777229231
O	1.1088110018723083	-3.089659539353846	6.817555167229231
O	-2.445999663827692	-1.9526411593538462	7.443783527229231
O	-2.2809507441276917	1.5457669556461537	8.63038499722923
O	-5.983233148127692	2.2115684806461537	7.916654507229231
O	-6.506677298127691	5.784747770646154	7.02160621722923
O	-5.092581688127692	8.663085350646153	5.313255517229231
O	-3.8154155781276917	12.117187840646153	6.41821166722923
O	-7.274495868127692	13.566860040646153	5.540342897229231
O	-6.5937049781276915	12.225016140646154	10.61374247722923
O	10.550551331872308	8.725552620646154	3.358594247229231
O	12.567182231872307	7.244071910646154	-2.538060592770769
O	6.227587071872307	9.798224170646154	-6.577558632770769
O	-4.240646528127692	10.881010610646154	0.4995586562292307
O	-1.3715205481276918	8.501016860646153	-0.1577486256707693
O	0.14847498187230812	9.062368580646153	3.1809478872292307
O	-1.0386424981276918	6.039744040646154	5.362660767229231
O	-1.3315900981276918	6.856388070646154	8.96271042722923
O	3.153360951872308	7.383828650646154	8.63572503722923
O	4.075850331872308	5.5076469006461535	5.378460287229231
O	4.342223211872309	6.936509610646154	1.7927154672292305
O	2.340063421872308	4.971193420646154	-0.7438132577707693
O	1.413559781872308	4.475890550646153	-4.566088422770769
O	4.734352361872308	6.113680260646154	-5.38867849277077
O	6.153032291872307	5.463176450646154	-8.74677196277077
O	3.009370081872308	4.492238410646154	-10.44856012277077
O	1.6889024418723086	7.6726987906461535	-12.05446242277077
