37

O	1.2355344676227802	4.3032957290301646	12.387348866053822
O	0.32182780606841876	4.762222607118887	19.346210588008
O	0.6677850469423559	6.002619133035615	13.598453180470571
O	-0.7380957290927486	5.2862776999133905	18.52910950020577
O	-0.7598838949689297	3.154860344747103	15.018257838574272
O	-4.006044104546813	1.2051274568841794	18.786471720340064
O	-0.017385638404245007	5.539911847110729	17.18094448066664
O	-2.325076685012062	2.4229676232024446	18.151533845764074
O	0.04254329335507134	1.4965398805966572	15.693399867162322
O	0.252305390323871	4.68890573228729	15.949513988847622
O	-1.3772759453644614	0.6004887870680732	21.408415619665607
O	0.43617386245566947	3.764297695484796	17.0503959086852
O	-1.5252610259292008	1.7076845732896473	20.28055201189754
O	0.30427534193695127	3.4929357072365534	18.49734057637103
O	-3.600238356200248	0.8428831613778904	21.831023987550267
O	-0.6698280237189975	5.2825523483662336	15.047303426948941
O	-1.5292987594232446	4.714424373443659	14.04434124959686
O	-0.3859875659089138	3.7404484691071485	13.710889040672939
O	0.3400719570540609	4.872128417538669	13.199321165778604
O	-0.843098331536499	1.8662918876771464	14.904989582953156
O	-2.216315816469888	1.3521829961169027	14.901653159988312
O	-3.5325547247753333	1.9153365866680097	14.691776073046377
O	-3.207841412974103	3.194280162108099	15.159271153447378
O	-3.4159422851021475	2.807081610063114	16.506244992825255
O	-2.553536360157244	3.5556935780846413	17.196858021322367
O	-2.7750057340910237	1.0959896513010938	18.718680880779225
O	-2.4690307641945477	0.07830585583580246	19.635244021695
O	-1.8143710037727527	-0.5305866464811096	20.74190043429616
O	-1.8797158455941294	3.164331048277179	20.73725040647671
O	-3.136440239392563	3.540839410204134	21.09795927188148
O	-3.5895025854198357	3.689513530779551	22.447889351498045
O	-2.7177796355157966	4.583610670516758	23.085672690429814
O	-1.570229579351189	3.8009429978892615	23.270446058031553
O	-1.1787390306417989	3.2943728811304824	22.00210953175988
O	-2.7149140172976685	0.9780704638904484	20.691037386694674
O	-2.379861679774276	1.8192314477106701	16.64302858008807
O	-2.8970912251968652	0.6862321483967568	15.981092958325302
