80

O	0.2699151554814818	2.50333653717037	2.8738702887222223
O	0.039746795481481856	-4.0515327828296295	-1.9857959112777777
O	0.5830877554814817	-5.3256627028296295	-1.6788399452777778
O	0.536759715481482	-6.589679462829629	-2.3027504212777776
O	1.867171425481482	-7.32898683282963	-2.1635683712777776
O	2.0018481554814818	-8.78763214282963	-2.6003565512777778
O	1.063519495481482	-9.74843957282963	-1.9347817712777777
O	-0.24446874451851808	-9.09278741282963	-2.239097181277778
O	-0.4056401345185181	-7.652243922829629	-1.7278693552777777
O	1.106743405481482	-10.95504448282963	-2.5987702612777777
O	0.8586262454814819	-2.93506173282963	-2.3200752212777775
O	-0.6952912505185181	-3.51566027282963	-0.8138963304777778
O	-1.1306886975185182	-2.1632586228296296	-0.8575998532777778
O	0.727190025481482	-1.5853444128296297	-1.9470447312777779
O	-0.3338725845185182	-1.0113771938296297	-1.1458871342777777
O	-1.9849006865185181	-1.9045864128296297	0.27275403872222215
O	-1.3981068785185182	-1.0532849138296299	1.2551663387222223
O	-1.0206049785185183	0.26109193417037024	0.9365695887222222
O	-0.40447661451851813	0.22649709817037023	-0.35522853927777776
O	-2.0264136805185182	-0.9774046878296297	2.4577438187222223
O	-1.755605422518518	1.1654258171703704	1.580544038722222
O	-3.176406734518518	0.7566114471703703	1.736647688722222
O	-3.5301791445185184	1.24894098717037	3.097000948722222
O	-3.630765334518518	2.7791140971703703	3.170639208722222
O	-2.271448238518518	3.33438219717037	2.7590177787222223
O	-1.399843735518518	2.1497401871703703	2.579604248722222
O	3.173174585481482	-12.480209182829629	12.288321018722222
O	8.491296625481482	-8.00299755282963	4.8624754987222225
O	4.732034965481482	-8.68969557282963	5.274612848722223
O	2.481034845481482	-8.44079181282963	2.2227899387222223
O	-4.603498994518518	-3.44574377282963	4.315982028722223
O	-7.735881904518518	-1.3061018648296296	5.170441298722222
O	-7.931517504518519	-1.27574159382963	9.004047788722223
O	-4.350659094518518	-2.49988970282963	9.333786018722222
O	-1.431308442518518	-4.730671132829629	8.317301698722222
O	1.0788617454814817	-3.99492241282963	5.602691898722223
O	4.723042175481481	-4.64617686282963	5.158473418722223
O	7.034827675481482	-3.87396391282963	2.3065045287222223
O	10.199172725481482	-2.0549993928296297	3.2681956787222224
O	13.294228325481482	-0.37785098902962977	1.9177572487222223
O	10.629382725481483	0.6127809971703703	-2.1307123412777775
O	7.725861765481483	1.4385906471703702	0.16684362872222225
O	4.667758355481482	-0.02357411082962979	1.714159438722222
O	4.131986905481481	0.6477662771703702	5.4106843487222225
O	0.6906521654814819	0.08890341417037029	7.027701318722222
O	0.23496447548148192	-0.15581713682962978	10.781520918722222
O	-3.2670005845185184	0.7872206371703702	11.807576118722222
O	-0.04424108451851816	9.98932741717037	-9.764195301277777
O	-2.962910484518518	7.51284286717037	-9.871230161277778
O	-4.0447558645185175	7.926728237170371	-6.217477711277778
O	-2.259615099518518	6.4705170871703706	-3.138512051277778
O	-0.9812840035185181	9.269148957170371	-0.9795592442777777
O	5.1045926754814825	9.435254907170371	1.750828948722222
O	5.500682735481481	9.508015717170371	5.543109388722223
O	-0.16500480451851818	5.126208897170371	13.635620118722223
O	2.0325514354814818	3.92935655717037	10.713425918722223
O	1.3499406454814817	5.21653152717037	7.177922678722223
O	3.996578305481482	5.06234565717037	4.337047818722223
O	3.233755825481482	5.063684097170371	0.6459114287222222
O	4.535307765481482	3.6567315471703705	-2.6517086412777777
O	4.880978045481482	-0.05109000082962978	-3.0629312912777777
O	3.1575074354814823	-1.15413694482963	-6.232952431277777
O	3.401281225481482	-4.80543185282963	-5.626604041277777
O	0.2528683154814819	-6.382414072829629	-7.195894841277777
O	-3.450217764518518	-5.88799297282963	-7.646729141277778
O	-2.809567054518518	-10.32937099282963	-10.263596471277777
O	-2.3642444075185183	-8.58171767282963	-13.586375181277777
O	-8.226567984518518	-5.674303002829629	-5.248133371277778
O	-7.779090894518518	-2.04441945282963	-4.396879621277778
O	-6.1983217945185185	-0.9846971928296298	-7.582480231277778
O	-2.464970282518518	-1.2759420558296297	-7.009459271277778
O	-0.5049376245185182	-1.9071177528296297	-10.171263441277777
O	3.3002504354814817	-2.0979855628296296	-10.605560981277778
O	-1.8966575375185182	2.15253783717037	-11.430561581277777
O	-2.934682634518518	3.8665007871703705	-8.136086421277778
O	-6.371055024518519	3.84574418717037	-6.4818435712777775
O	-6.335871034518519	2.61763975717037	-2.9234178612777777
O	-8.764434664518518	2.66778471717037	0.08927328372222221
O	-10.903507864518518	5.4298796071703705	-1.2459252542777777
O	-13.252770474518517	4.85372419717037	3.7550841887222224
