92

O	-0.16130540768387014	1.0612094409193547	3.8219218345483865
O	-0.9024163442838701	0.05149294791935455	4.213194234548387
O	-1.56551159768387	-0.5246708020806453	3.1400086845483863
O	-0.6459820686838701	-0.9463750720806453	2.2390786345483864
O	0.2592808083161299	-0.06408023008064545	1.8395048745483866
O	0.4079432883161299	1.0095827679193545	2.6354854645483865
O	0.7768584583161299	2.2684800679193544	2.3182267645483865
O	0.24941702831613	3.116505267919355	3.2910759645483862
O	0.24220043831612992	2.261503297919355	4.341769714548387
O	0.5593926983161298	4.469847357919354	3.7719109445483863
O	1.8197305583161296	4.299156497919355	3.8299691345483864
O	0.15085837831612992	4.534706197919355	5.150330194548387
O	0.1632711903161299	5.473620687919355	6.218287154548387
O	-0.4321372206838701	4.848108317919355	7.436973624548386
O	-1.8587934516838702	4.418127407919354	7.156610234548387
O	0.51807105831613	2.7387547279193547	0.9528004145483866
O	0.89601565831613	-0.3123586520806455	0.6109276595483866
O	0.6454426883161298	-1.5519532620806453	-0.07731598215161338
O	1.63692855831613	-2.1743441620806454	-0.7768613124516133
O	1.37974607831613	-3.3340204720806454	-1.4481784954516133
O	0.11699273731612991	-3.8548319620806453	-1.1034107174516135
O	-0.90787506488387	-2.9614902920806454	-1.2329716854516133
O	-0.6795267876838701	-1.8214795220806455	-0.4721912264516134
O	-2.17579774168387	-3.483972062080645	-1.7119336454516134
O	-3.07187465168387	-3.4888794920806454	-0.8115666274516133
O	-2.3035837016838703	-4.552068212080646	-2.6633221454516134
O	-3.67709510168387	-4.958636602080645	-3.0182548754516136
O	-3.9857958716838704	-6.140690692080645	-3.8314395754516135
O	-4.26751881168387	-4.811262192080645	-4.358131715451614
O	3.03460268831613	-1.760029252080645	-0.7221034864516134
O	10.90838357831613	2.0289268179193547	9.100932284548387
O	7.740491988316131	0.13174539891935455	10.195653814548388
O	4.32248666831613	1.7220894919193546	9.642011394548387
O	-0.9068065174838701	-4.288662592080645	5.650091434548386
O	-3.4023068016838702	-6.939051712080645	4.181371134548386
O	-1.7985990976838702	-10.362570352080645	4.928736814548387
O	1.5775577983161297	-8.778808402080646	5.768541984548387
O	3.7499189183161294	-6.1056778020806455	7.501704514548386
O	4.57748779831613	-2.679486532080645	5.963024694548387
O	7.660935068316131	-0.5666011120806455	6.219870134548387
O	8.41524928831613	2.7887367879193548	4.738581524548387
O	11.648991178316129	3.0341336779193546	2.8282128345483866
O	9.54471227831613	7.396333377919355	-0.7915404314516135
O	8.01291897831613	3.9290140779193545	-0.9154998144516133
O	6.05255239831613	1.4754247419193547	1.0582805945483866
O	7.24515969831613	-2.1013981920806453	1.1384250145483867
O	4.85504999831613	-4.946409892080645	2.2569781845483865
O	6.2859495783161305	-8.374648812080645	3.2208885245483865
O	3.6305251983161297	-11.032584452080645	2.8193997545483866
O	-0.7490180874838701	-14.432626152080646	-2.6228032254516136
O	-2.8877912116838704	-10.047400952080645	-4.818261195451614
O	0.1782786343161299	-10.115559352080645	-7.023367455451614
O	-1.50298510268387	-5.229481692080645	-8.116767815451613
O	-4.43983136168387	4.356460787919355	-12.190526785451613
O	-3.6482610516838703	7.405822937919354	-10.142315105451612
O	-6.23748684168387	6.650540967919355	-7.4207654654516135
O	-5.48265419168387	2.9106308279193547	-7.085092755451614
O	-2.42496604168387	1.3771055999193547	-5.314328105451613
O	-0.3606453696838701	-0.44438606208064535	-7.964224425451613
O	3.08211057831613	-2.0293935520806454	-8.056378815451612
O	6.32115823831613	-0.15953773208064537	-8.192953505451612
O	8.42603931831613	-3.315522402080645	-7.700709295451613
O	8.082748178316129	-6.875268352080646	-6.425167455451613
O	7.15454261831613	-12.067256552080645	-1.4484578454516133
O	7.79620910831613	-8.310246502080645	-0.9876087274516134
O	5.5108475183161305	-5.7899784420806455	-2.7851008754516133
O	6.53623984831613	-2.084190272080645	-3.3549745754516134
O	4.12590447831613	0.7658634389193546	-3.8284049254516135
O	3.9204283283161296	4.543584357919355	-3.3578805454516134
O	4.01587107831613	5.747817707919355	0.2601295535483866
O	1.02484623831613	8.073130287919355	0.8330802545483866
O	1.5182023483161298	8.309235277919354	4.628310674548387
O	-2.02548455168387	8.639809197919353	6.244440994548387
O	-5.52273090168387	7.203749617919355	6.098014824548386
O	-8.78696990168387	8.994171127919355	5.645882554548386
O	-9.48610737168387	8.801560207919355	9.373963414548387
O	-7.35170466168387	13.422120047919355	7.552384144548387
O	-13.41054292168387	-3.860841832080645	-3.3843434554516136
O	-8.59829875168387	2.8921992579193545	6.801240334548386
O	-7.820702201683869	1.6332251929193546	3.3519569745483864
O	-7.90660633168387	4.880274797919355	1.6109505045483867
O	-4.28906361168387	6.0863415179193545	1.6463597745483867
O	-4.06947569168387	9.867658457919354	1.4675818445483866
O	-0.9247773466838701	12.056473747919355	1.1734644545483868
O	-5.9252425016838695	9.538509187919354	-2.5546429654516136
O	-5.35434079168387	5.871787797919355	-3.5738738454516135
O	-7.58434486168387	2.886131437919355	-2.8710031154516136
O	-5.8736052816838695	0.048213829919354634	-1.0856001774516133
O	-6.6094041616838695	-3.700638372080645	-0.5101334074516134
O	-9.311388211683871	-4.017446772080645	-3.1625942654516135
O	-10.197761181683871	-7.467329192080646	-4.651343005451613
O	-9.031894011683871	-9.345817952080646	-1.5638015554516134
