111

O	-0.8790632596811595	3.96075140557971	-0.45336391228
O	-1.6271544356811596	0.6644396935797099	-0.31657703940000004
O	-1.3701121576811595	1.7599172375797099	0.43879852459999996
O	0.03762672831884051	1.70050968057971	0.5618006095999999
O	0.6094554583188405	1.95942564957971	1.9254732096
O	-2.3639517316811594	1.8899189885797099	1.2047709296
O	-1.6979614186811594	2.84444156557971	2.1963103196000002
O	-0.37022800568115943	2.6636345055797097	2.4301956996
O	-1.1166379996811595	4.9299697855797096	0.46350393959999997
O	-2.989412841681159	0.9267015115797099	1.1550176796
O	-3.92302358168116	-0.014724674420290018	0.033578240599999976
O	1.5928924283188406	1.46770952857971	2.8077310596
O	2.5340096583188405	0.4188777855797099	3.0172017996
O	0.9847738283188405	1.14091336857971	4.1778010096000004
O	2.0749961383188404	2.5929364755797097	3.6484730495999997
O	-0.5937324846811595	-0.09912099442028999	-0.037700303400000024
O	-0.4767594056811595	6.08306572557971	0.40112367759999995
O	-0.7324330676811595	-0.27879571442029016	1.1309085396
O	0.6175474983188405	6.17350780557971	-0.40741916440000003
O	-2.883389911681159	3.4601992555797096	2.5975767296
O	1.2705544183188404	5.03118809557971	-0.6938674484
O	-3.838322431681159	3.7849170655797097	3.9422811596000003
O	0.5337082583188406	3.98551367557971	-0.3605711652
O	-3.4525087116811592	4.93588253557971	4.8503014596
O	-5.1621104216811595	4.53494629557971	3.6550637995999997
O	-4.87818176168116	2.49595821557971	4.6698972496
O	-0.1357644226811595	2.05373506757971	-3.1155217804
O	-0.7768186796811595	0.9902923095797099	-3.8977655803999998
O	-1.7330685516811595	1.33927891457971	-4.9666094204
O	0.5126571083188405	1.4408215465797098	-2.0077095204
O	-0.026166243681159496	0.79031616557971	-0.9562039334000001
O	-0.6796524726811595	-0.16903213442029008	-1.8189405204
O	-1.0307636443811594	-0.27181619442029015	-3.2646986603999997
O	-2.1073140716811594	-1.22486702442029	-3.7110917403999997
O	-2.8272188816811594	-1.3480178944202903	-2.5620957904
O	-3.0862098916811593	-1.4338777944202903	-4.4780871004
O	-4.07322691168116	-1.0197441944202903	-3.6431850704
O	-3.47974436168116	-0.11800669442028999	-2.7097020404
O	-3.5705468316811597	1.14600004557971	-2.1198674403999997
O	-4.049182591681159	0.52023132557971	-1.3056065784
O	-2.5242765016811592	2.10368410857971	-1.7216823804
O	-1.7163380416811593	2.88054072557971	-0.6329205614
O	-10.33363672168116	1.3899206815797098	-11.3557520104
O	-10.21160153168116	-0.9834658544202899	-8.374024330400001
O	-7.204572871681159	3.3474606155797098	-1.8076007904
O	-6.375854171681159	5.20906398557971	1.4676982096
O	-6.597226071681159	9.16388294557971	0.7532482696
O	-6.7793284716811595	8.52069842557971	-3.0461703304
O	-8.07266916168116	6.4974108855797095	-5.9661422904
O	-6.519349431681159	3.32008788557971	-7.2958757804
O	-6.3662989116811595	1.8988324375797099	-10.6747044104
O	-4.889399161681159	-1.2404941144202901	-11.9853242104
O	0.5900710583188404	-2.68826648442029	-11.0193956104
O	-1.5891066536811596	-0.70467564442029	-8.9320665604
O	-1.2972386246811594	3.05580592557971	-9.1762896404
O	-2.7340824116811593	5.34061146557971	-6.5188643704
O	-3.362202431681159	9.10312440557971	-7.134766820399999
O	-3.38844430168116	11.054512675579709	-3.8571569604
O	-6.633890031681159	13.15241343557971	-3.5250348704
O	-0.058099158681159446	12.52864793557971	6.0526709996
O	1.1038396283188405	12.72075493557971	2.4105765396
O	4.652390678318841	12.86240813557971	3.5391113496
O	4.103929388318841	10.136317765579712	6.0082532796
O	2.5635824083188403	7.59397037557971	3.3865224896000004
O	5.394233558318841	8.50219324557971	0.9468794095999999
O	6.714290978318841	4.87019310557971	4.7354911096
O	6.221539678318841	3.40069307557971	1.2191514796
O	9.73132171831884	4.38201345557971	0.44694954459999997
O	9.471340618318841	-0.70437063442029	3.1922488296
O	11.48326711831884	-3.3940608944202904	1.3674885695999999
O	10.01991861831884	-6.915498524420291	2.1679797896000004
O	4.9751560683188405	-9.444827764420289	2.5415359696
O	4.852609598318841	-5.65072990442029	2.8683670196
O	3.601000578318841	-3.27533167442029	0.10994241759999995
O	6.449064128318841	-0.95910398442029	-0.9533426374
O	7.191199148318841	1.43520195057971	-3.8145217804
O	7.79756067831884	0.42635456557970985	-7.4166086504
O	7.637184678318841	4.06587057557971	-8.6069101804
O	2.4213388283188406	6.08093703557971	-6.0199011604
O	3.045735658318841	2.64337734557971	-7.8461456804
O	3.1954652883188404	-0.8278347044202903	-6.3191423904
O	2.150135068318841	-4.40720399442029	-6.9252674704
O	-1.4184277706811594	-5.31362954442029	-7.8540418404
O	-2.4147295316811594	-8.320156184420291	-5.8827841304
O	-6.023208181681159	-8.05354959442029	-6.8684140103999995
O	-8.05002097168116	-9.365993764420288	-3.9589715404
O	-8.34608469168116	-8.96636006442029	-0.2492303724
O	-8.47269865168116	-11.721533964420288	2.3857316496000003
O	5.6811995383188405	-9.010858764420291	7.3514929996000005
O	9.81471891831884	-6.54416525442029	9.6093959896
O	7.500532678318841	-3.56804012442029	10.0917251896
O	6.457186768318841	1.1852713955797098	12.8563192896
O	3.178114368318841	-0.22219118442029018	14.1492073896
O	0.22665504831884054	-1.1557252144202903	11.8620406896
O	-5.419024841681159	-1.42752318442029	12.1510077896
O	-8.82476730168116	-8.68916806442029	6.2194567796
O	-9.49177157168116	-5.76275108442029	3.8174888596
O	-5.945980081681159	-4.69391811442029	3.9375689196000003
O	-4.2144983616811595	-7.8113700944202895	3.3755842696
O	-3.753048261681159	-7.93959683442029	-0.4067228768
O	-3.6117849716811596	-11.51980236442029	-1.6674401504
O	0.14493523831884048	-11.90715806442029	0.7455004496
O	1.2858952383188405	-8.266179734420291	1.3320615595999998
O	0.3642206283188405	-6.09762512442029	4.3163633796
O	-1.2129235986811595	-2.9218603344202903	3.1919701596000003
O	-1.9295967896811594	0.1352142155797098	4.9979716096
O	0.4862968983188405	0.12471340557970989	7.817875389599999
O	1.8178108483188404	3.20979276557971	9.6796806896
O	-0.9083053196811595	5.57302035557971	8.9122086196
O	-3.6096106416811597	5.18179782557971	11.6969655896
O	13.735740318318841	2.36245159757971	-8.2531186804
