28

O	-3.0987850060587943	2.3111303947479556	21.617222541911403
O	-2.914898652751136	1.9499730190016324	17.06192936358438
O	-2.8632038526391685	2.5846452378943825	15.807767340847146
O	-3.6959541312706414	1.8512162860821453	15.038645628722927
O	-4.922523482023172	1.3136657824650058	15.49000497729663
O	-4.884148395040754	0.7477567922957866	16.728215994974068
O	-3.6516460770181487	0.7400333360510363	17.267004615039014
O	-5.924580161619131	0.01022089661160222	17.45613923001194
O	-3.043684625897446	-0.4050873096079465	17.99216206801029
O	-1.6583018890478087	3.122259488852584	15.171906669943152
O	-1.511038969955939	3.502373755549775	13.805443089285777
O	-0.6928766590424309	3.354703094331327	15.926053072389514
O	-0.20015809060612177	3.7745730524008607	13.193046345279742
O	-0.008563228084898622	3.4460650658991034	11.683640000249806
O	0.11484082365699422	4.802492206690124	12.201017794758984
O	-1.654623189289249	-0.0876923893562582	18.270054768394584
O	-1.7709298300886536	0.3506999907534778	19.757289352128108
O	-3.033896195534152	1.088384655090495	19.752245526190336
O	-3.9469475186255223	0.48540108751615496	20.657428045849635
O	-3.4317455078294135	-0.2646373581971344	21.65940650119498
O	-2.126811109433248	-0.9135058950747783	20.870975917283605
O	-1.057206364353171	0.830466762876598	17.676313142487736
O	-3.3206912728223816	0.014924869193830431	23.132631766263884
O	-2.751734960500089	-0.891351283423236	23.967880885920174
O	-1.8010626145981088	-0.583518333605646	24.95373684937319
O	-1.3764245922008198	0.6880274180391157	25.064246240302573
O	-1.8987136031219194	1.6213574090544212	24.160683166071834
O	-2.994158523009779	1.3300735254805756	23.32624746206453
