85

O	5.8009185265	0.8799863938383334	-0.029027388433333523
O	5.3817305765	-0.27818780816166666	0.7878193495666664
O	6.3043195665	-0.43598929816166665	1.8478886495666664
O	3.9567258964999996	-0.47738428816166656	1.1190238895666664
O	3.4963707764999996	0.7642365468383334	1.6459288295666665
O	2.1783671464999994	0.9775426130383335	1.1350383695666664
O	1.5755862064999997	-0.23583747816166656	0.9832350395666666
O	1.9914204364999997	-1.3219880881616664	1.7085413195666668
O	3.3336540964999997	-1.4468781081616664	1.7416723495666666
O	1.9872112464999996	1.9974595548383334	0.05991736356666655
O	0.15916094749999973	-0.04081983816166668	0.5670868195666664
O	-0.5386376655000003	0.43300210183833343	1.6397863895666664
O	-1.8545385235000003	0.1529603968383334	1.7130881095666668
O	-2.3521625535000004	-1.0155671881616664	1.2534143295666667
O	-1.6036969335000002	-1.6630005181616665	0.31092029956666645
O	-0.3330615665000003	-1.1739344081616665	0.025604901566666505
O	2.8982393164999993	3.051944551838333	0.16568264856666648
O	3.5995149564999993	3.582100391838334	-0.9226619064333335
O	2.8636707064999993	3.4261675818383335	-2.0120587804333336
O	2.1298733864999995	2.3240903818383334	-2.1684100904333334
O	1.4733992664999997	1.6988333968383333	-1.1538817524333336
O	-3.6693733535000006	-1.3860977181616667	1.2362999995666666
O	-3.8702395235000004	-2.749209648161666	1.0318802895666663
O	-2.7641818035000005	-3.603458258161666	0.9947972495666665
O	-1.7693936535000003	-3.026681998161666	0.20891290756666647
O	3.1487346664999993	10.986806651838332	7.648695219566666
O	4.7066493865	7.554752191838333	8.411421479566666
O	6.3528679365	5.620836081838334	5.579987359566666
O	3.2030110164999996	-2.769721358161666	5.850473499566666
O	2.2182046764999996	-6.423060668161666	5.825070909566666
O	0.7719166534999997	-6.950768648161667	9.363406669566666
O	0.5118710964999997	-3.2075470781616664	10.025041969566667
O	1.9183445864999997	0.35628376983833343	9.924053569566667
O	1.6449781164999997	2.6859778518383335	6.903019659566666
O	1.2499969464999998	6.410771911838333	6.674472459566666
O	1.0281755464999998	8.666282311838334	3.6826648095666665
O	-1.8745701935000003	11.083209001838332	3.6930017795666665
O	-3.7037580935000003	13.675607101838333	1.6503804795666666
O	-2.0764799335000004	11.213308401838333	-2.3285311904333335
O	-2.8831395135000006	8.002403601838333	-0.4955785614333335
O	-1.3694694135000003	5.409754251838334	1.6377558695666665
O	-3.2668563535000006	4.395371821838333	4.804151019566667
O	-2.3367771735000007	1.0473410335383335	6.593961279566666
O	-3.5144153835000003	0.3516163788383334	10.145935669566667
O	-3.6547640435000006	-3.366699518161666	10.808333169566668
O	-7.3145352835	-9.774409998161667	8.452570719566667
O	-6.4088579135	-9.373864898161667	3.2128845195666664
O	-6.1298989735000005	-3.746159788161666	-11.984353530433333
O	-3.6792098335000003	-1.0108999481616665	-12.764273330433333
O	-0.6198108775000003	-3.0400864281616666	-11.701193330433332
O	-2.1083938735000003	-4.509411058161667	-8.486957220433334
O	-2.7047363235000006	-2.682569608161667	-5.1992581804333335
O	-6.4085479235000005	-2.498632128161667	-4.515065500433334
O	-8.690665093500002	-0.6584628581616665	-2.1140571204333334
O	-9.525879573500001	2.9847034418383336	-2.3114895404333335
O	-11.2894234035	2.9777027618383336	1.0776713395666664
O	-11.481766803500001	0.9019701538383335	4.252292979566666
O	-9.089633243500002	-1.8957906781616665	10.492709369566667
O	-7.5496289035	0.8446179818383335	8.280246759566667
O	-6.9900183335	0.16704593283833347	4.546943189566666
O	-6.5320033035	3.0078495918383332	1.9175227795666667
O	-4.7183976535	2.5898235118383335	-1.3960438034333333
O	-2.7258905135000004	4.634748471838334	-3.9263102104333334
O	0.5226767794999997	6.154744471838334	-2.7618059104333335
O	3.3287276364999996	5.067139941838334	-5.145164010433334
O	6.1476246764999996	6.1856559018383335	-2.9209604404333334
O	9.150082726499999	3.9267942518383334	-3.6741809004333335
O	10.0634913965	0.30509378183833347	-4.102476410433334
O	14.748118096499999	2.5539407518383337	-4.635614380433333
O	14.4973282965	2.7611167418383333	-8.419695180433333
O	10.481824096499999	-4.631315208161666	-1.9730232604333335
O	6.8428805765	-5.351109908161666	-2.6865000604333336
O	6.7034371165	-3.8204613181616667	-6.069537090433334
O	5.5670947565	-0.24913455816166663	-5.501576600433334
O	6.7942506565	2.1322617418383336	-8.202019590433334
O	5.9490247065	5.855479011838334	-8.636608890433333
O	4.2703843265	-0.2993846581616666	-11.008694130433334
O	1.7757701164999997	-2.1042868481616663	-8.674023730433333
O	2.2105817264999996	-5.442154368161666	-6.932634020433333
O	1.8102245564999997	-5.3922431581616665	-3.1921514204333334
O	1.2368397064999996	-8.003919928161666	-0.3813996704333335
O	0.1304454954999997	-10.763566998161668	-2.6929727904333336
O	-1.9718935235000004	-13.723127498161666	-1.3871141704333336
O	-0.7354260785000003	-13.309316598161667	2.1724698495666668
O	2.3692894564999993	-15.512905098161669	2.5941257995666667
