24

O	-3.1800871925915137	1.5908530742483649	21.01502760840896
O	-4.176519016191987	0.75379400509672	21.41150048916753
O	-0.7616906399929078	3.3910255011614088	22.18982574053976
O	-1.1087536453054576	2.434673917619104	21.225164050391385
O	-0.7358046016133541	3.1072942684635243	23.52517209666626
O	-2.721116736783076	1.5043056300967002	17.22658652307978
O	-1.875484707730708	1.5379740095313594	18.266017427131487
O	-3.6474331511629483	0.4627427088630234	17.229305300188706
O	-1.8424802895979058	1.2697715315724891	21.57458093617365
O	-0.8262121868515655	1.731798548793595	23.77449009843142
O	-3.5361362854356084	-1.4177039430760212	21.24917635907422
O	-2.084938736471128	-2.5384765647033003	22.293096471103507
O	-1.552671109212303	0.2592620756948234	18.740555920697346
O	-3.591126813705798	-0.37690974172355585	22.120277160023832
O	-2.194458624882087	-1.8376737821337068	23.506748323311143
O	-2.4269484316980354	0.4180381344028421	23.99127266359088
O	-3.598075177377692	-0.27668334905844816	18.43301075926974
O	-2.1774068288300166	-1.8573109513382622	21.20538377829589
O	-1.4373999602702736	0.9114347918279706	22.88354350013417
O	-2.9281315463474846	-0.6790944057028919	23.24839557283745
O	-2.4770434947757427	-0.7077110101546323	18.897852231202442
O	-4.7197394017109655	-0.9695744204873107	18.79802317716525
O	-2.113758257132398	-1.7302264230254805	19.76493874155266
O	-1.7841175496464412	-0.06152870531748711	25.094482745915816
