35

O	-0.49768806404905863	1.944206970436372	24.235465641436033
O	-0.34429629681731777	2.825241463522179	23.2158759140229
O	-1.310502365337056	1.6617144411227365	21.369487699461683
O	-0.7220041108361859	2.777238512367457	21.89025227445523
O	-0.9639112347459762	0.640498644863646	22.26687242141355
O	-3.5804607611127697	-1.51992312442177	20.377940460609963
O	-0.6851713951764036	0.7311338397508305	23.680777269813447
O	-0.3231546977127211	2.4954454579022936	25.572423937405944
O	-1.4223109103236495	-0.6714521405611543	21.8057524367153
O	-1.7572892094635573	1.794006951114617	27.402992166422724
O	-2.4671166826535385	-1.1461905040909104	22.47642591867706
O	-3.5063864749474325	-1.6455538368615354	21.697472048572706
O	-2.389598029785703	-1.6775787055055962	19.804882152363326
O	-1.3864520041593966	-0.9608760096593015	20.47510755980513
O	-2.6229270274905594	1.337658636733473	24.847599663859842
O	-3.6358834264193236	2.741667211053361	22.50089000548017
O	-4.290090326300138	2.886529806101946	21.218948079689003
O	-5.110862085088747	1.9988977261745116	20.86375908265921
O	-4.946740753575814	0.9032612683026282	21.507405343623855
O	-4.221873916605365	1.0003711299115337	22.723325168717565
O	-3.5028375882568272	1.856110898063967	23.58115963424051
O	-2.0181579393506746	1.3535240993114894	20.128584939000714
O	-2.7656284762676604	0.7459752842434213	19.255772265641436
O	-3.7132083105047	0.8276803448709411	18.30827786783621
O	-3.78039561178271	2.0949220119572054	17.81311481013976
O	-2.717760355594115	2.878840327204209	18.254593986474386
O	-2.152025076368067	2.485570324901842	19.42441140839212
O	-4.995779094828297	0.3041806191077963	18.080521747656697
O	-5.892014745405843	0.7603190321059919	17.16635343158737
O	-5.421147564146215	1.624164669949489	16.19651525755291
O	-4.1913213892989205	2.1517980885875065	16.478910512524784
O	-2.366038110853994	2.0445092468228765	26.091738657903438
O	-1.6117619345904415	3.309218007693646	25.626428027799186
O	0.21927516347788423	2.3908601062316377	26.86723867558807
O	-0.834867505968738	2.788375785874208	27.977372594935286
