81

O	-1.3604478581879629	-0.8022888729666662	0.340714108
O	-1.860414929187963	-0.2414971829666661	-0.909946352
O	-3.134074965187963	0.23617735103333382	-0.596668678
O	-3.6952158251879625	-0.3943363829666662	-1.803357863
O	-2.862234155187963	-0.8821343029666664	-2.629217653
O	-1.6419938975879629	-0.7223011929666663	-2.104732303
O	-0.6266246951879628	-1.6763304329666664	-2.328526843
O	-0.9332158241879629	-2.653060262966666	-3.442599693
O	-0.13044540518796288	-3.673991882966666	-4.006255343
O	1.002929634812037	-3.1534806329666667	-4.552587443
O	1.477421434812037	-2.074435642966666	-3.871835323
O	0.42751391481203727	-1.3347741929666663	-3.277421963
O	-3.829020835187963	1.1518519749433338	0.33132205000000003
O	-4.910345075187963	1.573103982033334	-0.25530897399999997
O	-3.123808315187963	2.333440917033334	0.9617929070000001
O	-2.059086430187963	2.5485459070333336	0.05970568900000006
O	-2.062624167187963	4.013938127033334	0.27213059900000003
O	-2.606657098187963	4.839914497033334	1.202604627
O	-3.6411003151879626	4.632389087033334	2.074982317
O	-4.229762875187963	5.633599277033333	2.7629638169999997
O	-4.859101065187963	6.8496937070333335	3.102208537
O	-4.660282715187963	8.003146967033334	3.909480307
O	-5.7852111151879635	8.854848687033334	3.9748802469999998
O	-3.5973998151879627	9.113923237033333	3.742700987
O	-2.792744385187963	8.370271547033335	2.772880717
O	-3.738080445187963	3.2434819670333335	1.8920088869999998
O	1.862728954812037	-3.8367442529666667	-5.363684343
O	-6.379308985187963	11.126610827033334	-13.023789953
O	-0.4401000751879629	11.827799287033333	-4.761383303
O	-3.266471325187963	9.359123487033333	-5.740130923
O	-4.987444665187963	7.408071177033333	-3.0226629430000003
O	-5.108202315187963	-1.348775302966666	-6.192419543
O	-5.189401915187963	-5.058334312966666	-7.397837873
O	-3.528899615187963	-1.2311435829666662	-11.093186852999999
O	-3.603977895187963	2.3640291270333336	-9.703280113
O	-1.872062782187963	3.6758333270333337	-6.550538223
O	-0.1026787151879629	6.856653807033333	-5.5699599730000005
O	1.594358434812037	7.852323667033334	-2.324095543
O	5.047736544812037	9.217041207033333	-2.611109633
O	7.936654454812037	10.449496177033334	-0.5902927649999999
O	10.079301334812039	6.596237587033333	3.9722734969999998
O	6.514513264812037	7.3645397570333335	2.979660117
O	5.743879714812037	4.831477647033334	0.261087752
O	3.060538494812037	3.621187887033334	-1.850039743
O	3.6797951648120373	3.141666247033334	-5.614835263
O	1.2876553648120372	0.9456042470333338	-7.815162933
O	1.305671584812037	1.0588062812333339	-11.578005453
O	0.05798185481203699	-2.174437912966666	-13.083919153
O	6.589789264812036	-7.625975202966666	9.075939177
O	2.8713581948120366	-8.437704632966666	8.633627567000001
O	2.9968177948120367	-9.115407112966667	4.852571767
O	3.2345743048120372	-6.384267092966667	2.115665087
O	10.562994134812037	-2.0415075129666658	-1.541750183
O	5.5593818348120365	-2.281537012966666	-14.108322852999999
O	5.559964734812037	-0.11453921296666625	-10.948404452999998
O	5.555804424812037	-1.7514298029666662	-7.485467893
O	6.813621034812036	0.0991417970333337	-4.339342273
O	5.923242134812037	-0.8045734429666662	-0.780384573
O	5.343657734812036	0.7076635800333337	2.683627667
O	2.617544264812037	3.154370487033334	3.043143557
O	0.20037427481203718	2.0175366500333336	5.773728837
O	-2.4858144801879627	4.455705447033334	5.170851637
O	-5.848869325187963	2.853282767033334	6.042602977
O	-7.8057522151879635	-0.3918442429666662	6.115159917
O	-11.175217905187962	2.687077007033334	8.623074217000001
O	-10.207037015187963	-4.121379922966667	2.885805167
O	-6.951622665187963	-5.826479042966667	2.190350567
O	-5.548101255187963	-5.597879522966666	5.649539837
O	-3.460480665187963	-2.4136056229666663	5.642157217
O	-3.166572145187963	-0.7773537729666662	9.077032277
O	-1.074773024187963	2.2864105570333337	10.030192047000002
O	-1.782122357187963	4.692218107033334	12.909708547000001
O	-2.2657040291879627	-0.19911133296666628	14.578885347
O	0.5523520448120369	-2.2163259929666665	12.886726047000002
O	-0.9033098321879629	-4.491115212966666	10.178936347
O	0.20405961481203705	-6.040034032966666	6.8291700969999996
O	-1.6775864680379629	-8.561491162966666	4.6499400269999995
O	-2.207955390187963	-7.352154172966667	1.0952176270000002
O	-3.272414575187963	-8.740091842966667	-2.337316353
O	-2.593848453187963	-12.355412712966666	-1.293211044
O	-3.987891915187963	-13.195997412966667	-6.589825113
