14

O	-3.814200133328497	0.008421729191204208	17.31164555507424
O	-3.4739260321596057	-0.9184159310415329	18.307308672471994
O	-3.4639241632564874	1.301424680339943	17.59442625307829
O	-3.972963255052518	-0.5471812631140287	19.57162972457178
O	-3.55351524304311	1.622223530036	18.915428979596992
O	-2.347865715708645	2.30134017694819	25.508789849947505
O	-2.033585566645944	3.123263929358418	24.25732423166871
O	-2.116951069592698	0.9953820718458529	24.82203972470927
O	-1.9328804514132178	2.573800497350724	22.911463531709455
O	-2.92014645555164	0.7038238533940336	23.62127951888839
O	-3.3458513469681486	1.1897753767823134	21.273767300024673
O	-3.4499324413472694	0.6933104038545742	19.944287518307092
O	-2.6053242563972328	1.4206858958323574	22.42895974457009
O	-4.436267804452494	1.6906647741624492	21.519551013920843
