28

O	-3.9955798512081415	-0.7871286583120085	23.546762624597733
O	-0.15220272598310647	1.8392422531123414	21.798320247915747
O	-5.538919166232892	0.8084453118307491	15.6985504991985
O	-4.351968947701561	1.5134784453402124	15.474633553221551
O	-3.2906509285137164	0.9655484764417501	16.1973249888277
O	-3.6883948678552967	1.2544708975179728	17.537959995446478
O	-2.268581278105451	2.0164968872075666	18.23646226205171
O	-2.2405787855239105	0.9337055947430914	19.54333008883085
O	-2.989648454861295	1.3734257145493407	20.596214220119233
O	-2.66253280941679	0.7025023707676712	21.74753540333635
O	-1.9007462629644005	-0.4448411419294125	21.53925560898709
O	-1.3157257022188151	-0.9878514898725852	22.676984427970602
O	-1.32423202680868	-0.021249075362897774	23.824792659919847
O	-2.7189829184013847	0.35242427006103716	24.008500441310215
O	-2.8451893542432023	1.3312752231303784	24.99757168134985
O	-2.185761751779461	2.5417184614419654	24.801959199146964
O	-0.9767271532711337	2.364854572412547	24.198744329977615
O	-0.7668717456906649	1.24498851633165	23.350720970821193
O	-1.757302850473051	-2.3155834299631124	22.719586429914557
O	-1.973196457513294	-2.845890829919152	23.77871232240205
O	-2.2290679354081773	-3.00535254118201	21.643263954168926
O	-2.175253092172844	-2.409604566970864	20.416155863135916
O	-2.1161193220466967	-1.1073416293855	20.43702136248741
O	-2.2385904921380115	-0.41588113097943236	19.359704555797858
O	-4.667739769159732	0.4049285815435275	17.914643316715914
O	-5.753022592641937	0.5642329629927563	17.058601520321496
O	-6.363201071322643	0.4055680970044928	14.730084208033498
O	-4.539106154037814	0.05990862709388045	19.205705762233684
