34

O	-2.998819106292088	1.263288461744857	21.897223304921656
O	-2.757249031610193	-0.19618592766010723	22.122853816961285
O	-2.7891555491196627	-1.0291744988947318	23.18711609039239
O	-2.6258719879305437	-0.3856736367243436	24.39882414184221
O	-2.8353018943852377	1.025889238983921	24.26854503260935
O	-2.7009072240010004	1.757887935546097	23.15547526695134
O	-2.4719402147444276	-0.035325007905375294	20.7795026207694
O	-1.28130494755987	0.1434847554191562	20.22992476899065
O	-0.7997150499892756	1.6022026732153547	19.49263449822813
O	-1.0179156874230548	1.9511924783596213	20.900311973466025
O	-2.741057147247407	1.6884381188537456	20.220202682315758
O	-0.3908623776953686	1.4918567894507975	22.254473519558843
O	-0.47352691498458777	0.7396136418456298	23.654384607265296
O	0.3383099272058945	1.5058993525886408	24.62414675054014
O	0.29510173296913056	1.583089604731439	24.666171003865536
O	-1.9586623882086445	-0.5992131369898557	25.63034494261111
O	0.09254010648172173	4.77247379035561	24.21173571668337
O	-2.315360991363021	3.1728071789074277	22.964188399193592
O	-1.4140648166855856	4.0143149401741205	22.254802642992694
O	-0.17360718961101185	4.6131090295433435	22.772925020545678
O	-1.0396886233983915	4.3538050322845745	25.003585614320695
O	-2.2303352406310966	3.6295248439035666	24.36737518195673
O	-1.5084024714010473	4.412750021757732	20.831118805434027
O	0.2061185944237609	2.9999624040354393	27.746733986612192
O	-1.0097344615810802	2.298674270176939	28.08526303417186
O	-1.8127136771603503	1.8246925375541654	27.04800924380593
O	-2.1384801061419516	0.5069727477356598	26.58642672122142
O	-1.8167800493029467	3.416965969430173	28.62962768824663
O	-1.6701610666012419	4.3900404744044375	19.301051340182674
O	-0.9987617698362516	3.4446583309307677	18.49433754442973
O	-0.006330075764493515	4.4010473254286255	17.815390691768485
O	-1.8883918577532548	3.3211991462232193	17.36093651576503
O	0.5635036306960766	4.521446180664128	19.446417491722045
O	1.8133826987302006	5.253570052176889	19.576516424065602
