28

O	-5.551510437973848	3.683314224218022	16.39269491126452
O	-4.935415769778398	2.478131943648155	16.504590193915167
O	-4.5537003974268	4.470477504670239	16.857371482277536
O	-4.301705364715465	1.9320056156051013	17.622485605863957
O	-3.7151584282412187	4.085719230996631	17.97256744931141
O	-0.4401910264443425	4.070474230154545	13.688715560263507
O	-0.4804592681534181	4.39098619503307	15.08186186884414
O	-2.8631456483575617	-0.4170782674961533	19.287168156065714
O	-2.55918214723244	4.203412946738848	14.933572311776839
O	-3.3443389494768256	2.657158198813769	19.667445705545013
O	-1.7322300318920203	2.599625579675588	20.85553637064355
O	-1.2980764603703634	2.306664273169431	16.567681871215147
O	-3.717658950623173	2.834620491175929	18.32420978039137
O	-1.3985533173894722	2.9929618341732755	13.639782014528743
O	-1.5297494399515545	4.353044792299153	15.768478333282973
O	-2.6599948304854952	3.118210994658928	14.196175106103045
O	-2.4031931573020477	0.6072454355043988	20.007069299301392
O	-2.033035701482225	0.5967934632034733	22.40449020396003
O	-1.462668548155916	1.058286858417786	19.057502822057405
O	-1.514645409410554	3.6518572953880377	16.91763237293284
O	-1.9732181080681568	1.121720481410779	16.684609540582475
O	-0.20409596869634417	2.1268347827339973	16.995318582776072
O	-1.9791267568463735	2.957668949086555	19.43035093753094
O	-1.1520839035982218	-0.6828500100478205	18.4411962156461
O	-1.8957027591493865	0.4804573208423759	17.93998481575283
O	-2.2295490157234195	1.4089099964578962	21.274488481927833
O	-3.8140607029196505	1.9184436030473697	14.018383041715914
O	-1.5994607174194644	3.223312508194258	12.27167903546707
