49

O	-3.3367782447458967	-0.5162159375226425	25.499910103302987
O	-0.17508624424196295	5.9738671880221546	24.192737614281143
O	-1.3328315825246382	5.041870336215673	26.23338917822729
O	-0.010397471908233147	3.1004687674309133	27.464931212345043
O	-3.8053053835969273	2.812618525452923	16.585764538826965
O	-3.170644068043879	1.968901234342459	17.619091000442495
O	-4.076901711500639	3.963269875944582	17.48291917319432
O	-3.58920866379147	2.0890499225741515	19.01822444988287
O	-2.957698688929189	3.2004975936720323	24.760494477395188
O	-1.412581925091387	1.2978512071432562	20.452456930411362
O	-0.2094381990912595	1.3418816980928545	21.402385270347004
O	-3.3350652180820575	3.55931178377534	23.227335348921166
O	-0.7222232162575555	2.7471508533276165	23.935520555271715
O	-0.9075737052143866	-0.576369521757227	20.73623022318271
O	-2.6173415694649997	-0.14595064961932236	21.73681452679915
O	-0.8219547844344635	5.135907383289655	19.316609419457766
O	-1.6904629230659691	4.34926650803819	18.22895359749541
O	-0.7234270174152342	4.111461528782036	20.34291186113491
O	-0.23060034102002724	4.153023062118269	22.994140908867095
O	-2.732491383969786	1.8202974235504712	23.75875809992773
O	-1.695520488468311	2.3099807727619055	24.845681279643376
O	-1.7244952115910814	0.07155000213062124	19.661149035827826
O	-3.132397358665499	4.299005506856911	18.52192890952331
O	-0.313419394931429	0.4272563192808596	22.674793272119707
O	-3.240153899896462	3.421776310709519	19.702126933101905
O	-2.134956456689184	4.5335810549505196	23.197592301275613
O	-1.6386701668138115	3.315087296078761	22.67041508519674
O	-0.8987755543450444	0.9613366372461276	21.306036300424466
O	-2.9281466535853644	-1.651648954951987	23.472140580378397
O	-1.1493101076677579	-1.0840702827359823	25.227074492587967
O	-1.0788405492909126	-1.3834663433112517	22.806724228656527
O	-3.5091238807340086	-1.7326716472620192	26.2007816643895
O	-1.284767039648485	2.481007308259072	19.595843323050815
O	-1.5265491961782056	1.879557444662955	25.863487365686716
O	-0.5524575329751311	4.850144695578359	25.02595546308916
O	-1.8541185307558499	1.1520378501163384	24.417964792107913
O	-2.457704489869126	1.1174153484835705	21.478485723367896
O	-2.040021066042354	-1.8205859160487523	24.42826276042188
O	-2.305282524709308	-1.8724557641429511	22.26767222592285
O	-0.5854192390592505	-1.3682128208467126	24.03082062726841
O	-0.29846376281245623	2.016462165928323	26.58857475747589
O	-0.8982261693289069	0.2554782056662117	25.06989131527837
O	-1.5045384977720213	-0.08499840025577021	22.80888730061642
O	-1.9302283483997555	3.4366059391543047	20.19984686150793
O	-3.124213893132293	-0.3694739543633533	24.0414810811724
O	-0.9071044050143136	1.9628024353194995	18.46607248100335
O	-2.399044464919049	2.0651881187912973	26.81303043969232
O	0.2255909692715239	3.948549302813536	24.424636821527574
O	-1.8604314374209014	4.884775119758466	24.38313947225248
