81

O	-6.449069274850276	-4.701945213724138	-4.2505097617931025
O	-5.510347764850275	-4.0430815737241375	-4.996289831793103
O	-0.07105969485027552	-1.1105405537241377	-1.0526366347931029
O	-7.237382644850275	-3.742738023724138	-3.584155051793103
O	-4.5374020648502755	-4.9599520537241375	-2.906738321793103
O	-5.429817514850276	-2.7427836637241376	-2.4978842617931027
O	-7.848769344850275	-2.965161093724138	-4.585537601793103
O	-6.829619204850275	-2.158447093724138	-5.121470741793104
O	-5.715386844850276	-2.8178166337241377	-5.451203451793104
O	-5.788714304850275	-5.587746483724138	-3.234774481793103
O	-4.581140314850275	-3.5569577037241378	-2.980024201793103
O	-3.2869497048502754	-3.1525662937241377	-2.488687241793103
O	-3.271287834850275	-2.546098253724138	-1.2199310547931028
O	-2.2635649948502756	-1.6321697837241378	-1.331020886793103
O	-0.9117824478502755	-1.902795833724138	-1.574632650793103
O	-1.0149039138502753	-3.0750738837241376	-2.3578723317931027
O	-2.0885156868502754	-3.8455673137241377	-2.623632271793103
O	1.1347634251497247	-0.6283072707241377	-0.598201175793103
O	2.4422971451497246	-0.9931539937241377	-0.947378069811103
O	3.6280842051497246	-0.5508472237241376	-0.31522352679310295
O	3.6518449551497247	0.7632467542758623	0.14158622820689715
O	2.459361475149725	1.1337741322758623	0.629435428206897
O	1.3418860451497245	0.39753575627586224	0.27956912820689706
O	-4.861322284850275	1.4723991862758623	-12.280703181793102
O	-2.0262242398502757	-1.1461034237241379	-11.810312681793102
O	-1.8146585154502755	-3.5452492837241376	-8.751668831793102
O	6.020212905149725	-2.9967997237241377	-4.9510905417931035
O	9.708586205149723	-3.007904193724138	-3.379161931793103
O	9.070942005149725	-0.15252083272413772	-8.143865121793104
O	5.532736445149725	-0.5383861077241376	-9.616251201793103
O	2.189128155149725	0.24621006227586228	-8.000427111793103
O	-1.0315625298502753	1.6943110662758623	-9.112764231793102
O	-4.171365194850276	2.517751956275862	-7.308647751793103
O	-5.616157064850276	5.983156506275862	-7.678721621793104
O	-8.331003324850276	8.290790556275864	-6.455875071793104
O	-9.159501904850275	8.670262816275864	-0.144903205793103
O	-8.353151884850275	5.680064306275862	-2.213896681793103
O	-4.635058054850275	5.537175256275862	-2.495823291793103
O	-1.8321864204342755	3.5037347162758623	-3.700413421793103
O	0.9904903151497244	5.209823536275862	-5.679439501793103
O	4.490636065149724	3.560056766275862	-6.153094951793102
O	6.877536365149725	4.712318796275862	-8.868899691793104
O	10.440225705149723	3.858898206275862	-7.994208711793103
O	-1.8442667123502754	3.079397036275862	12.340944218206898
O	-0.3216474648502754	-0.3680570557241377	11.658206918206897
O	2.675173675149724	0.8329446512758624	9.609784018206897
O	2.660522885149725	2.0940254962758624	6.025764748206898
O	3.551501395149725	5.707792786275863	5.9165248582068966
O	3.5560799951497244	8.471362066275864	3.3982276882068967
O	0.49418257514972463	10.390871906275864	2.343734138206897
O	2.3926646051497245	12.261212706275863	-0.37866889079310295
O	10.235683905149724	9.451377956275863	-7.282253241793104
O	6.543295375149723	8.569884476275863	-6.651714921793102
O	5.382302245149724	7.659390186275862	-3.158886761793103
O	1.6789431951497247	7.808888126275862	-2.0081671717931027
O	0.08162525514972452	5.912156646275863	0.847128788206897
O	-3.2683177648502753	4.241065016275862	1.9224287082068972
O	-4.654911284850275	1.5495591562758622	-0.31122985879310294
O	-5.438125814850276	-1.5473413337241377	1.775278958206897
O	-6.474005534850276	-3.7770591037241377	-0.636095880793103
O	-5.160745014850276	-7.319664263724138	-0.02780095879310296
O	-2.4097576688502755	-9.246714463724137	1.594560498206897
O	-2.6418989518502753	-11.724298893724137	4.461472738206897
O	-5.694901534850276	-13.134332693724136	0.3607515382068971
O	-7.451190584850275	-13.080554593724138	3.731308908206897
O	2.7065012551497243	-10.788942293724137	1.378076078206897
O	3.9383277851497245	-7.679003343724138	3.117384238206897
O	1.1702951951497247	-7.363122843724137	5.572003068206897
O	-1.5328083988502754	-5.285855023724138	4.004960928206897
O	-5.022076454850275	-5.867732953724138	5.183705618206897
O	-8.242379324850276	-3.960771083724138	4.343431938206898
O	-11.784900074850276	-5.390254743724138	4.450892788206897
O	-9.257236644850275	-6.663458133724138	8.751211668206897
O	-7.185074274850276	-3.551447503724138	9.711505018206898
O	-3.4875202548502755	-4.2634006937241375	9.063741518206898
O	-0.3545097848502754	-2.255355173724138	8.107070498206898
O	3.249115805149725	-3.544191983724138	7.959627208206898
O	4.992560535149725	-2.8960154437241377	4.672523848206897
O	8.549839205149723	-2.8436887937241377	3.133068068206897
O	10.194953905149724	-2.715065363724138	6.512380008206897
O	14.684402005149723	-2.313590603724138	3.2472872082068966
