76

O	0.5383732020163938	-4.021094467321311	-0.1442606505036067
O	0.4996539220163938	-3.0108119973213117	0.7771744664963933
O	-0.2779574049836062	-3.760570217321312	-1.2384936995036067
O	-0.3126365249836063	4.219920122678689	-0.6402993845036067
O	-0.1842359559836062	4.8676688826786885	-1.8635790035036068
O	0.21239299201639383	-1.7144208073213119	0.3546239014963933
O	-0.15169058098360622	-2.4548100973213116	-1.7385420435036067
O	-1.0710736147836062	3.052195982678688	-0.6659321735036067
O	-0.7301798199836063	2.926309902678688	-2.9577042735036065
O	-0.7873791069836062	0.7763819806786882	-1.7207188735036067
O	-0.10576878598360628	-1.3732569873213119	-0.9164989435036066
O	-0.8562643819836062	2.237556662678688	-1.7542468935036066
O	0.08328994201639373	4.019818862678688	-2.8877305635036064
O	0.2584796820163937	-0.037428335321311734	-1.2594302135036066
O	-1.2527652309836061	0.21385064407868826	-2.7622132135036064
O	13.863842912016395	4.358659852678689	-11.319896513503606
O	10.422253612016394	8.142150052678689	-2.5829945135036065
O	8.597469962016394	6.524817702678688	-5.557269363503607
O	4.794252072016394	6.934976792678689	-5.834640193503607
O	1.1925748620163938	-1.1223048673213118	-7.229971143503607
O	-0.4513451729836062	-4.467217287321311	-8.298993943503607
O	2.4532257220163936	-6.704839067321311	-9.506223493503606
O	5.080620962016393	-4.334822267321312	-8.101539313503606
O	6.482490952016394	-0.8282849173213117	-7.516028983503607
O	5.639549522016393	1.412618292678688	-4.566655573503607
O	7.700305402016395	3.8853851426786883	-2.6215809835036064
O	6.728026462016394	6.110874162678688	0.23946821649639333
O	9.004583812016392	5.934941492678688	3.2441122664963933
O	9.478304612016395	7.115248692678689	6.794066346496393
O	9.298251212016392	4.407948622678688	9.411489606496394
O	4.541357272016394	7.422327472678688	7.044965456496393
O	4.404055852016394	4.152962872678688	5.151214416496393
O	4.122904812016394	2.7280958326786884	1.7611409564963931
O	6.474683552016394	-0.062187809321311766	0.7507752264963932
O	5.7129567120163935	-2.284354147321312	-2.3207843335036067
O	8.443960982016392	-4.430526417321311	-3.9143858635036066
O	6.9387133920163935	-7.355129347321311	-5.765967463503607
O	2.7605977920163935	-13.746677157321312	-4.506155383503607
O	-1.3087411599836063	-11.554459157321311	-1.8462312835036068
O	-2.716389017983606	-8.97023307732131	3.3601905064963935
O	-9.905980347983608	-3.5012995573213117	9.358297626496395
O	-9.756657157983607	0.24976751627868826	9.248849666496394
O	-11.035366177983605	0.5115169266786883	5.651207556496393
O	-8.951579587983606	-2.359200447321312	4.185549196496393
O	-5.205778317983606	-2.2576626973213116	3.4007254664963935
O	-3.3960360679836064	-4.697366187321311	5.669026856496393
O	0.21696082201639366	-5.454833527321312	6.564830306496393
O	2.390816942016394	-3.351329957321312	8.797919356496394
O	5.540834052016394	-5.343320907321312	7.939800276496393
O	6.861266312016394	-7.746851897321311	5.310742036496393
O	9.281107112016393	-9.746711937321312	-1.2231900835036067
O	8.586296872016394	-6.227048137321312	0.1688032414963933
O	5.196912322016394	-5.428876957321312	1.7416777064963933
O	4.641227592016394	-2.4358310373213117	4.171747396496393
O	1.3620879220163937	-0.6781002413213117	4.957795376496393
O	-0.16125456498360624	2.705691772678688	5.563286926496393
O	0.5181474320163937	5.537876562678688	3.1621018664963936
O	-2.7586617679836065	7.2142582926786885	2.3309486264963937
O	-1.3334513969836062	9.29796112267869	-0.4622189137836067
O	-4.095935397983606	9.718732602678688	-3.0494171735036066
O	-6.785430627983606	7.887352072678689	-4.891592253503607
O	-7.9051976679836065	4.087069232678688	-8.475671373503607
O	-7.775194887983607	1.4004559226786881	-5.8487025935036066
O	-9.493996797983606	3.286884082678688	-3.1378247735036067
O	-6.6653662679836065	4.963452172678688	-1.1789565925036067
O	-7.805476687983607	8.124303462678688	0.5560610364963932
O	-5.822789677983606	10.382964442678688	2.9339429264963934
O	-10.336468087983608	8.34326437267869	5.463431146496393
O	-10.481418027983608	5.466344242678689	2.9598084764963937
O	-8.930629967983606	1.9561938126786882	2.5629347464963934
O	-9.683625987983607	-0.6262314823213118	-0.1292274755036067
O	-6.641771217983607	-1.7934090773213118	-2.0398047335036065
O	-5.777444067983606	-4.752034967321311	-4.399427203503607
O	-8.735165457983605	-6.864246347321312	-3.4086958835036065
O	-8.680176807983607	-10.674212457321312	-3.9601133935036064
O	-6.133311447983607	-10.465492257321312	-6.762750023503607
