31

O	-3.137392857142857	-0.9308392857142851	20.008910714285708
O	-3.137392857142857	-0.9308392857142851	20.008910714285708
O	-3.137392857142857	-0.9308392857142851	20.008910714285708
O	-3.137392857142857	-0.9308392857142851	20.008910714285708
O	-3.137392857142857	-0.9308392857142851	20.008910714285708
O	-3.137392857142857	-0.9308392857142851	20.008910714285708
O	-3.137392857142857	-0.9308392857142851	20.008910714285708
O	-3.137392857142857	-0.9308392857142851	20.008910714285708
O	-3.137392857142857	-0.9308392857142851	20.008910714285708
O	-3.137392857142857	-0.9308392857142851	20.008910714285708
O	-3.137392857142857	-0.9308392857142851	20.008910714285708
O	-3.137392857142857	-0.9308392857142851	20.008910714285708
O	-3.137392857142857	-0.9308392857142851	20.008910714285708
O	-3.137392857142857	-0.9308392857142851	20.008910714285708
O	-3.137392857142857	-0.9308392857142851	20.008910714285708
O	-3.137392857142857	-0.9308392857142851	20.008910714285708
O	-3.137392857142857	-0.9308392857142851	20.008910714285708
O	-3.137392857142857	-0.9308392857142851	20.008910714285708
O	-3.137392857142857	-0.9308392857142851	20.008910714285708
O	-3.137392857142857	-0.9308392857142851	20.008910714285708
O	-3.137392857142857	-0.9308392857142851	20.008910714285708
O	-3.137392857142857	-0.9308392857142851	20.008910714285708
O	-3.137392857142857	-0.9308392857142851	20.008910714285708
O	-3.137392857142857	-0.9308392857142851	20.008910714285708
O	-3.137392857142857	-0.9308392857142851	20.008910714285708
O	-3.137392857142857	-0.9308392857142851	20.008910714285708
O	-3.137392857142857	-0.9308392857142851	20.008910714285708
O	-3.137392857142857	-0.9308392857142851	20.008910714285708
O	-3.137392857142857	-0.9308392857142851	20.008910714285708
O	-3.137392857142857	-0.9308392857142851	20.008910714285708
O	-3.137392857142857	-0.9308392857142851	20.008910714285708
