80

O	0.9118761108180331	0.7803503254377052	-0.9284252205737704
O	-0.2257853181819669	1.2999541147377052	-1.4600755615737704
O	1.0424866708180331	0.01665094373770526	0.3283597434262296
O	1.9152579108180332	1.5089599907377051	-1.4166711605737705
O	-1.4848455711819668	0.5586556477377052	-1.5584376515737706
O	0.20660733081803317	2.305880170737705	-2.2622888015737703
O	1.788941400818033	0.6849162927377053	1.2530214984262296
O	1.537256620818033	-1.2434446092622946	0.16789041942622956
O	1.4786953408180332	2.079175780737705	-2.4553481615737707
O	-2.609059459181967	1.0667075727377051	-2.04877767157377
O	-1.3020227431819669	-0.6750994792622949	-2.2179138015737703
O	-0.6236015741819669	2.8867985707377053	-3.3548780915737706
O	2.490085790818033	0.0960066037377052	2.3124638984262296
O	2.708884750818033	-1.6823321192622949	0.8291705484262295
O	-3.7492500791819667	0.4760328047377052	-2.4092409015737704
O	-2.482731819181967	-1.3596374192622949	-2.1492395115737706
O	3.128334210818033	-1.0608999092622948	1.9680497484262296
O	-3.685344839181967	-0.8833101792622948	-2.4866493515737704
O	-4.868940529181967	1.0678320027377053	-3.0423017115737703
O	-11.317656099181967	12.183337530737704	6.3744258084262295
O	-12.430797199181967	2.3102078107377055	4.440775258426229
O	-10.394524409181967	5.043956870737706	2.6556509384262297
O	-9.040947719181966	4.340886540737705	-0.8593636355737704
O	-0.35802695418196684	6.474350580737704	-0.9639587105737704
O	3.3019716308180334	7.713015300737705	-1.2802917385737704
O	3.8544784908180336	9.998716690737705	1.7277381384262296
O	0.6453334308180332	8.872521680737705	3.4191150884262296
O	-3.0515116191819667	7.909060160737706	3.3154314584262297
O	-4.433224659181967	4.459282560737705	2.5359046984262297
O	-7.418057469181966	2.585977150737705	3.860253538426229
O	-8.716838689181968	-0.8190656592622947	2.9577398484262294
O	-9.363497789181968	-3.101108149262295	5.903805048426229
O	-10.329499529181968	-6.605459479262295	6.911517468426229
O	-7.628940099181967	-8.571367169262295	8.66886081842623
O	-8.338075779181967	-8.084950449262296	2.6304150584262294
O	-5.530318659181967	-5.648001209262295	3.3126210584262297
O	-4.427699069181967	-2.181118909262295	2.6096298384262293
O	-3.085431279181967	-0.07580258726229483	5.4368863584262295
O	-1.0723267870819668	3.1454343507377054	4.871807698426229
O	-0.4998141751819669	5.712646330737705	7.6038733184262295
O	2.6417012608180332	7.718568060737706	6.9776718684262296
O	1.9026976708180332	11.500665230737704	7.0347897384262295
O	12.349311100818033	8.674455320737705	3.75276774842623
O	10.327645400818032	6.853942050737706	6.44507086842623
O	10.472377900818033	2.9345332407377054	2.8260917884262295
O	8.159684150818032	-11.344719569262296	-4.576711181573771
O	4.813177070818034	-8.882619169262295	-8.30728142157377
O	6.293644300818033	-6.4282276192622945	-5.77486566157377
O	4.434356130818033	-4.8634017492622945	-2.8533360415737703
O	5.925201550818033	-6.066538759262295	0.4033691934262296
O	5.003960510818033	-5.896046129262295	4.063391398426229
O	2.3248247108180333	-7.934534009262295	5.69178283842623
O	2.587168880818033	-6.043429589262296	9.00408807842623
O	3.895503900818033	-2.7536490992622946	10.37639014842623
O	4.042601420818033	4.429398820737705	11.33207124842623
O	1.346174300818033	2.227387180737705	9.69474724842623
O	2.326172040818033	-0.20426441926229488	6.91871973842623
O	0.13749405081803312	-3.227012709262295	5.861568788426229
O	0.13895746081803306	-4.9370252692622945	2.5007383684262297
O	-2.122355999181967	-6.8772651492622945	0.12711808642622963
O	-5.150566429181967	-4.977746199262295	-1.2191843885737703
O	-5.209885859181966	-5.3139424892622955	-5.00490443157377
O	-7.911076769181967	-2.719967759262295	-5.48227072157377
O	-7.277304899181967	-1.0128605392622947	-8.85123351157377
O	-4.537916729181967	0.5495051367377052	-10.90094865157377
O	-0.9470787441819669	4.501867550737705	-11.32919815157377
O	1.571417270818033	2.6102609507377053	-9.26889965157377
O	0.9168331208180331	-0.7377796592622947	-10.690404751573771
O	-1.6934065851819669	-2.324748259262295	-8.42511624157377
O	-3.8051430191819673	-4.906082919262294	-10.244923651573771
O	-6.5138680391819666	-7.203071689262295	-8.78491174157377
O	-0.018157389181966854	-7.230580629262295	-10.71879965157377
O	2.314415430818033	-5.761748249262295	-8.01265474157377
O	4.706458510818034	-2.841000489262295	-8.36574444157377
O	4.276156240818033	-0.11097131426229478	-5.9051023415737705
O	6.362418800818033	2.9586409707377053	-4.68517591157377
O	9.616541600818033	1.727970312737705	-5.990891631573771
O	12.906811500818032	3.0584651707377053	-4.50890396157377
O	11.359631700818033	6.276907500737705	-3.2397933615737706
O	11.668826900818033	8.914145990737705	-6.001958261573771
