101

O	-0.2685628677231882	4.266668637971014	1.6895766232173903
O	-1.976502308623188	3.8075464479710144	-0.8034026417826095
O	1.3022276113768119	3.1831894079710144	-1.6500222067826096
O	1.016586081376812	4.042945797971015	-2.4575332067826094
O	0.14343223337681177	5.013209387971014	-2.100581006782609
O	-0.38738787062318825	4.789091157971015	-0.8353069147826093
O	0.37180117137681173	4.200262027971014	0.18388673421739066
O	0.6443959853768118	3.194766947971014	-0.4535695709826094
O	3.3719461913768116	2.651921247971014	-0.12421376278260937
O	2.9650234113768117	1.4452829979710144	-0.7212250257826094
O	2.260927631376812	0.3729538479710144	-0.27498262278260943
O	2.682544591376812	0.7527212739710144	0.7920994632173907
O	3.500781581376812	1.9195492809710144	0.9577712232173906
O	1.6259910913768119	1.1252929519710144	1.7014684432173905
O	1.688809491376812	-0.10518670202898561	2.0284470532173904
O	0.5008356033768118	-0.6269361320289857	2.2938836432173906
O	-0.09966704862318823	0.6776917409710145	2.4001289732173907
O	0.4816427643768118	1.4091484609710145	3.4074683332173903
O	1.691591721376812	1.9401792209710145	2.8739528932173903
O	1.050826491376812	-0.14995275202898561	-0.08930628078260938
O	0.17487421637681178	0.9611652309710145	-0.3744212707826094
O	0.6703993503768118	1.1794834149710145	-1.4653058287826095
O	0.13818861137681177	2.1832465669710146	0.29317127021739064
O	2.161850581376812	6.0296921979710145	-0.0674649777826094
O	2.961845151376812	5.086456227971015	0.9871177832173906
O	3.451509821376812	4.134496457971014	-0.2305951857826094
O	3.6777776713768118	4.920014767971015	-1.1520789577826094
O	2.9245480113768116	6.007770297971015	-1.1384089957826093
O	0.8733797813768118	-2.0267872120289856	2.1012561132173904
O	2.235907191376812	-2.432884202028985	1.9156672832173904
O	2.879659911376812	-3.4017636220289855	2.2779689532173903
O	3.3399899313768118	-1.4708149420289853	2.0552355032173906
O	7.460523581376812	2.2387470879710145	2.3054532132173904
O	6.754979301376811	-1.2830666920289855	3.2604482032173907
O	6.659097271376812	-1.5606759220289854	7.19000966321739
O	6.8365888713768115	2.2424568999710144	7.42373941321739
O	8.241024811376812	5.597430607971014	6.320474903217391
O	6.7732925413768115	7.637107037971014	3.4409567132173904
O	6.5714503713768115	11.348186387971014	3.0219261732173903
O	5.335303121376811	13.485715377971015	0.24467398421739062
O	0.06523623037681175	12.924078277971015	-1.9163415167826092
O	2.1492331513768117	10.331809167971015	-0.27623562378260935
O	1.6413025513768118	9.608190877971014	3.3876104232173905
O	2.9915870513768117	6.394800507971015	4.980633603217391
O	3.362596521376812	6.113891787971014	8.661230613217391
O	3.352714051376812	2.5527982289710147	9.812277343217392
O	6.402618131376811	1.6822413079710143	11.983568843217391
O	2.0590165213768117	-1.3025698620289856	13.979560243217392
O	-0.7365703956231882	-6.186393642028985	14.285005643217392
O	-2.3222226886231883	-8.666431822028986	11.901989043217391
O	-0.09648118062318822	-7.296875892028986	9.071643123217392
O	-1.3559077586231882	-3.739211282028985	9.919135843217392
O	-4.899309748623189	-4.891543992028986	9.554959743217392
O	-4.221616278623189	-6.835620742028986	6.42452453321739
O	-2.708237358623188	-3.7696235020289857	4.70683934321739
O	-5.372897568623189	-1.3862004620289854	5.71741992321739
O	-7.989463398623188	-3.853482372028986	4.48799796321739
O	-6.160302148623189	-4.3057012120289855	1.1337046432173907
O	-5.546346348623189	-0.6564876820289856	0.5273917332173906
O	-9.279628958623189	0.03708947797101447	1.3817316632173906
O	-10.549221158623189	-2.4587294620289857	-1.0869932007826093
O	-8.432157088623187	-1.5142080520289856	-4.134244676782609
O	-3.322907398623188	-0.09930815202898557	-8.26809866678261
O	-2.4326174686231883	2.0049344069710147	-5.23203443678261
O	-5.574588118623189	2.6074147279710145	-3.1630421567826095
O	-6.399202348623189	4.785434957971015	-0.13369992378260942
O	-7.0396977686231885	8.501511357971015	-0.3166753167826094
O	-7.122428548623189	8.861502397971014	3.4845431732173906
O	-1.9373632586231881	5.857837387971014	4.96849303321739
O	-2.444110848623188	8.335247987971014	2.1995061432173904
O	-2.4501705986231883	7.805839017971015	-1.4267624407826094
O	-1.268362278623188	9.301260957971014	-4.7257105867826095
O	2.3650808213768117	10.342867847971014	-4.95030465678261
O	3.757262691376812	9.049471287971015	-8.14477309678261
O	-3.647600458623188	-3.758317992028986	-12.616554256782608
O	-7.871965218623188	-6.556936732028985	-11.105375756782609
O	-5.779159548623189	-7.619589822028985	-8.126540806782609
O	-5.009015118623188	-11.345482622028985	-4.0951701567826095
O	-1.527463208623188	-12.173282522028986	-5.30095518678261
O	1.3670393913768117	-9.674457922028985	-5.344461096782609
O	4.085143681376811	-12.261596422028985	-4.82384407678261
O	6.965633571376811	-9.744490322028986	-4.93795994678261
O	6.3628124313768115	-7.704435142028986	-8.010488366782608
O	9.579708931376812	-5.822852252028985	-8.930577146782609
O	10.569812541376812	-2.5199984020289854	-10.53375485678261
O	10.829096241376812	-0.8613757220289857	-7.13214655678261
O	7.173508391376811	-1.3069362620289855	-6.295094956782609
O	5.829692841376811	-0.056910822028985564	-9.514955556782608
O	5.174543501376811	3.6584303679710146	-8.80758081678261
O	5.402152151376812	5.687248227971015	-12.072346256782609
O	0.33919135537681183	1.8939498659710146	-10.228035636782609
O	1.2051114313768119	-1.3770022120289855	-8.47869063678261
O	2.289519261376812	-0.9408058320289854	-4.897943096782609
O	2.8346403913768117	-3.1774087920289853	-1.8280806667826095
O	0.8430541613768119	-6.0199956020289855	-3.1761489367826097
O	-0.7130171876231882	-8.679028022028985	-0.8871876577826094
O	1.849954561376812	-8.234861122028985	1.8035113232173905
O	4.672825551376811	-10.787691322028985	1.1254376632173906
O	-7.887264808623189	-1.9149725920289855	12.594735943217392
O	-13.011939958623188	4.840842767971015	6.152665433217391
O	-15.043111758623187	6.6162225979710145	3.4650094832173903
