100

O	-1.2694660168656717	-1.3459218800149257	0.4561110653432834
O	0.37054818513432836	-0.8032379300149257	0.3857116853432834
O	-0.16451797586567163	0.7490507039850742	-0.01168320265671663
O	-1.1198478358656716	0.4999730419850742	-0.8713518826567166
O	-1.9433136038656715	-0.4652813600149257	-0.39629588765671664
O	-1.8555573838656716	-2.3499662300149256	1.2582460553432835
O	-1.3178340378656717	-3.038726340014926	2.4090153953432836
O	-1.5585365838656715	-3.651316510014926	0.48339671534328343
O	-3.3077560838656717	-2.5035317600149254	1.3529070553432836
O	-1.1409101098656715	1.7030156309850741	-1.5956214786567167
O	-1.1778321448656717	2.848001019985074	-1.0430818936567166
O	0.7168610261343284	1.7792184279850742	-0.5066786356567166
O	1.6911145361343283	1.2541453613850742	-1.2719346356567165
O	1.9108467161343285	-0.014837180014925844	-1.2758673916567167
O	2.6780575461343283	1.9751081839850744	-1.8960016146567167
O	3.7888521261343286	1.2935411879850742	-1.4062624796567165
O	4.724043176134328	0.7770394319850742	-2.2154430246567167
O	5.932014946134328	0.5983632249850742	-1.5314805446567166
O	5.864531716134328	0.2809773169850742	-0.14388605465671667
O	4.788369556134328	0.7140300269850742	0.4155898153432833
O	3.6723272661343285	0.9378436479850742	-0.10408916865671658
O	4.986823726134328	0.9623760139850742	1.7216321253432836
O	4.747776376134328	2.3790242999850744	1.6677655853432836
O	3.3889905861343284	2.542451439985074	1.5790660253432833
O	2.7746498161343283	1.6285437359850743	0.7528729953432833
O	-2.1005158338656718	1.9618218999850743	-2.5050165546567165
O	-3.3466943838656715	1.3369044169850741	-2.297337974656717
O	-3.1927370538656716	0.5513321139850742	-3.5592550746567166
O	-1.9799549438656716	-0.13324910001492585	-3.4535367046567167
O	-0.6947456778656717	0.4334373229850742	-3.447291854656717
O	0.31904877513432833	1.5865078979850742	-3.5356027946567163
O	-1.0680488378656716	2.403041289985074	-3.440640754656717
O	0.25572684513432836	-0.33324323001492573	-3.372656744656717
O	2.8764182961343283	2.8106507599850743	-6.988569964656716
O	-0.9060262868656717	2.262253269985074	-7.040994334656716
O	-2.7661223938656714	5.692443529985074	-7.434666724656716
O	0.5124556871343284	7.584978499985074	-7.018301684656716
O	4.262259556134328	7.861486279985074	-7.618521274656716
O	6.898499656134328	6.103635999985074	-5.329930734656716
O	10.32327659613433	7.403995669985074	-4.609748654656717
O	13.07778739613433	5.883258159985074	-2.659652924656717
O	12.352350296134329	4.005140919985074	2.703011195343284
O	9.87056719613433	4.200413779985074	-0.009704875656716627
O	7.572903426134328	7.140618599985074	-0.1553960416567166
O	4.382971156134328	7.095695419985074	-2.218160444656717
O	2.7318492061343282	10.442586569985075	-3.0905695046567168
O	-0.9615965748656716	10.109504629985073	-3.8609995546567166
O	-1.9688372438656716	11.500310259985074	-7.286231064656716
O	-6.420147323865672	12.184606459985075	-3.8037962146567166
O	-11.441902803865672	10.372147629985074	-1.9751254546567165
O	-12.925491003865671	7.159948749985074	-0.6075577826567167
O	-10.061493073865671	5.142269079985074	-2.1540252946567167
O	-7.630403043865672	7.566839199985074	-0.35374462865671663
O	-9.26708977386567	6.785694339985074	2.9244076153432834
O	-9.46472492386567	3.0860812599850744	2.2612474053432834
O	-5.849499623865672	2.8704417499850745	1.6264143353432832
O	-4.656018163865672	4.9435097699850745	4.518258065343284
O	-6.840993573865672	2.8446522599850743	6.773289595343283
O	-5.496833613865672	-0.43923668001492566	5.400304235343284
O	-1.7766196138656716	0.6214448789850743	5.4919005753432835
O	-2.3007840538656716	1.802329311985074	9.048447695343283
O	-3.7856368938656715	-1.407597600014926	10.268907465343284
O	-1.2226919268656717	-3.8588324400149263	8.791167225343283
O	2.7098444061343283	-7.237576380014927	4.584554035343284
O	3.4874213061343284	-3.549406480014926	3.538049895343284
O	2.5820740961343285	-1.2886998100149258	6.380838615343284
O	3.1052387061343283	2.3324547399850744	7.198339985343283
O	6.241235386134328	3.8251800499850743	8.615360405343283
O	4.950571466134328	7.404788379985074	8.287279425343284
O	2.8763528861343284	7.127990259985074	2.4865982253432835
O	6.080594876134328	5.843179949985074	3.848053495343284
O	7.051531136134328	2.2673870199850743	4.130911065343284
O	11.903823396134328	0.026187309985074236	0.5014756853432834
O	12.22207889613433	-3.4193716300149264	-0.6012777566567167
O	1.1675176761343284	-12.725358140014926	4.832203155343284
O	-2.8519114838656714	-12.374851140014925	8.245366075343284
O	-4.604320553865672	-10.277367540014925	5.614604315343284
O	-9.387103273865671	-8.269874470014926	3.6283082253432832
O	-8.841731643865671	-9.867303940014926	0.2268721093432834
O	-5.965143793865672	-8.908023940014926	-2.166535094656717
O	-7.819658053865672	-9.627840540014926	-5.357832924656717
O	-4.891186353865672	-8.822830540014927	-7.671992424656716
O	-1.9679801438656717	-10.731888440014925	-6.283715354656716
O	0.8261526861343285	-10.953515640014926	-8.920065594656716
O	4.638703936134328	-11.010139940014925	-9.070315274656716
O	4.761555776134328	-7.2134192000149255	-9.490372734656717
O	3.229595106134328	-6.507716730014926	-6.1568556746567165
O	5.330171896134328	-8.761699220014926	-4.127691924656717
O	8.124263706134329	-6.397805890014926	-2.8854543746567165
O	11.30472609613433	-8.448393140014925	-2.2786349946567164
O	6.048855066134328	-8.209583910014926	1.6438510453432833
O	2.6484599861343283	-8.229032550014926	-0.020525580656716613
O	2.0333543861343286	-4.807062120014926	-1.4712907846567167
O	-1.2560925388656716	-3.1542819600149263	-2.7690290546567162
O	-3.8655170138656714	-5.526409250014926	-1.4214847056567166
O	-7.434106203865672	-4.407848770014926	-0.5076374276567166
O	-7.579261913865672	-1.889751450014926	-3.2729921346567163
O	-8.78300868386567	-3.6597739800149256	-6.428508244656716
O	-8.542821933865671	10.925101709985073	5.9573633853432835
O	1.3472941561343283	6.753286999985074	15.590524665343283
