30

O	-2.829720916025786	-0.5403044556752288	28.736709846943842
O	-2.0850110549377634	2.6477646144125098	20.134990657493997
O	-0.7970042284206744	2.4832291090909075	21.07080063354416
O	-3.7895004148821423	1.8745182429132423	16.78645729430836
O	-2.923252144767276	2.451400848259084	21.341206441427076
O	-0.8446201902091683	0.9971859519098183	21.167759248003204
O	-3.220977141688165	0.8446789375629356	17.65096249099937
O	-5.619797158458338	0.421525727428427	17.052109643178404
O	-2.2870782083111223	0.36717677091020273	26.107116764747417
O	-4.924066427923034	1.2524019247564848	16.031232359272344
O	-5.236208027900955	0.6972812190103514	18.455222215065387
O	-2.26669441779067	1.9974592686908317	22.81490444642228
O	-3.717229931449717	-0.4339692694227512	21.16335746032101
O	-3.788447514875527	0.2023134238715093	18.78768695177296
O	-1.5900652018652017	0.7878336295051136	22.38642999266366
O	-2.851746733455313	0.019126341464539953	23.550456661822462
O	-0.7468948010580352	-1.3739569658256987	21.93407235122955
O	-3.473242150670824	-0.0629911420448317	22.416785439436396
O	-2.642204669732729	-1.314157863533051	20.83477006412757
O	-2.3718931940075825	0.3896657558988259	24.7405314264245
O	-1.427707570289575	-2.616097768361449	21.981061723434017
O	-1.6169421048776733	0.9727016095130578	28.610095139248642
O	-3.764406784128749	0.34012500526982925	20.069835431312892
O	-1.051026779319417	-0.4652793768393255	22.990691523074492
O	-2.5794930493011528	-1.9026219971206195	22.176777322876198
O	-2.1920948933394784	-1.269454810065311	23.45068975666769
O	-2.210063414091631	0.199946860398988	27.547412986042666
O	-1.1431184826625445	2.9996198345757437	23.329124668809307
O	-4.618668273236394	0.6395134180571949	14.859029807919667
O	-4.939754321902283	2.0036596909737368	18.866102408750212
