21

O	-4.219565773177248	1.2103892795525102	14.083694492686824
O	-1.1847865489781115	1.7902554681875853	16.891628257603752
O	-0.6720207002618895	2.777973396100796	17.392855670742197
O	-1.570046277833403	1.1896814370281925	18.056353200225036
O	-2.8932909514132317	0.9593255137944288	18.085609656940125
O	-3.911813188957153	1.7355001964889873	17.749887095428797
O	-4.577973562212281	1.6505358476258638	16.600480316019343
O	-4.073306517509815	0.7482263992527138	15.691128227996426
O	-3.7828423398092865	-0.4023502197684121	16.33404206416892
O	-3.2983242851545533	-0.2912017100634514	17.607016004200286
O	-1.3207044896354407	1.7272014934073838	15.578565100812302
O	-1.3000830007811148	2.7712727755270055	14.763804931583778
O	-0.8296394560474764	3.8970148843132804	15.261481619830864
O	0.011389308618752758	4.239154103482246	14.20495369723523
O	0.4092485155345521	3.1968849739311826	13.512994027394239
O	-0.17832985042449168	2.1642899994972087	14.178842812532451
O	-1.9524468796561751	4.480859874630021	16.051424455159534
O	1.4477303594706528	2.617962472026891	12.711337931713926
O	2.472531257300085	1.9995633481099677	13.615309527542163
O	1.3006436587069934	1.3413756073370107	12.064412612314735
O	1.954256487739423	3.5232204278975874	11.78704010059019
