116

O	-5.091041091894445	3.538910483358334	-1.432285488708334
O	1.6092103181055557	1.3334361263583339	1.191683054291666
O	0.6161046081055557	0.11063969335833379	-0.590919324708334
O	6.740685838105556	2.5397500233583337	-0.7845113785083341
O	2.9647744881055558	1.0512833573583338	0.7952360542916659
O	5.1486123881055565	2.4927089933583337	-1.346645581708334
O	-4.295255851894444	3.603182803358334	-7.055480525708335
O	-4.320419581894445	4.093375763358334	-4.502448725708334
O	-3.5643767518944443	2.3567260093583338	-3.032531815708334
O	2.2377440781055555	2.1863152413583338	-1.1814128217083342
O	-1.8015589498944444	3.2502788933583338	0.6367191642916659
O	-0.2634194228944443	1.717888344358334	0.9194563442916659
O	-3.0279606618944443	3.4585836433583337	0.16082887429166592
O	-3.0823571918944443	3.7004130833583337	-4.832970215708334
O	-3.9699701918944443	2.407150653358334	0.15904770429166604
O	6.5475362681055564	3.063417623358334	0.5436223842916659
O	-4.708775241894444	2.953249613358334	-3.547777575708334
O	7.255296458105557	1.1276768283583338	-0.46797527870833405
O	-2.4274054618944443	1.0453028603583339	-0.04656714170833409
O	-3.929321781894444	1.8058507363583338	-1.815758961708334
O	3.1887900981055552	-0.28668353664166624	0.6209523342916659
O	-4.837715911894444	2.4286182113583337	-0.9095735701083341
O	4.322296678105555	-0.6736395366416663	0.09016092129166597
O	0.9244280881055558	2.876850173358334	-1.6390389577083342
O	4.256790288105556	-2.0700628366416662	-0.15114307370833402
O	4.466920738105555	-2.192469696641666	-1.6109018667083341
O	3.0475595581055557	-2.7778915466416665	-0.15914845470833405
O	5.303037918105556	-3.0418664366416666	0.06864139629166599
O	4.516858398105555	1.5723311463583338	-0.542279244708334
O	5.163116078105556	0.3258591733583338	-0.26417535570833406
O	-2.1588117418944446	3.981327633358334	-5.882195535708334
O	-4.4512140618944445	2.490367613358334	-6.2650808957083335
O	7.174077438105556	3.256363473358334	-2.217336575708334
O	0.6811135381055557	0.9577636593583339	0.24135141429166596
O	-1.5014290898944442	1.934716825358334	0.44803797429166603
O	-1.4422668358944444	3.8918216733583337	1.834105844291666
O	-2.6273884018944447	4.466952353358334	2.457080374291666
O	-3.9546799718944445	4.565053873358334	1.900083024291666
O	-3.875168211894444	4.513342533358333	0.4821641542916659
O	-3.6276456718944443	1.290833389358334	0.680402564291666
O	-3.2313336018944443	2.2937805033583336	-5.276806005708334
O	-2.9460518318944446	3.764843513358334	-7.203686555708334
O	-5.703096891894445	3.411960693358334	-2.744177605708334
O	3.1790361581055557	1.7211002053583337	-0.38426662370833403
O	-9.874992911894443	12.071224123358334	1.8277058442916658
O	-9.537529331894444	9.649938263358333	-1.075358543708334
O	-0.5034525678944444	7.750683733358334	-1.784889744708334
O	3.187466378105556	7.094887323358334	-2.593832095708334
O	5.028279688105556	9.778855373358333	-0.6397357437083341
O	1.8914610081055558	10.797715673358333	1.2556809142916658
O	-1.8778519578944444	11.576222523358332	1.487754004291666
O	-4.727247721894445	9.149384653358334	2.126096344291666
O	-8.038436961894444	9.178147453358335	3.962879144291666
O	-10.768183501894445	6.539712303358334	4.270999544291666
O	-9.744102151894444	1.2804269413583338	6.204747534291666
O	-7.445691321894444	3.446827243358334	4.408454884291666
O	-4.976720251894444	5.570756103358334	6.302135974291666
O	-1.8493271428944444	7.174067593358334	4.628385314291666
O	0.10880271810555575	10.036120013358335	6.238022934291665
O	3.699931918105556	10.113240153358333	5.019556194291665
O	4.610415618105556	13.608191923358333	3.671112904291666
O	9.193378018105555	11.522461123358333	6.2149566142916655
O	12.424558418105557	5.502741713358334	1.9156116142916662
O	10.204339218105556	5.855711763358334	5.048144334291665
O	11.967715218105557	3.0009261633583337	6.6776191642916665
O	11.832986118105556	0.9745277043583338	3.490233864291666
O	8.064287738105556	1.2406701083583338	3.118708444291666
O	7.432273818105557	0.6057390823583338	6.863117654291665
O	9.596443118105556	-2.430266806641666	6.715681104291665
O	8.077507288105556	-3.830554726641666	3.673245244291666
O	4.471737308105556	-3.237442536641666	4.974529484291667
O	5.230197658105556	-4.930970946641666	8.092417504291666
O	3.7715785981055556	-8.614480676641666	3.830739984291666
O	1.0947429881055557	-10.996461176641667	4.965510804291666
O	-0.9225058697944444	-12.222828076641665	1.9067936542916661
O	-3.3837121118944444	-10.171007876641667	-2.657175975708334
O	-0.6935525608944444	-7.871722546641666	-1.208632589708334
O	-1.4019040158944445	-4.673899776641666	0.7810573142916659
O	-0.06678491489444438	-5.111120116641666	4.310836704291665
O	-0.3383480738944443	-3.2068427566416657	7.547332664291666
O	-3.4196323818944445	-3.1016321466416663	9.670133574291665
O	-1.9326782248944443	-0.44490390664166624	11.956534074291666
O	0.08404320810555577	3.670484563358334	7.935653594291665
O	-3.2880897118944445	1.7456923783583338	7.764054244291666
O	-4.435897061894444	-0.8305393766416662	5.387497214291667
O	-7.605706511894445	-2.255410086641666	3.9027942842916663
O	-9.762847511894444	0.12028455335833388	1.7821074042916658
O	-10.380337261894445	-1.3983786166416663	-1.616029175708334
O	-11.748255081894444	1.704162343358334	-3.175702675708334
O	-10.754591061894445	1.601906073358334	-6.839728655708335
O	-8.204678701894444	0.4405926833583339	-9.283570785708335
O	-8.291098201894444	-2.109939906641666	-12.155900025708334
O	-8.903215761894444	0.7142763633583339	-14.640076225708334
O	0.4961834081055556	-11.987412676641664	-4.943572325708335
O	4.682751938105556	-14.220422776641666	-2.623192425708334
O	6.428557338105556	-10.886555376641667	-3.132665885708334
O	11.286227718105556	-8.178481656641665	-3.506862085708334
O	10.483048018105556	-6.917997996641666	-6.961371105708334
O	7.5856400681055565	-4.553019196641666	-7.808544275708334
O	6.395294178105555	-0.5702860666416663	-11.627926825708334
O	-3.5183867718944444	-1.7185831266416662	-13.614809225708335
O	-3.1648756618944445	1.4104420925583339	-11.535263325708334
O	-1.3630395698944444	-0.4745229066416661	-8.625206625708334
O	-3.8645008418944444	-3.2063869366416657	-8.342132745708334
O	-6.533009401894445	-2.085052236641666	-5.750137825708334
O	-9.805643141894445	-3.833487386641666	-6.331212805708335
O	-7.515992161894445	-7.679582556641667	-5.589609415708335
O	-4.364778271894444	-6.453844446641666	-3.693839235708334
O	-0.9728425795944443	-5.363206486641666	-5.079811125708334
O	-0.022467160894444338	-1.886155346641666	-3.885766725708334
O	3.128344478105556	0.2772493733583339	-4.312091165708334
O	5.573005418105556	-2.7092250266416658	-4.7894769457083335
O	9.378735018105557	-2.482091566641666	-3.659209455708334
O	9.572505518105556	1.230039338358334	-3.956066505708334
O	10.542115918105557	2.2531843693583338	-7.433362355708335
O	-1.5216486488944443	-6.0427773566416665	14.943920574291665
