33

O	-1.89544742457739	-1.9224263807064377	24.356612297940963
O	-2.3210875371305866	-1.7008167785435937	23.07515552068352
O	-3.4433889634196744	1.024841735531758	20.02644227130548
O	-1.7916966075801528	2.278157825145398	18.378558668485987
O	-2.3417189840549213	-2.0851094243042976	20.95009353059906
O	-2.0273420448153274	-2.5599508112910865	22.12504225744875
O	-4.405561114010611	0.43671146119664594	32.15233125348105
O	-2.11461551409265	-0.7212405178687263	20.77116865559129
O	-2.613387625844078	-0.6430162559746038	18.536438123500226
O	-2.5430965001122114	0.18704560859670438	19.710490001253117
O	-3.055231347599244	1.2969265010004016	26.310370390827266
O	-3.224021688548316	0.058835439304546044	17.49736357026519
O	-1.7808407862787123	0.4962038370265781	24.66861225293505
O	-2.594529713786255	1.2685745868475973	17.150003923374914
O	-4.19283741049364	-0.4229410527158003	27.65247170265236
O	-3.189606484570615	1.7238656222167994	15.972784571521046
O	-5.295360817284909	-0.8737129077712128	30.04880544270244
O	-4.416834179779022	1.1686658576975484	15.532409377058606
O	-5.257141625312497	0.5755326239047082	16.48477142238727
O	-4.5698486848165665	0.2031434145251957	17.659195387812048
O	-5.215565567334535	-0.49622954311347434	18.7739286272606
O	-2.1457806212737145	-0.767860461139089	25.10394189058765
O	-3.455390910055659	-0.8108874596229564	25.47655202483888
O	-3.785720022827671	0.1475057041514808	26.390011506641525
O	-1.7698892293517856	1.2611080681767999	25.79779270980453
O	-0.904519973200403	2.3762116929640116	26.138857549213792
O	-3.506960911111132	0.06446596291666384	28.802922911670343
O	-4.7023273316296414	0.3645515665005453	29.64123838719194
O	-5.865018766762311	-1.4541449927128327	28.892450687593307
O	-4.783619102662803	-1.6804393853851463	27.895847652184088
O	-6.2508439515975045	-0.7441811966327149	31.148594774048533
O	-5.4012550743207415	-0.53099293791766	32.36709419431642
O	-2.038225501531866	-0.150391557367758	22.34235329108294
