25

O	-0.47767206592837086	0.22601145394055572	24.37308857092562
O	-0.5340671956953327	1.4834974344449348	23.598573747853596
O	-0.62986038938369	2.5642385622501074	24.505569312468616
O	-1.3640423363057133	1.569670498304192	22.380489394445842
O	-2.654939390952829	1.0899087105428613	22.747356361506338
O	-3.140831649909461	0.30627851471361306	21.65489375914388
O	-2.652292848780296	0.8349496076128253	20.497086748597255
O	-2.260704318943888	2.147001404074841	20.434725214364537
O	-1.5138315905256727	2.5215011564911314	21.493128466091743
O	-3.1580289640516614	-1.1810679893875087	21.796883029662432
O	-3.237978208552882	0.11402695678966224	19.333164532067425
O	-4.547996887424531	0.47927531337837276	19.221096688218715
O	-5.11261763126998	0.44495947435385735	17.99822408422807
O	-4.4024850937183295	0.7356988600637315	16.886662675728136
O	-3.047013346831375	0.5876845086778715	16.97860718550206
O	-2.49429470799915	0.3221938432859052	18.2272550882492
O	-3.365677579779785	-1.5819580823636925	23.11948131881787
O	-2.627713343086394	-2.59057723051588	23.748323753521472
O	-2.2344182444392624	-3.458011840940451	22.82884373057848
O	-1.8755775703608684	-3.029305714343559	21.618503769500194
O	-2.488727808410286	-2.0071080432905046	20.962507562956468
O	-4.858433697532767	0.6902964579200259	15.597213352121615
O	-4.0416987743957336	1.354954310987115	14.685411414483914
O	-2.949040850364696	2.0884827125917975	15.157125591296138
O	-2.2760077307968207	1.3366141735769441	16.117130089454967
