80

O	-0.9956215169056598	0.08615680906415094	-0.6520513091216986
O	0.1925961920943402	-0.08102842313584906	-1.4759612291216988
O	-0.1631726589056598	-1.057137594935849	-2.4107990391216987
O	0.5183960620943402	-0.39801133393584903	-3.5303592891216984
O	0.9785519320943401	0.7718243070641508	-3.2863460491216987
O	0.9997088520943402	0.882912609064151	-1.9506617691216985
O	0.8402558520943402	2.212255615064151	-1.4335969411216987
O	2.00675322209434	2.768821955064151	-0.7450594271216987
O	2.26075271209434	4.049846385064152	-0.22443666912169868
O	2.05887187209434	5.046422515064151	-1.1576249261216986
O	1.1233675920943402	4.736223395064151	-2.1042739291216987
O	1.0727969020943402	3.351423755064151	-2.361827659121699
O	-0.5844641869056598	-2.462985914935849	-2.4571406891216987
O	-0.4569728829056598	-2.889668654935849	-3.6835406091216987
O	0.13067240809434022	-3.458872274935849	-1.5624829421216986
O	1.38277687209434	-2.795129184935849	-1.3048299241216987
O	2.1341398320943403	-4.103522704935848	-1.3458276301216987
O	1.6845115220943403	-5.362503154935848	-1.0714582451216987
O	0.5181438920943402	-5.9965861949358485	-1.4085278841216988
O	0.6057965820943403	-7.298371984935849	-1.7961692371216986
O	0.38233436209434024	-8.70830882493585	-1.6153912481216985
O	1.2980167220943404	-9.806276404935849	-1.8545741111216987
O	1.0413143520943402	-10.99184199493585	-1.2362712511216987
O	1.3508143720943404	-9.91936598493585	-3.3991132991216984
O	1.54848531209434	-8.44204361493585	-3.6583091791216984
O	-0.22642039590565977	-4.859585724935848	-1.7624437781216988
O	2.33217499209434	6.314272535064151	-0.6998091841216987
O	15.43306386209434	-3.9341131049358493	-8.9143312891217
O	11.03094806209434	-6.434536564935849	0.011912894878301272
O	9.64052256209434	-5.222330284935849	-3.3688377691216984
O	6.04094230209434	-5.898600534935849	-4.102842119121699
O	2.53966616209434	2.0953635250641507	-7.224156029121699
O	0.9941335320943403	5.401809605064152	-8.575014569121699
O	6.539156482094341	5.245714955064152	-7.969224119121699
O	7.859986742094341	1.839952185064151	-6.747424039121698
O	6.83915362209434	-0.03171365333584905	-3.593168169121699
O	8.54191879209434	-2.158476644935849	-0.9766352591216987
O	7.193215792094341	-3.9220096449358492	2.1167712308783013
O	9.06551408209434	-3.3047026649358493	5.284430550878302
O	9.04796367209434	-4.0188338049358485	8.9666766908783
O	4.12151718209434	-4.287706054935849	8.6254979108783
O	4.29658442209434	-1.284002904935849	6.351172740878302
O	4.467370282094341	-0.41448964393584903	2.8312588708783015
O	7.01836735209434	2.174305505064151	1.6013376408783015
O	6.607697152094341	3.940033305064151	-1.8916901091216989
O	9.44381176209434	5.849432505064152	-3.4926355691216986
O	8.17497796209434	8.50964312506415	-5.858174649121699
O	-10.061025307905659	3.5297306550641507	8.519947330878301
O	-11.07448143790566	2.776412985064151	4.901791010878301
O	-8.780299747905659	5.346636705064151	3.2197704208783016
O	-4.954088797905659	4.938738355064151	2.7685009808783017
O	2.1918781320943403	6.723867555064151	8.463140150878301
O	10.06670606209434	11.44329220506415	-1.4660391131216985
O	9.14629476209434	8.13824187506415	0.2915714808783013
O	5.56380257209434	7.512933505064152	1.4785814008783014
O	4.77120118209434	5.0309310250641515	4.317552000878301
O	1.40634671209434	3.4601286250641508	4.934015670878302
O	-0.2493678519056598	0.2787758590641509	6.259352800878301
O	0.5170099620943402	-2.811698944935849	4.309724930878302
O	-2.74239988790566	-4.494258164935848	3.296935050878301
O	-1.25187318490566	-7.058056464935849	1.2126026208783016
O	-3.7995148679056596	-7.807159414935849	-1.6578364391216986
O	-6.37134163790566	-6.356463764935849	-4.013905209121699
O	-6.9495378979056595	-11.34236199493585	-5.270637989121699
O	-6.91841845790566	-2.977292224935849	-8.248492389121699
O	-6.82051993790566	0.10104407906415094	-6.039940429121699
O	-8.86339314790566	-1.3109270949358491	-3.2447861491216985
O	-6.31513611790566	-2.748714874935849	-0.8064315440216987
O	-7.70656160790566	-5.6375261449358485	1.2805458908783014
O	-5.93737526790566	-7.484894744935849	4.134738910878301
O	-6.55831581790566	-11.10815069493585	5.173032890878302
O	-11.116354837905659	-8.61757580493585	4.611889430878302
O	-10.60723134790566	-5.0298595549358485	5.934971080878301
O	-10.42191007790566	-2.542767534935849	3.0308356208783014
O	-8.769164427905661	0.8401098260641509	2.2345972408783012
O	-9.25352167790566	3.043126675064151	-0.8588029307716987
O	-6.031371867905659	3.832871215064151	-2.661617629121699
O	-4.67799508790566	6.192715075064151	-5.399723849121699
O	-7.65260891790566	8.55916929506415	-5.036857219121699
O	-4.67594194790566	11.43424270506415	-8.743950869121699
