33

O	-1.0772515750650027	3.7761251124661785	13.697607732844466
O	-1.9948137577984835	3.7759717410774862	14.665819318821649
O	-1.2103462542055474	3.4147356480756637	15.64053471997278
O	-1.0026485935847012	1.820978574350929	15.23998361962515
O	-0.6803076033993498	2.407952409947116	13.659851850990188
O	0.4879117799509023	2.2234219667128086	12.845841314591379
O	1.5661853580026703	1.9090111287167262	13.806430574170404
O	1.0686494466556586	3.428518014743279	12.178289122174876
O	1.0166948745306972	1.144561078055778	12.116168918052509
O	-1.4026490981259898	3.8777714058672035	16.92663332939519
O	-2.8544580833986775	4.779026493720371	15.189463020666642
O	-3.879420528890175	4.766626836542709	14.681530997391391
O	-2.014459994743362	5.823903200757856	15.371913780486254
O	-2.3538615733183796	3.2678586438582746	17.455649086019676
O	-3.6908592757794976	3.432970451321913	17.52011246392053
O	-1.7501449579313637	2.7032621472617286	18.388619151168648
O	-3.840668228085402	2.0617256864281024	17.68700790190688
O	-3.7376543660765273	1.6032499560535964	18.951679150042942
O	-3.4054952011272923	0.2923360729567639	19.125074264834456
O	-2.8609857396712552	-0.308991207725819	17.984812989586867
O	-3.2499711320716633	0.13158024971102034	16.833440816049702
O	-3.577843935487418	1.365102893895473	16.639092745333198
O	-2.7985873061233426	6.67847753069962	16.127113212375455
O	-0.7882601719351621	5.707196770854656	16.026706403139016
O	-3.803118230436773	-0.7132841636733613	15.96849197668046
O	-5.083916123433332	-0.1660469252572594	15.736688447708287
O	-4.837693193093581	0.9030630320960416	14.921253481144912
O	-4.009413476866548	1.8050759259550226	15.429793805723767
O	-2.5073136606043662	7.358221941349404	14.845984415360292
O	-0.2397255102419953	6.973021233747799	16.214960251133437
O	-0.8640710972140229	7.711177268823919	14.678167609849336
O	-0.2567493185215308	6.845366905713478	13.73721617007138
O	-0.58374922711805	8.974360391968052	15.164587820381012
