33

O	0.1763056559445939	2.9287304540501546	13.450871475712114
O	-0.7410681345616911	1.9979720113429553	14.582782503520875
O	-1.99542510812952	3.1254604707694735	14.486986607872005
O	-1.3461548613463927	4.262147343707678	14.49776445645566
O	-0.3168682485729528	4.226883335744682	13.617528324192612
O	1.1170932409205991	2.506453005924347	12.485662085900493
O	1.4042294727745155	1.1757093918903396	12.001429519968454
O	2.42666753023778	2.3723323599102444	13.291361930544463
O	1.6135177399459266	3.4152622403133313	11.451712070927028
O	-2.336104975771558	5.124721755308277	14.996047200914424
O	-3.519888971242725	5.167537936172257	14.532930587730945
O	-3.0969545762394883	3.153679500563056	15.419151550718276
O	-2.6965203293841493	2.7882789751959494	16.65066413390973
O	-1.5505536950282357	2.2283821457499844	16.829242971386755
O	-3.506699255758793	2.7250824030228635	17.75652117320613
O	-3.2414149264011156	1.4152480730653578	18.146650436407974
O	-2.830448568941284	1.1079412846473917	19.38471291834744
O	-3.1043768971841126	-0.2317861173321738	19.683074138152836
O	-3.061536248699886	-1.1692528300958802	18.610680968226788
O	-3.308170317988952	-0.6310907025518278	17.466903868565478
O	-3.1329073471166993	0.5541855450866424	17.106193064388574
O	-3.8523925560223042	-1.5211579869508118	16.619313939866394
O	-5.121767080186479	-0.8634362587501951	16.46756397592538
O	-4.912869478179419	0.1984942423766678	15.625221843659133
O	-3.727774136155777	0.8608379774000081	15.853446739155926
O	-2.156632380764789	6.45945240368826	15.029317586800344
O	-1.2888973993909913	7.000227132101532	14.059156813093358
O	-0.33464980811689726	7.4422232093144824	15.12090653513232
O	-0.016442715697828403	6.304176962699925	15.865395115000368
O	-0.8813589007911414	5.581213310544114	16.703356276392395
O	-2.2134707659088986	5.297413906757112	17.417559078970708
O	-2.651922909745264	6.472508282055495	16.404298360305624
O	-0.412487498065486	4.620483107007908	17.298271876028544
