83

O	-4.889780196327585	2.8768994534327588	-0.1123347190017242
O	-5.9587003363275866	4.029876973432759	-0.2944560440017242
O	-4.717129686327586	5.259794813432759	-1.3349668330017241
O	-3.625267396327586	4.609880803432759	-0.4069170790017242
O	-3.442528036327586	3.2007160234327587	-0.01594654000172424
O	-6.060042956327585	4.793276413432759	-1.4969868130017243
O	1.571542873672414	-0.017871816567241128	0.9309117359982757
O	2.755850503672414	-0.6679469965672409	1.3543622759982756
O	3.4715571636724136	-0.07081441656724108	2.3393132659982756
O	2.690225633672414	0.5028089124327589	3.2918259359982756
O	1.5874585036724143	1.1181213334327589	2.789953165998276
O	0.8626922736724141	0.9272023264327589	1.6159415259982757
O	-2.507831126327586	2.251298804432759	2.092905275998276
O	-0.4632125303275859	1.5503649024327588	1.4819467959982757
O	-1.385139845327586	1.547076374432759	0.5137387459982758
O	-2.452342286327586	2.4315755734327587	0.7227781359982759
O	-1.283924701827586	1.856374645432759	2.543899915998276
O	-1.592158079327586	-0.20909055656724118	-1.3192958370017243
O	-1.237384044827586	1.0206626274327588	-0.8316970040017242
O	-2.533054206327586	2.096515441432759	-2.6194870640017243
O	-2.431704876327586	-0.1900430365672412	-2.451139174001724
O	-1.501757795327586	1.990173620432759	-1.7013804040017242
O	-3.208919296327586	0.9746016694327588	-2.4779502540017244
O	-3.416761896327586	3.124063293432759	-3.098324584001724
O	4.5530891336724135	-0.7576656765672412	2.7807040259982756
O	2.074518303672414	10.363852643432757	-8.307043474001723
O	0.706806213672414	10.95670647343276	-4.764894774001724
O	-2.2511616773275858	8.835256213432759	-3.6076019940017243
O	-0.076247256327586	5.576313403432759	4.655721825998276
O	0.6203421136724141	4.2119456734327585	8.190092565998276
O	3.4382791636724144	6.486957243432759	9.566575475998276
O	4.192946353672413	7.894253013432759	6.0655665359982756
O	3.130507543672414	9.241481963432758	2.6060333559982762
O	2.267589413672414	7.112124063432759	-0.45084148500172416
O	2.9421914236724143	7.648460243432759	-4.143736884001724
O	2.121640183672414	5.490146263432759	-7.1380122240017245
O	4.954330493672414	4.696768373432759	-9.452121704001724
O	5.915736833672414	2.6940399534327586	-12.489833024001724
O	2.505932053672414	-0.6125292165672411	-11.117178124001724
O	3.661449313672414	-0.08909520656724101	-7.549278234001725
O	2.896250493672414	1.8684870554327588	-4.461393344001724
O	5.816930593672414	3.429119213432759	-2.633667054001724
O	5.542416573672414	4.648379063432759	0.9973257259982757
O	8.131875563672414	7.029876713432759	2.516638715998276
O	8.249166463672415	6.644570133432759	6.279766945998276
O	-1.837801288327586	-13.130380846567242	-1.9478006440017241
O	-4.322108386327586	-11.351953646567242	0.3510595659982758
O	-1.744507601327586	-9.576438846567243	2.553825335998276
O	0.3677190736724141	-6.5318838865672415	1.5948590359982757
O	3.9825865736724144	-7.518688796567241	1.561072895998276
O	7.201128083672414	-5.974216236567241	0.4225380859982759
O	8.262620283672414	-5.771912596567241	-3.1765881940017238
O	11.310457793672414	-3.6552064365672408	-2.3673555640017243
O	12.698459893672414	-1.4927244765672412	0.3906162659982757
O	13.070085993672414	4.281894873432758	4.6482238759982755
O	10.952125493672414	3.7185859934327588	1.4851297859982757
O	8.725332223672414	0.6099126254327589	1.2625564859982759
O	7.403344993672414	-0.7785012965672409	-2.100221584001724
O	4.354248373672414	-2.9374502565672413	-2.549173694001724
O	1.611161363672414	-3.7041929465672414	-5.106001954001725
O	-0.625212282327586	-0.9087862465672409	-6.169880254001725
O	-4.280883796327586	-1.999165586567241	-5.769172104001725
O	-5.751174206327587	1.415368307332759	-6.333424724001724
O	-8.934462986327587	1.602310319432759	-4.196427214001724
O	-10.329717906327586	0.7846139784327589	-0.8041026920017242
O	-13.388478706327586	-1.1778064565672413	0.14170924599827583
O	-14.475132006327586	2.998812093432759	-2.993450094001724
O	-15.926533006327585	-0.333085746567241	-4.128977954001725
O	-10.062948596327585	1.8086934654327589	4.470289775998276
O	-7.218853876327586	-0.6156975265672411	4.915036445998275
O	-8.536057996327585	-3.296665736567241	2.679775285998276
O	-6.995163156327585	-2.606001086567241	-0.7182827219017242
O	-9.050450476327587	-3.871133186567241	-3.667480544001724
O	-8.082122586327586	-3.7100579465672414	-7.392190434001725
O	-8.152236196327586	-7.924600866567242	-2.0237682340017242
O	-5.069159386327586	-7.391966706567241	0.24913640499827583
O	-5.054879926327586	-6.566148506567241	3.9717468059982757
O	-2.987054626327586	-3.5109601865672415	4.835875455998275
O	-1.547223979327586	-1.8612135865672412	7.999785915998276
O	-1.787915232327586	-5.032878486567241	10.090224475998276
O	0.38210499367241413	-5.5913052465672415	13.227271475998275
O	0.9051855036724139	-1.8806738765672413	13.751922275998275
O	-1.907982596327586	-0.6456076865672409	16.079524875998274
