100

O	1.298618666725807	4.082072074774194	-1.5501458002096768
O	3.081451266725807	3.377594994774194	0.12414895079032306
O	1.4090017167258069	4.7568729347741945	0.6976970297903231
O	2.1794624567258074	-0.8320643452258059	2.7949695197903233
O	1.751589696725807	-1.7099164052258058	1.9183881097903233
O	1.3755810567258069	-0.45787839522580587	3.8668629497903226
O	0.4727402767258071	-1.9620361652258056	2.418227009790323
O	0.24075829672580706	-1.333412125225806	4.0053259997903226
O	-1.689227923274193	0.04162246477419429	-2.370842630209677
O	-3.470070163274193	0.2728433977741942	-1.131936751209677
O	-1.2610103922741929	0.4201604307741942	-1.1728765862096768
O	-2.801454743274193	0.3198087717741942	0.09158472279032304
O	-2.199023933274193	-3.5930106552258056	3.3716864397903232
O	1.1013465267258071	1.485544457774194	0.954353339790323
O	-3.2737201032741927	-0.07283127522580579	2.884504149790323
O	-2.4084489732741927	-1.1095667752258056	3.630201319790323
O	-0.9917202390741929	0.3340539107741942	2.707999919790323
O	-3.573631633274193	0.9042091457741942	-3.640837840209677
O	-3.0911438432741933	-2.3655820152258062	1.6952795697903231
O	-0.3564279982741929	2.7168347447741943	0.015322935790323067
O	-0.3044752372741929	-0.46826918522580585	-0.22145462520967696
O	-2.015863464274193	-2.3835930352258057	-0.4651653294096769
O	-3.2404966132741926	3.1515298947741943	-3.796443620209677
O	-0.021861408274192917	-2.3880855952258058	-0.20461988020967695
O	-4.763125533274193	2.4798849247741943	-5.029691760209676
O	-2.146917663274193	0.8063459467741942	2.714595099790323
O	-4.154502793274193	2.247208744774194	-3.784280760209677
O	-0.9076742702741929	-1.6199546552258057	-0.04282677720967698
O	-0.36798388427419293	-0.9511124252258056	2.877271789790323
O	-2.855054073274193	0.6902045407741941	-2.333350170209677
O	-2.605547903274193	-2.329086735225806	2.888085049790323
O	-1.962129140274193	1.233178722174194	-0.22280127120967697
O	0.9281599967258072	2.629612374774194	0.25666825579032304
O	0.18288522672580698	0.6298498667741942	0.48551916279032303
O	-2.2576549832741932	-2.761618005225806	0.8547740197903231
O	1.769208316725807	3.6839957547741946	-0.24589912020967694
O	-0.7993423362741929	1.5768224737741943	0.44724290379032305
O	-1.339327192274193	-3.833988345225806	1.826885299790323
O	-7.376065183274193	-1.694300445225806	3.089041309790323
O	-7.101048963274192	0.7361322907741942	0.273407027790323
O	-8.863504923274194	-1.0460600452258058	-2.935275010209677
O	-8.804195073274194	-4.453173415225805	-1.174017879209677
O	-9.287453293274194	-6.5842736852258055	1.962830149790323
O	-6.656418093274192	-7.131894955225805	4.713009959790323
O	-5.888611553274193	-10.132923355225806	6.834366839790324
O	-3.3383756132741933	-10.573730655225805	9.548188219790323
O	2.230214246725807	-9.646234055225806	8.762899439790322
O	-0.580367499274193	-7.934494385225806	7.032154449790323
O	-1.6664346542741928	-9.279999255225805	3.734992439790323
O	-3.7039658832741926	-6.970032295225806	1.548559229790323
O	-5.742517883274193	-8.837271055225806	-1.434946010209677
O	-6.544381983274192	-6.423776215225805	-4.246621750209677
O	-10.249301973274193	-6.306572055225805	-5.161697460209677
O	-10.728035163274194	-6.821509645225806	-9.030394620209677
O	-7.326983963274193	-5.412158875225805	-9.944743560209677
O	-5.3132269132741925	-1.671397445225806	-13.608557630209678
O	-3.115916863274193	1.4184272767741941	-13.563618030209678
O	-3.811360593274193	1.9230313317741943	-9.900836110209678
O	-2.747371503274193	-1.7446863252258058	-9.221251640209678
O	0.489638636725807	-1.0333824752258056	-10.956048130209677
O	1.0116283067258072	2.3020672547741943	-9.258345210209677
O	0.724098216725807	0.6854685197741942	-5.957256500209677
O	3.0325989067258075	-2.282508205225806	-6.719959880209677
O	5.555304826725807	0.17150288477419418	-7.939612420209677
O	5.3885469967258075	2.4699662047741944	-4.979690450209677
O	5.569369616725807	-0.3033263252258058	-2.471360170209677
O	8.480298206725806	-1.8993574952258057	-4.146372480209677
O	10.375326066725806	1.3048836697741941	-3.942017820209677
O	9.746042066725806	2.301647844774194	-0.25540579420967696
O	6.872374346725807	3.988961634774194	5.640213109790324
O	5.041109186725807	0.8989128237741941	4.669453929790324
O	6.957712796725807	-1.2175486252258059	2.156303479790323
O	6.727047146725807	-4.706508155225806	0.7024900797903231
O	7.637254006725807	-7.839713235225805	2.529170939790323
O	6.264594126725807	-10.080584155225806	-0.26204209220967695
O	0.6929652467258072	-7.531143115225806	-0.985849143209677
O	2.5165201067258067	-8.416634945225805	2.277774619790323
O	3.6976194067258072	-5.783124685225806	4.682551929790323
O	1.263068936725807	-5.607914575225806	10.665150769790323
O	8.684216926725806	9.217828374774195	6.967041309790323
O	11.647236366725807	10.200454774774194	2.701736619790323
O	8.464410026725806	10.007114534774194	0.6912111397903231
O	5.724296806725807	11.252588044774194	-3.952088120209677
O	2.980312726725807	13.073204844774194	-2.090276570209677
O	0.5522027967258072	11.357261844774195	0.36023456279032307
O	-4.719993263274193	12.059500344774195	2.171478129790323
O	-4.993624863274193	9.385963214774195	11.676694169790323
O	-6.518120863274192	6.291348084774194	10.034361669790323
O	-3.609015283274193	5.673423574774194	7.710157089790323
O	-0.9093296332741929	6.037473194774194	10.241230269790323
O	-0.29595228027419296	2.445892214774194	11.299354969790322
O	4.471142296725807	3.752296994774194	9.515312709790322
O	2.7585915667258067	5.897444844774195	6.978774639790323
O	0.282471286725807	3.9298448947741944	4.9363670697903235
O	-1.855324606274193	4.532506354774195	1.6499160997903228
O	0.404782626725807	7.356571014774194	0.484328299790323
O	0.8099490567258072	8.014394714774195	-3.321073130209677
O	-2.456503033274193	6.5990951647741944	-3.888608460209677
O	-5.056230303274193	9.580881814774195	-3.833578170209677
O	2.2066878167258075	-5.499856425225806	-13.059212430209678
