117

O	-3.189264084731884	-0.1834072370869559	1.3518282040289864
O	2.1335913552681163	-0.30173404408695587	-5.710548174971014
O	2.8834362952681163	-0.5898076650869559	-4.502002254971014
O	3.9595334952681163	-1.277900946086956	-5.143491794971014
O	3.3245073152681166	0.865012100913044	-4.632992854971014
O	2.5129642352681163	-1.0734743360869559	-3.2306105549710136
O	1.7576575752681163	-2.060476026086956	-2.9172908649710134
O	1.3905965452681164	-2.330976896086956	-1.6727008949710136
O	1.9425457852681163	-3.016635466086956	-0.5621020849710135
O	2.1014877852681164	-1.9329205460869556	0.38275719702898636
O	2.279410145268116	-0.8318851060869559	-0.0772622189710136
O	1.5591079252681164	-2.608324786086956	1.3643587120289864
O	0.7799012852681163	-1.9352229260869558	2.2994360950289865
O	-0.5329524317318837	-2.590570646086956	2.3287077050289864
O	-0.45193602073188366	-3.9825418860869557	2.256380875028986
O	-1.5299996547318837	-4.704593296086956	2.6772425450289865
O	-2.5252508447318838	-4.076540486086955	3.4161603350289864
O	-2.520275914731884	-2.684016536086956	3.2702695250289864
O	-1.2957025867318837	-1.957261456086956	3.3172724250289867
O	-1.5187049667318835	-0.4794173390869559	3.8668171850289865
O	-1.8951441047318838	1.044720938913044	3.8689176150289866
O	-2.8660340747318838	1.8101241939130441	3.3668754150289866
O	-3.309545204731884	3.090253223913044	3.4741179750289866
O	-2.5728671747318836	3.935738813913044	4.304775465028986
O	-2.0138471547318835	4.989779823913044	4.818843085028986
O	-0.7597362227318837	4.7261707739130445	5.261488795028986
O	-0.27479555973188363	3.631506073913044	4.614433795028986
O	0.26591154526811633	2.7368396839130438	5.564177535028986
O	-0.01212346573188361	2.094771653913044	6.7294253850289865
O	-0.3213440137318837	0.7825846769130441	6.895505145028986
O	-0.16848995973188363	-0.30998886508695594	5.987843095028986
O	0.5757062652681163	0.24649032491304412	5.009356765028986
O	0.7407835752681163	1.6564391039130442	4.719054425028986
O	2.1753653652681164	1.4306581039130442	3.6030204350289865
O	2.937362555268116	0.2160761169130441	2.3231382050289864
O	3.721454525268116	-0.1102868710869559	1.2762323680289864
O	5.051536945268117	0.04463430991304412	1.8322137250289865
O	-1.5726065367318838	3.191177463913044	4.6124551950289865
O	-1.7857747207318837	1.9172653139130442	4.823519655028986
O	1.465861875268116	-1.183587206086956	-1.1575942649710136
O	2.6457503352681164	-1.0216444060869558	-1.9367761649710133
O	0.7287951552681163	-0.6106299990869559	-0.12419018697101358
O	0.6984212852681163	0.5709727779130441	0.8741218810289864
O	0.09598651826811633	1.6042779639130442	1.7806419950289865
O	-1.0713144337318836	1.5713264239130442	1.0979272070289863
O	-1.6557063897318836	2.844141863913044	1.5152691550289865
O	-1.5581096697318837	0.2698738284130441	1.2079896980289864
O	-0.29983192573188366	0.05453089591304411	0.9944406650289864
O	-3.7290274447318836	0.6317634399130441	14.449121935028987
O	-1.7380111467318837	3.038355093913044	12.123493035028988
O	3.386287825268116	-1.832647046086956	6.772750455028986
O	5.8791301652681165	-3.523828846086956	4.568728145028986
O	6.147050845268117	-7.0091702260869555	5.954856575028986
O	3.026543715268116	-6.633118906086955	8.134345845028987
O	0.8546997352681164	-4.565299956086956	10.576960935028987
O	-1.8373275307318837	-2.038987556086956	9.509332315028987
O	-5.0611313547318835	-0.8910249660869558	10.944373935028986
O	-7.515530784731883	1.6917499739130442	9.839795675028986
O	-9.757190804731884	1.7021387039130442	4.649655585028986
O	-6.401056524731883	0.4910064929130441	5.618712755028986
O	-6.232879134731883	-3.250291336086956	6.349094355028986
O	-2.799723534731884	-5.015292806086956	6.564316705028986
O	-2.078317984731884	-8.436252186086957	8.021048305028987
O	1.0636847552681163	-10.032936326086956	6.472600045028986
O	3.534249475268116	-11.061379426086956	9.246000525028986
O	7.744462485268117	-11.549334026086957	-1.3183735749710137
O	4.139951205268117	-12.327908626086957	-0.30043403397101365
O	3.4011608552681163	-13.336677526086957	-3.781905214971013
O	5.184919505268117	-10.343165226086956	-5.117835324971014
O	3.1071999952681164	-7.663766126086956	-3.0078011849710133
O	-0.10627254073188364	-9.677913526086957	-3.7464108449710136
O	1.7849208852681162	-6.142985326086956	-7.425536104971014
O	-1.3775053447318837	-5.042426846086956	-5.601229064971014
O	-3.6211187547318837	-6.947720276086955	-7.891145484971013
O	-2.019887244731884	-1.7473052560869557	-10.043523764971013
O	-5.110823644731883	0.1838107529130441	-11.251993264971013
O	-4.353515914731884	4.008725213913044	-11.194767764971013
O	-2.026939144731884	7.917438283913044	-7.827638614971014
O	-0.9575331597318837	4.297640223913044	-7.114748584971014
O	-2.146205314731884	2.032871723913044	-4.188509304971014
O	-4.225249844731883	-0.9813334360869559	-5.453810874971014
O	-6.533902144731884	-3.7271286260869565	-3.969108674971013
O	-9.997679164731885	-3.054517966086956	-2.5588268249710135
O	-10.228761854731884	-6.594421396086956	-1.0701708449710137
O	-7.981707924731883	-9.525382016086956	-0.044305831971013565
O	-4.991343464731884	-7.048960796086956	2.1996845150289865
O	-7.384032704731883	-3.9120367860869565	2.0220031250289865
O	-6.880379624731884	-0.5576183180869558	0.3841320410289864
O	-7.703678514731883	3.163142403913044	0.6759467580289864
O	-6.444404124731883	4.818637453913045	3.9099723350289866
O	-4.859476994731883	8.034356973913043	3.0572998550289867
O	-3.929391994731884	8.770401233913043	6.565837195028986
O	-0.6849443247318836	10.730906873913044	6.387658005028986
O	2.640750045268116	10.747732173913043	4.710427105028986
O	4.354498435268117	13.594311773913043	2.8874725950289863
O	6.415079865268116	14.366884973913043	6.000786475028986
O	1.8046231852681163	7.563795613913045	-10.870342764971014
O	2.200327925268116	4.095430643913044	-14.888284464971013
O	4.355622985268116	1.969616083913044	-12.565398964971013
O	9.965639485268115	1.5589682939130443	-6.938965744971014
O	12.940440885268115	3.191846913913044	-2.3883180149710137
O	8.352516805268115	11.001604973913043	1.7172048450289865
O	7.212789675268117	8.193433773913045	4.095694315028986
O	5.756119405268117	6.198318633913044	1.3967499520289863
O	3.821586865268116	8.793543583913044	-0.4265607559710136
O	0.3842661452681163	8.631150623913044	1.1519058930289865
O	-1.5194407487318835	11.862853873913043	1.1402669710289863
O	-1.4638208937318837	11.475434273913043	-3.3597398349710135
O	-0.8567223262318836	7.711639133913044	-3.9647572349710134
O	2.528191245268116	6.025064833913045	-4.261861094971014
O	3.0939968252681163	3.214996983913044	-1.7077204049710133
O	5.6966495852681165	0.07630861091304408	-1.1942612549710137
O	6.979133395268117	0.1577440249130441	-4.589731814971014
O	8.200231495268115	-3.050411136086956	-6.206654114971014
O	9.203251085268116	-4.530017856086956	-2.9284754649710134
O	12.813547185268115	-3.3896034660869563	-2.2634987649710134
O	-13.418590014731885	-6.502760496086956	-6.635583224971014
