88

O	-0.6716045015982753	0.8545460739999994	8.508959068546552
O	-0.3481557425982753	1.5629825729999993	7.335058728546551
O	-1.5231059485982754	1.5779997419999994	6.615004978546551
O	-1.5188148985982752	0.37319150799999945	6.121575908546551
O	-1.7722198095982753	-0.4999389520000006	7.171426208546551
O	-1.8885045945982752	0.10065399799999941	8.454856268546552
O	-1.9079989525982755	2.9142147879999993	6.751847918546551
O	-0.9663010485982753	4.015085657999999	6.507096208546551
O	-0.025516790598275385	3.4024169779999993	5.5220211685465515
O	-0.8081977605982753	2.4664957679999997	4.843629378546551
O	-2.2198397455982755	2.8727789379999993	4.620389238546552
O	-3.0053812605982753	3.0478937079999993	5.8330550585465515
O	-0.5243324005982753	1.9047106839999994	3.5245779085465516
O	-1.2183518665982753	0.8578526089999994	2.965303638546551
O	-0.9808549015982753	0.3724336579999994	1.7083989485465516
O	-0.9293606655982753	1.3579715323999995	0.7156385235465514
O	-0.12001404059827525	2.3431323519999996	1.1965605625465514
O	0.06377781940172467	2.5945380979999992	2.5045365285465513
O	-1.3060365939982754	-0.9717839020000008	1.3149800185465514
O	-1.1876028795982754	1.0342622089999993	-0.6972791754534485
O	-0.27749992059827533	1.1431872239999994	-1.7163046414534484
O	-0.5692394195982753	1.2591556959999994	-3.048958241453448
O	-1.6553105385982754	0.4848149509999994	-3.4447274514534483
O	-2.5067140005982753	0.034364277999999304	-2.4777708914534484
O	-2.420167640598275	0.6350223489999994	-1.2148664214534486
O	-2.3418861805982756	-1.5707911220000006	1.9295801685465515
O	-2.4856573205982753	-2.8626327720000004	1.6053607885465515
O	-2.0878034305982753	-3.290878662000001	0.41592361154655155
O	-1.1368400845982753	-2.684811162000001	-0.27107084345344845
O	-0.9743960255982753	-1.3913473520000008	0.07440519554655153
O	-14.160557610598277	-1.7215355120000004	1.9836992885465514
O	-12.121303110598276	1.3326913199999995	3.0800569685465513
O	-8.803759230598276	0.7516131319999994	4.950215048546552
O	-2.4826248705982756	5.737810007999999	1.0170779575465514
O	0.3049181094017246	7.988188097999999	-0.5126528624534484
O	-1.5703181385982754	10.715959777999998	-2.5053754714534486
O	-4.859794600598276	8.773084938	-2.3986529714534486
O	-7.451323410598276	6.617671337999999	-0.5646715094534485
O	-7.348062090598276	2.8529685879999995	-0.1429423384534485
O	-10.034914440598277	0.18503170799999946	-0.20870852445344845
O	-9.822309250598275	-3.557447742000001	0.16804654084655152
O	-6.456257820598275	-6.870395742	-3.1109757414534487
O	-5.884669240598276	-3.347307572000001	-2.0966311114534486
O	-7.019057540598276	-0.6539023920000004	-4.514013601453449
O	-5.805460550598275	2.9675516779999995	-4.261190131453449
O	-7.582120570598276	5.849264738	-5.976608211453449
O	-5.220305620598275	8.724955188	-6.636087011453449
O	-6.598013020598275	12.020087078	-5.194051011453449
O	-3.9040702305982755	13.246840578	-10.033520341453448
O	9.195008589401723	-7.758931792000001	-0.5262696304534484
O	8.278348849401723	-4.677747522000001	-2.609624001453448
O	4.751758119401725	-3.5063474920000006	-3.465767971453449
O	4.173715899401724	-3.783931442000001	-7.185243371453448
O	1.2117092694017249	-3.5360570320000004	-9.538122031453447
O	-1.4283143695982754	-6.171226102	-9.920779341453448
O	-3.621455820598275	-3.9457438820000004	-12.113613741453447
O	-4.117990630598275	-0.2885671120000006	-12.976408641453448
O	-6.721005610598276	3.4373600379999996	-9.653189411453448
O	-3.7697895205982754	1.2071996109999994	-8.697552171453447
O	-4.121126960598275	-2.4332379520000007	-7.465568231453449
O	-1.7417165925982754	-4.435502192	-5.419714411453449
O	-1.6728961355982754	-7.204568002000001	-2.7814892614534488
O	-3.6663938005982755	-6.882061452000001	0.4213361705465515
O	-1.2914399718982754	-7.437248402000001	3.3760644285465515
O	-3.598151380598275	-5.811213072000001	5.976007808546552
O	-1.3668996005982754	-4.463784692000001	8.698484538546552
O	1.7390754894017246	-2.4954752320000004	9.363499688546552
O	4.845608259401725	-3.2993615720000005	11.367644458546552
O	3.6236204094017244	-1.3665984920000005	14.366284958546553
O	0.3508192494017246	-3.509112192000001	14.276747758546552
O	2.5102140794017247	-6.543519162000001	14.437333158546553
O	13.467939089401725	-5.495260882	-0.45020445945344845
O	12.800529789401724	5.104128147999999	-0.03235499245344847
O	10.762834889401724	7.827229817999999	4.409891878546551
O	7.194777789401725	0.9557293899999995	10.423399758546552
O	4.004554399401725	2.4361307779999994	8.967929198546551
O	4.6478152494017255	1.8012082549999993	5.424901048546551
O	5.963848729401725	-1.7229199620000006	5.8553565885465515
O	2.8621703794017246	-3.816943792000001	5.033460308546552
O	2.9218776094017245	-7.254999592	6.7874608585465515
O	6.544968529401725	-8.118257132	4.448346088546551
O	6.454943809401724	-5.658815842000001	1.5105176085465515
O	7.958024679401724	-2.1659452820000005	1.3594017485465515
O	5.4604381594017255	0.5268840159999993	0.4508851965465515
O	5.633194119401725	4.191391787999999	-0.8037021814534484
O	9.253381689401724	4.060678277999999	-1.8356718814534483
O	7.983069619401725	9.170064067999999	-3.646930321453448
O	9.342936889401724	11.452243878	-0.8757621614534485
