99

O	3.229607766155883	0.26141847576470567	-2.625493678192647
O	1.7048677161558827	3.9964203377647056	1.6955511318073528
O	0.5987501261558827	4.519854247764705	2.278426281807353
O	-0.22444780894411726	3.518270977764706	2.668669521807353
O	-0.20805935984411725	2.1907066677647054	2.204895691807353
O	0.3681263391558827	1.9161755427647056	0.9979739218073527
O	1.2851483861558828	2.9653527777647057	0.7666546918073527
O	0.6256697521558827	0.5469997297647057	0.7825442018073527
O	0.15680689615588278	-0.5407689222352943	0.7417416318073529
O	1.6617527161558827	0.5518973577647057	1.7265611718073528
O	2.664977196155883	0.0011430277647057618	0.9980523718073528
O	3.269172276155883	1.1745911160547056	0.6692807518073527
O	4.239963826155883	0.9131398317647057	-0.3751572422826472
O	3.7670644061558827	-0.2444020922352943	-1.1092765911926472
O	3.485767466155883	-1.4298605222352943	-0.46742076419264716
O	3.1293740261558827	-2.7113017522352942	-1.1726605691926473
O	3.085891416155883	-3.803901422235294	-0.4456552826926472
O	2.8435211161558827	-5.100565062235294	-0.7780733961926471
O	3.5416213661558826	-6.169261912235294	-0.2945991372926472
O	3.189207906155883	-7.514816312235295	-0.6399706991926473
O	2.6459683161558827	-7.794162252235294	-1.8527350981926471
O	2.0771067961558827	-6.7382165522352935	-2.398651778192647
O	2.191520396155883	-5.401085032235294	-1.9206616181926472
O	2.707073356155883	-1.2656106322352945	0.6403780218073527
O	-1.4539785938441172	3.7661826977647057	3.165743351807353
O	-2.6416222338441173	3.6911839477647055	2.529082261807353
O	-3.946680153844117	3.6812279677647055	3.213476081807353
O	-3.505691243844117	4.158210227764705	4.398595621807353
O	-2.865077643844117	2.9213983977647056	4.723129291807353
O	-1.434131873844117	3.404368197764706	4.491032211807353
O	2.519946506155883	4.761798847764705	0.9624826918073528
O	6.6067862961558825	-2.134632862235294	4.204383661807353
O	5.491720096155883	0.6944557777647057	6.326304411807353
O	8.436821546155883	3.2222014377647055	6.643619801807353
O	10.437383806155882	1.3805222357647056	4.045253851807353
O	11.645250306155884	-1.8686967322352945	2.448169491807353
O	9.809648206155883	-3.880762422235294	-0.21282648619264719
O	11.019865706155883	-5.914880692235295	-3.118113388192647
O	9.195670956155883	-7.9510529922352955	-5.718643058192647
O	4.9198967361558825	-5.728133862235294	-8.953099518192648
O	5.981864226155883	-4.724454942235294	-5.604105988192647
O	8.340822996155882	-1.7912206322352944	-5.176236248192647
O	8.813622646155883	0.021924267764705574	-1.8034852681926472
O	11.828512006155883	2.2997715077647056	-1.107256347192647
O	10.953084106155883	4.846330017764705	1.5869957418073528
O	13.602710306155883	4.782497767764706	4.399902461807353
O	4.384057146155882	11.138448237764706	6.495812611807353
O	6.1435949861558825	10.846849567764705	3.062658391807353
O	3.6843763261558826	13.317059967764704	1.6592220218073528
O	0.7416604161558829	11.720696567764705	3.362734461807353
O	1.4295582961558828	8.223555227764706	1.934825771807353
O	2.178119036155883	9.714621257764705	-1.6687665881926472
O	-3.109123983844117	8.692374057764706	-0.2676525571926472
O	-1.6786931538441172	6.1604296477647065	-2.745152458192647
O	-2.2914502238441172	8.528351427764706	-5.584698288192647
O	-6.965795883844117	5.337158387764706	-4.3485553181926475
O	-8.435818493844117	3.6510029277647056	-7.318970508192647
O	-10.344638793844117	0.48763574376470564	-6.196432088192647
O	-9.617897613844118	-3.9467576522352945	-2.921142158192647
O	-7.341255023844117	-1.0483176222352943	-2.011210318192647
O	-3.529168633844117	-0.7970764622352944	-2.719790738192647
O	-2.9414778238441173	2.0410953297647056	-5.209755618192647
O	-0.10737731284411725	3.3710213177647055	-7.369182008192647
O	1.1690138861558828	1.7306455587647056	-10.446520678192648
O	4.2174340661558825	4.043673817764706	-10.565865878192648
O	6.278347906155883	6.3840919677647054	-8.389720828192647
O	6.481824486155883	3.5742977677647056	-4.8950734481926474
O	5.107839236155883	0.6812615657647056	-7.164202278192647
O	1.9523791261558827	-1.3815696222352942	-6.743796718192647
O	0.5083419621558827	-4.839593522235294	-7.352122598192647
O	2.257965066155883	-7.841361352235294	-5.885774398192647
O	-0.33107152244411725	-9.988310632235295	-4.057314448192647
O	2.1995940261558826	-12.195485832235295	-2.373101008192647
O	0.7381278261558828	-13.181821532235295	1.0369358318073527
O	-1.0315805718441173	-11.703742832235294	4.041111481807353
O	-4.212056893844117	-12.986403232235295	5.635530501807353
O	-12.624378793844118	-1.7311646322352945	0.15256148780735285
O	-14.548292293844117	3.1521093477647057	-0.5862507491926472
O	-11.862919293844117	4.3020703577647055	1.8680963718073527
O	-9.986951503844118	8.182394177764706	5.501162251807353
O	-9.884763863844118	5.750093537764705	8.418075131807353
O	-7.6200003838441175	2.6110076877647055	8.768670971807351
O	-4.672051883844118	-0.5447318722352943	12.572474121807351
O	-4.3281012438441175	-9.638742932235294	9.139253361807352
O	-0.7779585968441172	-8.489105622235295	8.238386941807352
O	-1.8741875538441173	-5.598050832235295	6.158597981807353
O	-4.453380773844117	-7.315387252235295	4.154014771807353
O	-2.606114093844117	-8.365355042235295	1.0646836118073528
O	-4.178955603844117	-11.496692532235295	-0.46766154009264715
O	-7.725357133844117	-9.039639932235294	-1.3340593181926472
O	-6.378150933844117	-5.435644102235294	-1.1330734381926473
O	-6.286815373844117	-3.4229237822352947	1.9756266918073526
O	-2.690153633844117	-2.043967562235294	2.674022801807353
O	-1.0845684228441173	0.2560076847647057	5.388017641807353
O	-4.5729660938441175	2.1612839177647056	6.069771841807353
O	-4.3674301738441175	6.250236387764705	6.842017841807353
O	-0.7684121448441172	6.134053417764706	8.352274811807352
O	-1.2165798548441173	5.175101017764706	12.025998921807352
O	-0.10999815884411723	6.159350637764705	-14.797555778192647
