27

O	-1.7976304011428306	-0.9613804910672409	20.790138431940438
O	-2.6573383019002215	0.01057214657644745	21.44957014006053
O	-1.9445612692646363	0.39325015471413716	22.589214279893014
O	-2.310679029492098	1.8100018302502892	22.48352143114244
O	-2.929883291044676	2.142935951229111	21.41322134868527
O	-3.3672819851378697	0.9960747697969463	20.874489008024497
O	-3.4971842931451604	0.9890241576418464	19.445150069071456
O	-4.86442268223227	0.8735331381633471	18.933400984998492
O	-5.382831647524193	0.9489974301534088	17.6287383187648
O	-4.999668345961541	2.103308709636786	16.97642586767971
O	-3.7956179039877505	2.599102210118649	17.391139533828593
O	-3.540564513803406	2.3009425789176072	18.744878786397436
O	-1.4005102080302203	-0.19444900924344322	23.81993022371977
O	-1.1080019569740462	0.7745272689969989	24.643272711544185
O	-2.258510127128405	-1.1853598565768926	24.585145426962477
O	-3.5855467241727452	-0.8544496588580522	24.133284976019226
O	-4.163733247866426	-1.1165601649407133	25.502634872559668
O	-3.7041950222100857	-1.9432587371620378	26.486438735079425
O	-2.436982524284165	-2.1706597639112744	26.953934135695075
O	-2.281020046321082	-2.2870036064676076	28.30105509219181
O	-1.9933217055514711	-3.0295613529820953	29.499543972270864
O	-2.6864192251435766	-2.9950207090239847	30.772194044108886
O	-2.5213819137173323	-4.053331245059022	31.612730656514486
O	-2.2552913198332902	-1.643731567090017	31.396152802659422
O	-2.5009051342727613	-0.8124791935005318	30.156220935502915
O	-1.7289772496733868	-1.6177776131437556	25.874372944165394
O	-5.516012138658418	2.234831130532755	15.70842568519399
