106

O	-4.566541607301449	-2.8964961693623184	-1.095904699559422
O	-3.8990188473014493	-1.8474788993623181	-2.0265887261594218
O	-3.710423427301449	-4.027378719362318	-0.9900984131594219
O	-5.064375457301449	-2.7445222993623184	0.21287190484057805
O	-4.870382887301449	-0.6928453493623181	-1.8297609681594218
O	-4.252920287301449	-3.163414359362318	-2.820778525159422
O	-2.666766119301449	-3.4518293993623184	-0.044738485159421915
O	-3.928183437301449	-4.333475959362318	-2.276722975159422
O	-4.176585497301449	-2.7501649593623183	1.2483842048405782
O	-6.269605647301449	-1.5021808493623183	-2.351126995159422
O	-5.464008097301449	0.11743924763768177	-2.884028235159422
O	-2.952049767301449	-2.423053999362318	0.861129104840578
O	-5.673755567301449	-1.8380311093623183	-3.6849449651594215
O	-5.486845377301449	0.12109816163768183	-4.332953105159422
O	-2.7085890893014493	-0.951190009362318	1.178476194840578
O	-6.030563557301449	-1.2114040993623183	-4.915576545159422
O	-1.7893533745014492	-0.2037471293623183	0.5882365848405782
O	-3.175210937301449	-0.5730736793623181	2.5189755248405783
O	-1.0382209603014492	0.5128288416376818	1.474807174840578
O	-2.550489781301449	0.34086352863768177	3.290184284840578
O	-4.322154687301449	-1.328772999362318	3.116532274840578
O	0.0575987626985508	1.2663757626376817	0.7494569148405781
O	-1.3118213623014492	0.7065975516376818	2.757600094840578
O	-0.09428970730144903	2.7064318806376817	0.9176567148405781
O	0.5030678826985511	0.9899432917376818	-0.3875556121594219
O	-1.3304902563014491	2.5569334706376816	0.267748664840578
O	-1.402934465301449	2.081031310637682	-1.1109389610594218
O	-1.999018078301449	3.741442380637682	0.37418889484057805
O	-2.553219083301449	1.790365526637682	-1.975181481159422
O	-3.174305267301449	2.7398840406376817	0.463278994840578
O	-2.144978852301449	2.900625640637682	-3.016783765159422
O	-3.3714760373014494	2.1585294206376817	-0.9160360111594219
O	-1.2210528743014493	4.090027490637682	-2.968437975159422
O	-1.257975828301449	2.2153575406376818	-3.962452715159422
O	-0.9715605773014491	4.470676620637682	-4.394864295159422
O	-1.6720886907014492	2.840508270637682	-5.303663505159422
O	-2.197375907301449	4.139429760637682	-5.100922545159422
O	-13.432403487301448	-5.385412809362318	3.3275927848405775
O	-11.471296817301448	-5.541653769362318	0.10158539484057805
O	-7.571514817301449	2.608722890637682	-0.3178179481594219
O	-5.718802547301449	6.185431730637681	-1.2649489351594219
O	-7.5466385073014495	8.501701380637682	0.9147674648405781
O	-9.11354735730145	5.646648150637682	3.0537620348405783
O	-10.964775967301449	2.1816918006376818	3.5800943148405775
O	-9.23090336730145	-1.2748460093623182	3.5651016448405777
O	-9.865755837301448	-4.500146409362318	5.035093794840578
O	-8.08478130730145	-7.781435519362319	5.080415664840578
O	-2.537446872301449	-8.200589849362318	6.453496164840578
O	-4.232047407301449	-5.321246379362318	4.802159004840578
O	-5.311874137301449	-2.518390459362318	7.103728894840578
O	-6.1775146173014495	0.9128302736376818	5.7444108048405775
O	-8.106561517301449	3.5431328306376817	7.787214424840578
O	-7.341285047301449	7.102354130637682	6.549460384840578
O	-10.618929987301449	8.988280200637682	5.769615124840578
O	-1.1122333713014492	14.369496820637682	2.381631064840578
O	-1.5464838053014491	12.264846620637682	5.601904194840578
O	3.252655792698551	12.555186520637681	3.177020054840578
O	1.8209351126985507	9.010168280637682	2.999166224840578
O	2.898785282698551	8.106277040637682	6.504691164840578
O	6.40697886269855	7.462104970637681	2.3622121148405784
O	5.187709862698551	4.260780840637682	3.792649954840578
O	10.050408312698552	2.254578330637682	2.2463528848405785
O	11.843060712698552	-0.9113216993623183	3.130854304840578
O	12.151427112698551	-3.2434013393623182	0.08188471484057813
O	8.948123312698552	-5.2149969893623185	-4.007321635159422
O	7.66186216269855	-2.008572649362318	-2.3569613951594217
O	4.625843092698551	-1.7408220693623182	0.02719036484057802
O	5.852266582698551	-0.5662134993623182	3.362863254840578
O	4.498625372698551	-0.3332362493623182	6.860536884840577
O	3.9148257226985503	-3.2964003893623186	9.043971344840578
O	2.147763862698551	-1.2019274493623184	11.645012344840579
O	0.49130635269855083	2.126723260637682	12.163726544840578
O	-4.658972507301449	3.154168110637682	10.448363444840579
O	-1.854515800301449	1.8705013276376818	8.257235764840578
O	-1.014723734301449	-1.8542026093623183	7.919549384840578
O	0.8104935126985511	-3.651047189362318	5.270350794840578
O	1.068321222698551	-7.093944659362318	3.6099481848405777
O	-2.053054031301449	-8.436513479362318	1.8962885148405781
O	-1.188824149301449	-9.522937379362318	-1.5914206461594218
O	-4.781521597301449	-9.865550179362318	-2.708822705159422
O	-4.945155567301449	-8.893579309362318	-6.389708655159422
O	-3.701591717301449	-6.485720969362318	-8.959206065159421
O	-1.7524416845014492	-7.291929279362318	-12.179510155159422
O	-4.946911047301449	-7.015341649362318	-14.226601255159421
O	11.362738512698552	-1.915637859362318	-6.723890645159422
O	14.87719061269855	1.6194529126376818	-4.886747555159422
O	12.01630411269855	4.167421020637682	-4.957826195159422
O	5.749673062698551	7.163821600637681	-8.592573105159422
O	1.223680112698551	7.138118590637681	-11.892986555159421
O	-1.0701831033014493	-2.7060204293623182	-13.654130755159422
O	-3.6510357473014494	-1.6881878793623182	-11.00393454515942
O	-0.8693671773014491	-0.6936310493623181	-8.504672865159423
O	1.2412077226985507	-3.632765599362318	-8.710417365159422
O	-0.16205635730144907	-5.8163417293623185	-5.872096575159422
O	0.4965659126985511	-9.389618279362319	-6.710484655159422
O	-0.07229020730144908	-12.520956179362319	-4.598970175159422
O	4.931450232698551	-8.388766599362318	-6.563879385159422
O	4.988666312698551	-5.115706659362318	-4.520951345159422
O	4.839291152698551	-1.6255957693623184	-5.973762555159422
O	2.237115982698551	0.19742374463768175	-4.154384715159422
O	1.476168932698551	4.225272840637682	-3.5693374151594215
O	3.9089110326985503	5.664912570637682	-5.156614715159422
O	4.56179465269855	9.253206930637681	-4.234908265159422
O	1.0226547926985508	10.402301580637682	-3.8074934451594222
O	0.06063332269855093	11.882442020637681	-7.196998725159422
O	8.082002492698551	-2.175391049362318	13.637479544840579
