32

O	-2.4693211719773696	-0.026549468903537266	22.52804250988435
O	-2.1776104686375257	1.2677084093710635	22.571675305930746
O	-1.8657845520814786	1.9015163628672807	21.445722665994584
O	-2.1115679625999504	1.2844082831329722	20.303944723450627
O	-3.0094426075361365	0.32329219212047633	20.308384948979032
O	-3.031039032094861	-0.4290125599491783	21.413870906951242
O	-3.0261917942670373	-1.7549455370476323	21.45626812222436
O	-2.7693653534655684	-2.2548544210836106	22.646121061211687
O	-2.6903284534686094	-1.1146316358348645	23.34304090079241
O	-1.8593863603934602	-3.371351275908496	22.97464833901119
O	-1.0362616093199377	-3.2711029811919503	21.967093548572844
O	-1.664974936600247	-3.2151617175816685	24.292609554515757
O	-0.4359750999639709	-2.7599925424730047	24.97985367282984
O	-1.0907687014711858	-1.5021932438352912	25.71683956029557
O	-0.5378187394590515	-0.23024059396802876	25.17869643585155
O	-2.461269740763228	-2.470917489689054	20.305600710183946
O	-3.9761664303053212	0.08345137177530959	19.32956667187498
O	-4.045992573060824	0.9259602070037047	18.150381706744216
O	-4.929629761758316	1.1501415842745089	17.08807063027098
O	-4.599438598665705	0.9335227796664507	15.737483055580556
O	-3.3949671839845683	0.19929711914743664	15.695759052819104
O	-2.4889127027834426	0.2433907643673181	16.692853872177224
O	-2.8539516140484062	1.2225156408672668	17.67364042170382
O	-1.1624336556943249	0.7559781610737675	16.86630645264453
O	-0.5324580059197173	0.4401631328196629	17.82039288074094
O	-0.9883394716955163	1.8190034906664194	15.877865230646528
O	-0.6510326316881774	1.9461049614223973	14.593760196805526
O	-0.7084745555983254	1.6868357078896898	13.277422627894362
O	0.33713226258296247	2.4377224829903086	12.848498357225036
O	-0.25799127402808164	3.5700938928802084	13.098761313458255
O	-0.5244102291442339	3.381122313809098	14.407170010944034
O	-6.279647367113968	0.7613097290229023	17.499372753997587
