30

O	-1.1427932623732953	-1.3920145261389938	26.29597935414397
O	-1.6566526739218848	-1.0908163499347143	27.579305527673107
O	-2.1862110570956883	-2.4073062716821245	28.2862877097352
O	-1.82040297614752	-1.2986794111283222	25.05291235298001
O	-1.566243014231889	-0.19508998074946637	24.18115584207846
O	-1.5669371472799323	-2.1380610969007328	22.712513464522882
O	-1.9244256424694983	-2.3735627622157383	24.11246367450422
O	-2.3309687635831207	-1.1091401999664123	21.994753694215248
O	-2.357394931253542	-0.059096162431715005	23.03014804912774
O	-2.1240084190778714	1.142207994218922	22.278305047101693
O	-3.288916621937282	1.3275964503577062	21.49680775380764
O	-3.1653172738277537	0.48958831680358594	20.260354846207992
O	-2.317644456691899	-0.6453243726702664	20.622279344250167
O	-3.261420563155998	2.618670932410689	21.01046302807322
O	-4.327924605603658	0.40955881031814956	19.628774419698868
O	-4.658197896054579	1.034015522930179	18.454825975329474
O	-3.5593960964751337	1.2140229455687785	17.467396118010313
O	-3.999767756569797	1.5454439594017002	16.08675652462062
O	-5.238127094915384	0.9314416310501616	15.553196993687354
O	-6.207677621474147	0.4019211644023195	16.54476669552102
O	-5.59963985433838	-0.018042399027976108	17.826721735776633
O	-1.678632394823475	2.0646848857170443	23.26560204951131
O	-2.9218715907219623	-2.028893741065904	29.494460448650734
O	-1.0001683411499795	-0.6449623013100989	28.851001345143956
O	-2.42784611170198	-2.2720929575682125	30.741125242666847
O	-2.4473818156758314	-3.700001741515461	30.726131965901732
O	-3.9254435279227025	-3.7866100501029587	30.644338574463042
O	-4.0115344737185	-2.935828078215993	29.45449833007092
O	-4.690255710258075	-1.069675862959666	17.751010835746925
O	-5.108808046749534	0.04686786520600483	14.53121267788658
