39

O	-1.4462551350795254	2.0314110444796727	16.330404196929397
O	-0.41348878407918066	1.5985587960983134	16.811865549624088
O	-2.5743471916711984	1.3383807740293971	16.67138250540989
O	-3.190293679411304	1.008009680896068	17.74802449162157
O	-3.629061836527064	0.3911518627538908	18.86191289601056
O	-3.4763197098541867	1.0217222960426782	20.06730132006271
O	-2.5894912031385293	2.014285221907834	19.82784259768266
O	-3.2094294191375017	2.9017524541193236	18.953436414327534
O	-3.74815844440206	2.286479416193127	17.87463761744473
O	-1.5217923791866286	3.162402783011493	15.596365066238791
O	-0.3599365612552504	3.266005661870639	14.846852877559943
O	-0.3433664482997809	4.272004591106123	14.049777923239436
O	0.4922715580688588	4.072769483923026	13.121880136844208
O	0.951142937543588	2.821605604140788	13.182368358462451
O	0.4035654402885256	2.283639250275934	14.306373370998001
O	-1.5080124380848656	4.998558195439495	13.755691565941953
O	2.0896656236657702	2.3105793196867177	12.557334305142568
O	3.267482913654885	1.7032646375700566	13.221801664200358
O	2.6239987703571956	3.253226944987917	11.567779194302574
O	2.211384518540918	1.1650305958594545	11.662882671610141
O	-2.5719433865547954	4.056842113962579	13.461977974485071
O	-3.6294178042444694	4.771782507653519	12.992344871305379
O	-3.2532190469345093	6.159680517779654	13.20034202361505
O	-3.2027039220909583	6.160627933032559	14.630731564435726
O	-1.9163008886172521	5.663869181972946	14.950243152665275
O	-4.38287327711498	6.86090508502175	12.883389302108942
O	-3.4006984684897374	-0.8800945560555942	19.095963068921954
O	-3.44475327972531	-1.4769597511479036	20.435909629501097
O	-3.604827250637765	-0.7666704074092434	21.586945425347224
O	-3.4243641205971604	0.5636986355374768	21.330377933613313
O	-1.3497780667795898	2.233262680481384	20.269612708891557
O	-0.47946765533188307	2.9654184311178655	19.36033848575801
O	0.5959747096540178	3.758597785865387	19.123746459892175
O	1.492035722206635	4.747277880194714	19.088989735852962
O	1.7125313194606457	6.123182364920146	18.541654780762766
O	2.7123232922167477	6.712648639443409	19.629107659761893
O	3.944604905801946	6.285776503134918	19.175583566765088
O	3.729706871151311	4.982482115739091	18.88859068777571
O	2.5311922735782355	4.705327409834407	17.92836371243132
