29

O	-3.0930575779835534	-1.9195741003888072	26.95853761991956
O	-4.122990874426639	-2.8340638820514084	27.54930338237244
O	-3.0281846267017336	-0.7239916776902915	27.819628745413247
O	-3.8515079013758875	-1.0967042900506319	29.43424772617135
O	-4.953325818284818	-2.044610371514473	29.578537613767477
O	-2.9568976501937527	0.6596405305274129	22.728886179386663
O	-3.1342191794283267	1.0534548951570761	21.417185133172428
O	-3.3469532895522867	0.2091608007850787	20.232443025222146
O	-2.120344418220986	-0.73398043743197	20.295609978790004
O	-2.038254059486534	-0.4232350583735123	22.699093452585487
O	-2.3966311809601644	-1.2939412014810243	21.609525416297576
O	-2.326458784050147	-2.6496821129666976	22.089063616367323
O	-2.352419396755125	-2.9552044755591305	23.47285973106752
O	-2.59315226725842	-1.9818463845802698	24.46825105948585
O	-1.9631863118856083	-0.8171832569861204	24.024398127589564
O	-2.185719399646662	2.0017599490279085	21.159029134007874
O	-2.3522290995844606	-2.216872217351982	25.835469300981345
O	-3.0217332271625796	0.9964347380766554	19.159912522123303
O	-3.9485687513963748	1.1471090506761372	18.170611113408107
O	-2.223508145258724	1.6017271343725106	23.575626237939414
O	-3.1644407116340965	1.861393298198437	17.13778728470266
O	-3.9505454505733906	1.9791715318324983	15.89234126529255
O	-4.008885292731051	0.6241619347093927	15.255666115545939
O	-4.854724262603041	-0.19891026347096563	16.169635136274454
O	-4.537468913389107	-0.04918396462382879	17.59278667896409
O	-3.69762334903169	0.20249102876900493	30.188284854516358
O	-2.3646736417355223	-2.0159752540823215	29.93390145434476
O	-3.8694904804410957	-1.0664814403497862	18.220297790008786
O	-4.645665819644682	0.7204763429617003	14.04783435746898
