19

O	-3.2668548491637406	0.6113621282807307	20.485466863940214
O	-1.3508427550562114	1.947654982200399	24.10733541798605
O	-3.2340685049209084	1.907089477998572	20.709909341034248
O	-2.9908480717049954	2.254187865017573	21.9897419560145
O	-1.8639293748765733	1.5932738094109273	22.353728974109828
O	-1.724638837551288	0.2662629530871845	22.20288042870603
O	-2.8701320984646133	-0.1683614069144833	21.50602769838919
O	-3.513361821907858	-0.16925941907300027	19.281307573640206
O	-3.4069299658356478	-1.3083857731203181	22.191540182208968
O	-2.4540747140968033	-0.2069763653798311	18.365050368568546
O	-2.620628006055295	-0.12308396177571712	17.008966130818564
O	-3.7084008363180443	0.5404885238510736	16.538877366221634
O	-4.827723564782388	0.47905278752892777	17.30433031101636
O	-4.714586510812951	0.0043267921750584915	18.61712095132194
O	-2.5632379450936504	-2.3481396297109915	22.34765415176641
O	-2.9700940298046863	-3.184433461438437	23.34320664948435
O	-2.752450809083885	-2.631209892786319	24.576531196987077
O	-3.5652289084084505	-1.552706449571505	24.658052136639586
O	-3.879548903301745	-0.9297679168589565	23.48751825835634
