26

O	-2.384150697419525	-2.179341396474447	23.589845650012833
O	-1.349891192650815	-1.4198253736475515	24.235369619230617
O	-1.5388867289614214	-0.05984194412337429	23.871844580016127
O	-2.2212497598567906	-2.325201324998445	22.15100221222246
O	-2.015944280801398	-0.963957912764198	21.576392524674855
O	-2.2515177117736718	0.04062164940372337	22.637533699029085
O	-1.8306550982213639	1.2822929253553987	22.079784159317388
O	-2.270698762640876	1.5548488693335363	20.758891041396208
O	-3.422170326359309	0.5825253166981008	20.468017150769537
O	-2.5881794074937314	-0.6876722456796529	20.240902674278484
O	-3.9447706089753387	1.0629745354806075	19.251241284980715
O	-2.8246174850235604	0.7844188888825889	18.438027707029928
O	-2.935606317793196	2.7445436966431425	20.89909205789078
O	-0.4959902814393833	1.5904295691016517	22.453698551830445
O	-3.3426770917091537	0.41498303857576	17.12672900718844
O	-3.839963105877187	1.473633798731217	16.20019369581781
O	-2.8751548786769323	2.6544690347340243	16.324756553944628
O	-2.958605108575639	3.031720068159391	17.755436443625523
O	-2.0300097313706367	2.0422757524067094	18.460143471916993
O	-1.4846256672404026	-1.5728620238298976	25.640006803885235
O	-1.1032500591788819	-0.5728273998854435	26.55723904013473
O	-0.2529974064408229	0.5652639294857755	26.168597956845353
O	0.7690241659075476	0.9950787748499432	27.203413556268554
O	0.3156948497036258	0.9436979578992124	28.501726877329098
O	-0.1292791353725149	-0.3106066556116093	28.768862114329785
O	-1.1086660082425872	-1.0231778070620492	27.940578666463274
