38

O	-5.626239883309563	4.278964756123274	15.647562174282312
O	2.888802006237122	1.756553596826529	13.136963304532461
O	1.9420375807852703	1.083858454020178	11.4734783562667
O	2.6386587425091035	3.137378919071216	11.23267273481223
O	-3.332759325494428	6.498284326893826	14.481796787110103
O	-4.460931179877251	5.768927702940182	13.941013671853355
O	-2.3378285922909265	5.561877507562919	14.996504019251368
O	-3.739627013135622	0.5643753417199358	17.88220991036553
O	-2.394805760675207	2.455085342213942	18.459614350302544
O	-3.2578032082051425	0.06106953582698571	19.02866699369284
O	-2.0586747942084496	1.7416115688948512	19.564406276151143
O	-1.8781065036798947	-1.4720793051393026	25.455284803017868
O	-2.3653207823402207	-2.2853761030668487	24.46843223265849
O	-3.3543896039756147	3.8718090413217063	14.55787410135203
O	0.24636942781154247	2.3710102696933957	13.843031816150695
O	-2.0048178722129886	0.07433225583527725	23.698261049834862
O	-1.6363001660124408	1.9652480372614942	15.834131494084836
O	-1.7445930410758508	0.945831771769936	25.934875198973245
O	0.05874814240157322	4.1833970710994315	12.730675319965929
O	-2.9308460619890404	1.8773296610237464	16.273019506294837
O	-1.3238301223186166	3.2404239287534105	15.455525040141259
O	-3.060958282070464	0.8211293880997836	21.355165272442232
O	-0.6689427136189372	1.499089594932725	16.467094446599493
O	-4.54170795207301	4.539054227626137	14.653608544511046
O	-1.7902281927165404	-0.1464242495026764	25.05296504240706
O	-3.314714520375184	1.8307160657316652	17.608318527054372
O	-3.1915551802434745	1.0632610988631928	20.022381258079392
O	-2.250985751349117	4.681536966350267	13.846028991500061
O	0.762415529302982	3.012608961452732	12.749497602923878
O	-0.552706622310627	3.3244885452422426	14.37145040705447
O	1.8936538526543363	2.3613694155203895	12.185638872244237
O	-1.0408845499109982	4.108549589917496	13.410559855125442
O	-2.482004495795776	-1.4117784400120819	20.572499456114265
O	-2.3366047681674678	-2.670286755931291	20.97211599082231
O	-2.429919098061787	-2.968127769063703	22.269270311061277
O	-2.3699742401687502	-2.032901257909575	23.156486394892358
O	-2.6100407658463065	-0.7523036612352922	22.81804537938819
O	-2.4483962727965842	-0.4695697424643974	21.509363815590852
