103

O	-3.4771647839558826	3.210741712720588	-1.5850067334719118
O	-0.6551163129558826	0.7157980907205883	4.274930572528088
O	-1.5574753739558826	2.536717522720588	4.500397692528088
O	0.4917284210441174	2.349194192720588	3.906776092528088
O	1.9586929760441172	-5.457046437279412	-4.442328237471912
O	1.4743969560441175	-6.115298217279412	-2.9366492074719117
O	1.1813600360441174	-4.421101587279412	-3.782719927471912
O	1.0470198560441175	-4.806340357279412	-2.4696784974719117
O	-1.4846847639558827	3.527973212720588	-2.9046160574719115
O	-1.6708102839558825	5.088449732720588	-1.6152008174719117
O	-0.1827966729558826	3.092476222720588	-2.4299136774719114
O	-0.4066783210558826	4.650398532720589	-1.0297063674719118
O	3.3924285260441174	-3.6072311072794117	-2.8993034974719114
O	-0.4978182928558826	0.9734113096205882	1.1500814725280883
O	1.1414819060441175	-2.2758943772794114	-3.8718303774719116
O	2.1302739260441172	-2.268947847279412	-4.7968895574719115
O	0.21246316404411736	-1.9792423772794117	-1.808649275471912
O	1.0850705460441175	0.5575660087205883	-1.2556088244719117
O	2.4721297560441173	-6.237180307279412	-3.7067730974719115
O	3.644837216044117	-1.7141377572794119	-3.044337967471912
O	-0.3820806950558826	3.055659832720588	1.315985962528088
O	-0.2356864639558826	1.0211449607205882	-1.2949698874719118
O	2.0934086360441175	0.39992321072058823	-2.2197733774719115
O	1.2202155360441174	-0.21544430727941166	-0.29651231347191176
O	0.4765134800441174	-1.1123617772794117	-2.9610009974719116
O	2.7120040660441176	-2.333543047279412	-1.5398186534719116
O	-2.2915266639558824	3.9991557227205883	-1.8293369274719118
O	0.5325686010441174	-3.5084247572794123	-2.9969977474719114
O	3.3197504860441174	-2.5943530172794116	-3.809472057471912
O	0.1529011580441174	3.5257223827205886	-1.1012062164719119
O	-0.6721039049558826	1.5204551267205884	-0.0576721844719118
O	-0.6930884909558825	1.9904554927205882	2.038732812528088
O	2.7853114760441176	-0.8130654172794118	-2.354079977471912
O	-0.8201956969558826	1.875274402720588	3.4252275725280876
O	-0.08052725895588259	2.733836172720588	0.09713198052808825
O	4.443781016044117	2.256466532720588	-6.236527437471912
O	3.9015243460441176	5.289095272720588	-3.9441470574719117
O	2.5855079460441175	8.01792394272059	-6.336618427471912
O	1.8628772060441174	5.5269476627205885	-9.14279197747191
O	2.7763895460441175	2.438772832720588	-11.258888947471911
O	2.0559738260441174	-1.2359785172794118	-10.415918657471911
O	1.2592103360441174	-4.301164527279412	-12.39795974747191
O	0.7291670660441174	-7.836500357279411	-11.37098464747191
O	-3.236030133955883	-9.385736077279411	-7.496933647471912
O	-1.4050833059558827	-6.256613637279412	-7.741505387471912
O	-2.9592248939558825	-3.2394768472794118	-9.364057107471911
O	-1.6492526339558826	0.42378807372058824	-8.703389527471911
O	-2.6032680239558825	3.283917302720588	-11.163608447471912
O	-2.2396590839558828	6.650203682720588	-9.42545373747191
O	-0.038315011955882605	9.06188866272059	-11.468141947471912
O	-4.133919793955883	12.15263452272059	-9.049515147471912
O	-5.698567373955882	15.33343002272059	-1.0232943944719117
O	-2.9834133839558827	12.517972322720588	-1.1869322554719117
O	-5.319225483955883	10.623394762720588	-3.5536960174719114
O	-8.100504963955883	10.848473522720589	-1.0563137134719118
O	-5.750554893955883	9.880311322720589	1.6894640125280882
O	-4.494352333955883	6.601097802720588	0.04954686452808821
O	-8.070076373955883	5.708576012720588	-0.8272244253819118
O	-6.411728463955882	4.474530572720588	4.210210922528088
O	-6.7383508539558825	1.4787421597205883	2.108830912528088
O	-10.363397933955882	1.2837687677205882	2.6330262525280883
O	-7.406272983955883	-1.2849705472794117	6.925286772528088
O	-8.620494183955882	-4.779425727279412	7.532135062528089
O	-0.2291592519558826	-8.00177647727941	8.19235823252809
O	-1.4549059739558825	-4.736273117279412	6.678208942528088
O	-2.1471901939558826	-4.197807867279412	2.9497057925280883
O	-5.806165743955882	-3.2963926472794123	2.324525642528088
O	-8.137487013955882	-2.9245183472794114	-0.6935360484719117
O	-9.408003923955881	-5.786056787279412	-2.8036685674719117
O	-10.991258363955883	-3.418577217279412	-5.380786987471912
O	-6.230736263955883	0.5079274277205883	-6.443548447471912
O	-6.146570613955882	-3.352222747279412	-6.115621157471912
O	-4.643260573955883	-5.533110317279412	-3.3893438274719117
O	-2.8359101539558824	-8.910079667279412	-2.774457597471912
O	0.4688231370441174	-9.264221877279411	-4.753016527471912
O	3.1434002260441174	-9.96329407727941	-2.6178400974719116
O	5.540392536044118	-9.917762977279411	-5.006658967471912
O	10.043338036044117	-7.158418247279411	-0.6424955214719118
O	12.199773036044117	-7.930711907279412	2.5001871025280886
O	0.4920654300441174	-4.989962287279412	12.002060352528089
O	-3.3004896239558827	-2.222246727279412	14.474143052528088
O	-2.1668614839558824	0.7534127637205883	12.44792955252809
O	-2.1082600039558823	6.270322542720588	11.74921515252809
O	1.6340059560441174	6.389526832720588	11.694042252528089
O	3.8968188760441174	4.808003412720589	9.06700077252809
O	8.922560646044118	5.6542179927205884	6.712555552528088
O	9.109242346044118	1.9989667727205882	7.767262462528088
O	11.953150036044118	0.1743781887205882	5.868552312528088
O	12.680541136044118	-3.276130277279412	4.262145892528088
O	11.436073436044119	-2.1025149672794115	0.8413912425280883
O	8.039946616044118	-1.5001192472794116	2.230605422528088
O	7.467542516044118	-4.798709767279412	3.905900122528088
O	5.840670626044117	-7.071610097279412	1.1846680525280882
O	6.532095656044117	-10.714818177279412	1.570137152528088
O	4.306009386044117	-10.31924737727941	5.507934222528088
O	2.1802360060441175	-7.160483107279412	5.088050502528088
O	3.1313112360441173	-3.551277357279412	5.942039622528088
O	3.0289172260441175	-1.288323767279412	2.9035810825280883
O	3.3850361760441174	2.6577684127205883	2.076347872528088
O	2.3234588960441176	3.556284282720588	5.637628562528088
O	0.23164687804411743	6.729002512720588	6.152031032528088
O	1.4850762060441174	8.261554642720588	2.911132462528088
O	4.741387746044117	10.093232132720589	3.9950351825280883
