87

O	-2.6111835858196724	-2.1129725587786883	-0.12977922280983586
O	-2.0998974058196724	-0.8523993787786884	-0.054773897409835876
O	-0.8818771428196723	-0.4859831887786884	0.5364450815901641
O	-0.3328062198196724	-1.5015190187786884	1.2719159095901642
O	-0.5961127688196723	-2.7941639187786884	0.8180359395901642
O	-1.8243939658196724	-3.1139341087786883	0.33555661959016414
O	-0.2777381018196724	0.8237231662213115	0.5008441575901641
O	-0.060041284819672414	1.7419534412213116	-0.5317118954098359
O	0.6143200541803275	2.9443284112213117	-0.2960782591098359
O	0.7320313341803275	2.3429546312213114	1.9369429595901642
O	0.7369522941803277	1.0108636742213115	1.4737022495901642
O	1.5558623641803278	4.386482771221312	1.212605969590164
O	2.2800984941803275	5.109823831221312	2.2287120895901644
O	-3.1458802158196724	0.20685107322131147	0.08024258059016415
O	-0.10782536481967242	-3.8481663187786888	1.745599489590164
O	0.5864527241803277	-6.146230328778689	1.990757049590164
O	0.7094568941803276	-7.319291308778689	1.120069399590164
O	0.1519690021803276	-7.443818048778688	2.463474739590164
O	3.599136964180328	4.537881771221311	2.655832389590164
O	2.8003131341803273	6.468628471221312	1.7106922095901642
O	1.5962865941803275	5.428587431221311	3.493128829590164
O	0.8289124741803275	3.2830352012213115	1.031045509590164
O	0.9321715841803275	4.124446021221312	-0.8860818024098359
O	1.0431263441803276	4.988107771221312	0.15574551259016411
O	-0.4870125408196724	-5.190884608778688	1.675251439590164
O	0.9206644541803277	-3.5185397587786884	2.317068439590164
O	-7.577195035819672	11.883857701221311	1.4092088495901642
O	-5.885171425819673	10.136144261221311	4.386747489590164
O	-2.1703540158196724	9.364519481221311	4.184123429590164
O	-1.0519605478196725	0.8150885962213115	6.402356819590164
O	-0.42982666081967236	-2.7863778187786883	7.694784069590164
O	-3.588398345819672	-3.7661302987786884	9.689423639590164
O	-5.550802205819672	-0.8437905187786886	8.247627279590164
O	-5.9152600458196725	2.8240858112213116	7.283394259590164
O	-4.8396915158196725	4.319515031221312	3.954680729590164
O	-6.333758315819672	7.032884211221312	1.8428217495901642
O	-5.173141825819672	8.434657611221311	-1.4297248604098358
O	-7.830450575819672	8.669817831221312	-4.106420730409836
O	-3.7743233558196723	8.150885361221311	-8.541197880409836
O	-4.363760955819672	5.255392071221312	-6.174174220409836
O	-3.9392967158196726	4.251725461221311	-2.6143479704098356
O	-6.903526265819672	2.5547739812213113	-0.9500992274098359
O	-6.3716505958196725	0.5865803967213115	2.334845729590164
O	-9.397837225819671	-0.3586033807786885	4.523103789590164
O	-8.596525305819673	-3.3803001787786884	6.655227839590164
O	-9.274308555819673	-2.6623619087786885	10.381096239590164
O	-6.782856395819672	-10.888957398778688	5.979442609590164
O	-2.6969205158196723	-10.481192698778688	2.5780983495901637
O	-1.3673638898196723	-9.147107668778688	-3.1094281004098363
O	6.174632534180327	-7.0080588287786885	-10.590321660409836
O	8.989497804180328	-3.1446968587786883	-7.691764730409836
O	6.388705854180328	-5.003228818778688	-5.586423660409836
O	3.0030361941803276	-3.5956101687786886	-4.453985150409836
O	0.22272067618032765	-5.606143238778689	-6.091483040409836
O	-3.5493975758196727	-5.250701338778688	-6.460031360409836
O	-5.273544725819672	-2.8146679887786883	-8.719849030409836
O	-8.732633085819673	-3.5761256687786886	-7.270496140409836
O	-10.331666685819672	-5.104485238778689	-4.176756750409836
O	-12.189781505819672	-5.430553368778688	2.8272913695901645
O	-10.726036935819673	-2.4998105387786884	0.8254070195901642
O	-7.5413699958196725	-3.0532247687786884	-1.203303963409836
O	-6.367213615819672	-0.7278768587786885	-4.064629250409836
O	-2.830750865819672	-0.25713161677868845	-5.254218190409836
O	-0.5864821798196724	2.3741260312213113	-6.891173070409836
O	0.01904188218032765	5.533309151221312	-4.912438040409836
O	3.7367428941803276	6.169517401221311	-4.727875790409836
O	3.463298774180328	8.955839991221312	-2.186154970409836
O	6.605981064180328	8.831872861221312	-0.008879924409835871
O	8.838338784180328	6.451753981221311	1.8440119395901642
O	12.574082294180327	5.993393151221311	1.6307569195901641
O	13.039129494180328	8.09816124122131	4.761838579590164
O	9.533506594180327	-9.982441398778688	3.768746539590164
O	9.225056494180327	2.9651621912213115	5.892104559590164
O	7.731919844180327	0.32331403322131147	3.749868339590164
O	9.669485194180329	1.0192730342213114	0.6329616985901642
O	7.254909054180327	3.2727771312213116	-1.295100790409836
O	9.034621384180328	5.6504346212213115	-3.637360400409836
O	7.478932404180329	8.101190581221312	-6.137512420409836
O	10.382494094180327	1.9983155012213114	-5.809828650409836
O	7.903487584180327	-0.7444765687786886	-4.684186310409836
O	8.255472834180328	-3.0841246387786883	-1.7092235104098359
O	5.316234654180328	-2.9618263987786886	0.6575879195901642
O	4.0333187441803275	-5.169156328778689	3.5493565095901642
O	5.998424634180328	-8.26904570877869	2.5942046295901644
O	4.847284624180328	-11.750089998778689	3.758752659590164
O	2.921291324180328	-10.369069898778688	6.722920949590164
O	5.301609754180328	-10.301000598778689	9.725597289590164
