101

O	1.2467673217941182	0.7550215265647058	-0.5463638039941168
O	-0.057953184205882025	0.9697966545647059	-0.37049423999411674
O	-0.490932575205882	0.012809337564705814	-1.1403351419941168
O	-0.13215100320588202	-1.287125002435294	-0.17852039499411676
O	1.410605961794118	-0.5546986024352942	-0.009077426994116733
O	2.706350771794118	-1.0899630224352943	-0.3188169199941167
O	2.442964221794118	-2.1561713724352938	-1.3077997759941167
O	3.646828511794118	-0.2288613824352943	-1.0992938499941167
O	3.5426594617941185	-2.0478519824352945	0.28035809600588335
O	-1.656348963205882	0.14769869756470577	-1.8676876239941167
O	-0.8984157625058821	2.0908119995647056	-0.6076802019941168
O	-1.009148442105882	2.742907617564706	0.32570411600588334
O	-0.550821875205882	2.462145797564706	-1.8614513539941167
O	-2.641064458205882	-0.0007330224352941617	-1.1160495199941167
O	-3.391537768205882	0.8046021645647058	-0.3368157039941167
O	-3.145515128205882	-1.0194532124352944	-1.6273369089941168
O	-3.689734938205882	-0.2806936924352943	0.4779360160058832
O	-4.733445458205882	-1.0433940024352941	0.09172130300588333
O	-4.779525088205882	-2.3291791424352946	0.5428576760058832
O	-3.559804468205882	-2.796753812435294	1.0447903060058832
O	-2.763984698205882	-1.9316219524352942	1.5826457560058833
O	-2.702267978205882	-0.7055777624352941	1.1828251060058832
O	-1.556157940205882	3.361748117564706	-2.1704726639941168
O	-0.46575886220588203	1.5622501515647058	-2.9239445939941167
O	-2.370393688205882	-2.106183662435294	2.840627636005883
O	-2.818425218205882	-0.9395099924352943	3.497731136005883
O	-1.936728970205882	0.0220869575647058	3.0896881860058834
O	-1.879838045205882	0.19635894056470582	1.7764172660058832
O	-0.277995235205882	4.106384807564706	-2.1707798739941166
O	-0.264292787205882	2.2621382875647056	-4.110624573994117
O	0.750973681794118	3.593353127564706	-3.408118763994117
O	1.819881201794118	2.824883317564706	-2.887784443994117
O	0.5580683217941179	4.349881917564706	-4.548850233994116
O	-6.3589439782058825	1.689609236564706	-3.908668843994117
O	-3.520938438205882	3.521024437564706	-5.290105223994117
O	-3.981002928205882	7.416749787564705	-4.647970583994117
O	-7.000244438205883	6.698683287564705	-2.4862707639941166
O	-10.250773618205882	4.796747257564705	-1.8703069139941166
O	-10.331594678205882	1.4126765725647057	-0.025431426994116713
O	-13.07255780820588	0.10986152756470591	2.2099101960058833
O	-13.370916408205881	-3.202781652435294	3.8734104760058834
O	-9.305413308205882	-5.336225462435294	7.256490946005883
O	-8.865635818205883	-3.065621412435294	4.338316896005883
O	-8.642789538205882	0.6063116425647058	5.001047276005883
O	-7.2872542382058825	2.9609468175647056	2.382756386005883
O	-8.088916338205882	6.690018057564705	2.794219146005883
O	-5.532987128205883	8.732085077564706	0.9625899760058834
O	-7.182296898205882	11.249636357564706	-1.4914055369941166
O	-5.8857396982058825	14.907717457564706	-0.8454237523941167
O	-2.541523058205882	13.763223257564707	0.5549407060058833
O	2.903832481794118	15.160841257564707	-0.14363378699411677
O	6.160420631794118	13.364309457564707	-0.8909480779941167
O	4.225959861794117	10.384637147564707	-2.3589524839941167
O	2.181788261794118	10.296831797564707	0.9255193660058834
O	5.335438281794118	9.998724997564706	2.8587162460058835
O	6.885097701794118	7.500921627564706	0.5503912060058833
O	3.935731971794118	5.188443847564706	0.8695551960058834
O	3.565071431794118	5.388784867564706	4.535640246005883
O	7.327458421794117	4.767955487564706	4.955570956005883
O	7.1925704717941175	1.7485961455647057	2.6801030260058836
O	4.0385434417941175	0.25366797256470586	4.299587706005883
O	5.692748891794118	0.6905606525647059	7.685173436005883
O	8.85712181179412	-1.1142111224352942	6.785035346005883
O	7.347568561794117	-4.254412412435294	5.114916426005883
O	3.8121756517941177	-8.357258882435293	1.0301355760058832
O	1.050664801794118	-5.7895602924352945	2.0703610560058836
O	2.142206951794118	-4.106673802435294	5.262255986005883
O	0.577592681794118	-1.8744811424352943	7.8501433860058825
O	-1.8132204712058821	-3.0302278724352947	10.529583486005883
O	-2.674947898205882	0.5472389385647058	11.578891686005884
O	-3.803518968205882	2.9818361775647055	5.979957636005883
O	-4.938387428205882	-0.32097987243529413	7.339982536005882
O	-3.8884446282058818	-3.6780638824352945	6.1097757860058834
O	-5.200409928205882	-7.231223712435294	5.691793286005883
O	-8.269486328205883	-7.7099408324352945	3.517872776005883
O	-7.465295528205882	-10.325668442435294	1.0274881560058833
O	7.594619241794118	-11.634475142435294	-1.7358927219941167
O	12.107901091794119	-9.683822642435294	0.2522903860058834
O	11.220631591794119	-6.438403602435295	-1.4730400879941166
O	12.884287291794118	-1.5152149524352942	-3.492763773994117
O	11.512740091794118	-2.317219052435294	-6.947795503994117
O	7.764131711794117	-2.8117862924352943	-7.759793273994117
O	4.219901191794118	-2.1191689524352944	-12.070169313994118
O	3.5583179517941184	-5.635602492435295	-10.991757613994118
O	0.325544351794118	-6.942855542435294	-12.595560013994117
O	-2.531072128205882	-9.322247342435293	-11.738256613994118
O	-4.573057288205882	-6.434637762435295	-10.291852903994117
O	-2.133696668205882	-5.663205462435294	-7.561935523994117
O	-1.6896378472058822	-9.122248742435293	-6.341643183994117
O	-4.210888678205882	-9.451495342435294	-3.5009399039941167
O	-5.302250588205882	-13.116239342435293	-3.0995584939941168
O	0.34642164179411805	-10.492287642435294	-1.0335432989941167
O	2.003876971794118	-7.996929482435294	-3.3302889139941163
O	0.21941731179411794	-4.620567552435294	-3.222874753994117
O	1.3244818017941182	-1.078814052435294	-4.454139153994117
O	5.022433821794118	-1.7291412924352942	-4.903488173994117
O	7.665081321794118	1.1416952451647058	-4.687071433994117
O	5.243206921794117	3.768337997564706	-5.918854233994117
O	5.423019731794118	3.8700980475647055	-9.715087643994117
O	4.423069711794118	12.030475557564706	7.568369746005883
O	3.6227666317941183	3.8844454875647054	14.382631286005884
