39

O	-2.0487539106685313	-0.25578724702825517	25.513671071447682
O	-1.2816944402276866	-0.6670769933523035	24.257892998765406
O	-0.9979280232149179	-1.656303935113102	25.50196867886511
O	-2.341640386558799	-1.3740478768686133	23.711016088246204
O	-3.203626207413325	-2.2896533545072995	23.91049469799305
O	-3.0224164625560372	-3.058879570084608	22.835753460464346
O	-2.4893108761127607	-2.2023775528762637	21.971438551570046
O	-2.8297933677835667	-2.204922826605819	20.620902081266287
O	-2.6713147650120668	-1.0331699540298098	19.94943338851073
O	-2.8691693378713	0.22832232793755314	20.385240194328787
O	-3.826479857097231	1.3843608656491326	19.684400655608236
O	-4.5871173256794044	1.3540883993940267	18.115193711600572
O	-5.9225780059533335	1.111286896987553	17.857947699338126
O	-6.772193570691872	2.008137415333823	17.174576557574255
O	-6.142285560746981	2.743523046950855	16.1601998731864
O	-4.921253945997315	3.2711882784258144	16.5690232999779
O	-4.150261508647427	2.2704611525731173	17.175879466812578
O	-2.7913388226967335	2.604719458918818	17.560299385069943
O	-2.1633300737109495	3.392915519303795	16.671386960425725
O	-1.0856287316625024	2.66612734013039	16.21208024103223
O	-0.5882948159718827	1.6103441571559154	16.434779088910783
O	-1.7512971571785112	2.640250205022038	14.914899787410842
O	-0.9241865180546158	2.9408123498331564	13.89421916989484
O	0.21606129225566129	2.2576400372861065	13.788089816097965
O	0.7908623695047297	2.929485624292267	12.711124050892915
O	0.19641310348539287	4.131226691373949	12.762762132658946
O	-0.9513171908151117	4.16059094411974	13.368708400272082
O	-2.1526178517947105	4.955479934077029	13.553637706919746
O	-2.3978311954715403	5.68014297096415	14.746772635258433
O	-3.5925701402102246	6.400439001035211	14.717808203264369
O	-4.5424682883028265	6.130225621126684	13.687355848606813
O	-4.645784172748943	4.743706064724083	13.93938923932815
O	-3.3763993311620313	4.245139960960557	13.85866340085298
O	1.958536826357777	2.2841931989069635	12.229676414177554
O	2.9673297514588843	1.741812049979771	13.156874856524741
O	2.660705628230916	3.0928075700282958	11.246473883891106
O	2.0795824503234384	1.0066826606401023	11.520673126491108
O	-2.610778160317759	0.2141493884686816	21.759394019327928
O	-2.675575785270682	-0.9480822784780127	22.468079000342584
