20

O	-1.4306108347048911	1.1045479691578	22.428058513270134
O	-2.931865991783178	0.7952968486640876	20.713570923105923
O	-0.455206180422854	0.7813513319877509	23.254489845409246
O	-1.1036608460110526	-2.762874763071329	20.899353766319408
O	-0.3339236395938605	-0.49517702875749536	23.823099916745093
O	-4.635294641212993	1.8969489360456948	14.58249545112391
O	-1.0470981103776196	-1.4233070486171067	23.108026408398253
O	-0.08160961390136467	1.758844604481673	24.221268083323636
O	-1.974183119961224	-1.0519300556679203	22.118766925185074
O	-1.2315047090849098	-2.7594032917767346	23.480244913840817
O	-2.261186790996009	0.25138802716114805	21.81844702721385
O	-1.8125376372600388	-1.746518166159924	20.858307654986593
O	-2.3988592320667874	-1.1309001586965333	19.673776744294425
O	-3.3142735943767674	-0.022451258740638247	19.68686998464394
O	-3.6102830586462336	0.4686583511851835	18.34982390234833
O	-2.6608001951612508	0.9198976443338257	17.436826369594634
O	-3.0516884853867166	1.3940824030349233	16.15034282393787
O	-4.349412886885704	1.2919442732416493	15.783472900180936
O	-4.63139929558262	-0.025222717682444995	16.179650615828876
O	-4.193024209016826	-0.47866794970137505	17.470907115907693
