80

O	-3.7380331180345454	-0.04172892600727218	1.2987734563618178
O	-2.5036640610345455	-0.5256913520072721	1.521318696361818
O	-1.4717212150345453	0.3355494769927278	1.3088844263618178
O	-1.4147143950345455	1.568890683992728	0.6560457663618181
O	-2.6556519770345455	2.0435287579927275	0.807391376361818
O	-3.8356781780345455	1.3467681429927278	1.082615696361818
O	-0.35946894803454543	2.3572478679927276	0.08152783636181804
O	0.4180938319654548	2.5843920279927275	1.0690828663618182
O	0.1753412319654546	2.878055917992728	-1.136641539638182
O	1.4104959919654545	2.2753890379927277	-1.3943430186381818
O	1.2590096019654544	1.6770050639927279	-2.704218693638182
O	1.4785436119654547	2.8720824179927282	-3.571261193638182
O	1.2625595319654546	4.191974327992728	-3.014633703638182
O	0.21709478196545473	4.051624087992728	-2.040555923638182
O	-0.06279954803454535	1.0459102449927278	-2.689155163638182
O	-1.0927684410345453	1.9315829579927277	-2.676100423638182
O	-2.4202112840345453	1.6508606059927278	-2.3088340136381817
O	-2.737464100034545	0.38559752999272784	-1.9050419036381818
O	-1.7531570940345453	-0.35604694200727227	-1.290369227638182
O	-0.48210570803454544	0.15938071899272777	-1.655073351638182
O	2.389860861965454	3.0312818279927276	-4.627243003638182
O	2.4675472819654543	3.077181527992728	-1.435295184638182
O	0.5921016019654546	-0.3922840620072723	-0.8358395177381819
O	-4.808454228034545	-0.7812655520072722	0.877749736361818
O	-0.23831187803454545	-0.11222605400727215	1.659549226361818
O	-1.8806314781345455	1.8982640379927278	-17.63979152363818
O	4.066835921965454	-3.759341402007272	-11.527584923638182
O	2.476114331965454	-0.28833912400727213	-11.196386723638183
O	3.911024841965454	1.9828751579927277	-8.535749793638182
O	-3.4744567280345455	5.524376827992728	-3.818072853638182
O	-6.287518328034546	7.079404777992728	-1.778148121638182
O	-9.263090308034545	6.532382267992728	-4.1106817736381815
O	-7.468220578034545	3.954523197992728	-6.288918643638182
O	-4.421966988034545	2.6865849579927277	-8.271461183638182
O	-1.6826436730345455	0.42325642199272784	-7.160060983638182
O	0.6125723219654546	-2.318548102007272	-8.220993463638182
O	3.497935931965454	-4.150222072007272	-6.544756973638182
O	3.1349368519654544	-7.884494952007272	-6.686262853638182
O	4.6380432319654545	-11.122328822007272	-5.5411132836381825
O	6.239906981965455	-8.702456032007273	-1.560291232638182
O	2.8724981819654545	-6.899791342007272	-1.461696012638182
O	1.1560462819654547	-3.985669612007272	-2.630022363638182
O	-2.2975811130345454	-4.220017902007272	-4.099202303638182
O	-4.823218448034545	-1.441265212007272	-4.599503283638182
O	-7.762730658034545	-1.3652641820072724	-6.778781483638182
O	-10.400862478034545	1.0145550839927278	-5.502354363638182
O	3.3766917219654546	-2.938990152007272	13.240324476361819
O	3.457579061965454	0.7890585390927278	12.385496576361819
O	-0.039300448034545354	0.9817951709927278	10.788495576361818
O	-1.0660225880345453	-0.3132165520072723	7.336366486361818
O	-3.5377821080345457	-3.127801182007272	7.682007486361817
O	-5.0241829780345455	-5.770991192007272	5.4471001563618175
O	-3.2235539980345456	-8.836859802007274	4.249465556361818
O	-6.012430998034546	-9.753038922007272	1.8500687163618181
O	-9.065953758034546	-8.290793602007273	0.19522868636181812
O	-12.584168018034545	-4.018160702007272	-4.389354663638182
O	-8.829152688034545	-4.831200682007272	-4.192169643638182
O	-6.992490498034545	-4.391870502007272	-0.949680717538182
O	-3.5864206380345456	-6.042645532007272	-0.19522878463818194
O	-1.0544984430345454	-4.958489532007272	2.304720266361818
O	2.672657221965454	-4.895624262007272	2.906420026361818
O	5.027384751965454	-3.3699419120072722	0.31180383636181797
O	7.2368601519654545	-0.7729678220072722	1.9500046163618179
O	8.533422081965455	0.7609838812927279	-1.227916601638182
O	9.268282681965456	4.434734807992728	-0.43658241563818195
O	7.9355944619654535	7.441230277992728	1.361241856361818
O	12.311501581965455	9.393646747992728	-0.636993702638182
O	4.041338191965455	11.117494077992728	1.5413502163618178
O	1.8469119919654544	8.910484247992727	3.662680526361818
O	4.494233611965455	7.475126297992728	5.906179336361818
O	5.686318911965454	4.279924357992728	4.161454156361818
O	9.237489581965455	3.3518315079927277	4.917908606361818
O	11.159771481965455	0.2459771729927278	3.803480736361818
O	7.705229491965455	2.717108997992728	9.112293246361817
O	3.8742691819654542	2.306039347992728	8.695726666361818
O	1.2073378919654545	5.033599317992728	8.729305976361818
O	-1.0163526510345453	5.094853157992728	5.685470626361818
O	-4.310221648034545	6.7189798579927285	4.455784526361818
O	-5.477137048034545	7.407107717992728	7.980043256361817
O	-10.096199648034546	8.894132887992727	5.319338476361818
