78

O	1.3221570207548392	-3.0973277615709693	-2.8160651138709674
O	1.2818821907548392	-3.0990890815709693	-1.4544664638709675
O	0.512813410754839	-2.203070131570969	-3.4623501138709676
O	-3.9412200192451605	1.9883197184290307	3.6954044161290325
O	-2.5545092692451608	2.1091080284290307	3.755130426129033
O	0.2690322807548391	-2.442199891570969	-0.7690073218709674
O	-0.6375852412451609	-1.8730710915709692	-2.7826200538709673
O	-4.330549699245161	1.8744692284290307	2.3487759061290325
O	-2.5062228892451612	2.240508308429031	1.6017146361290326
O	-2.003099519245161	-1.6001641115709693	-0.8881802418709673
O	-3.410502609245161	0.08173320342903087	0.5347383401290327
O	-0.6312762612451609	-1.5833101115709691	-1.4092673438709673
O	-3.324265969245161	1.0444782784290307	1.6089958061290326
O	-1.724304173245161	1.8224199184290308	2.690905496129033
O	-3.904645509245161	-1.0115673475709692	0.9940315461290326
O	-2.431660519245161	-0.29539987057096917	-0.40544020927096736
O	-11.087390989245161	12.045354858429032	-7.8465213138709675
O	-0.337329824245161	13.024039658429032	-3.2757288438709673
O	-3.457295629245161	12.564410758429032	-1.2076026338709673
O	-6.119352649245161	9.846939778429032	-1.8034743138709675
O	-6.641136979245161	7.1342400884290305	0.8508615161290327
O	-6.514928539245161	-0.8588093845709691	-3.2395688038709674
O	-6.844215189245161	-4.338125861570969	-4.927181703870968
O	-7.496379189245161	-3.594801061570969	-8.640491283870967
O	-6.557892849245161	0.08292418942903088	-8.287611593870967
O	-6.641864899245161	3.413962738429031	-6.398676173870967
O	-4.262218009245161	4.48851325842903	-3.6678313938709675
O	-2.753904969245161	7.7824285484290305	-2.6819955738709673
O	-0.444282270245161	8.719798308429032	0.12163402912903265
O	2.630761250754839	10.617833858429032	-0.8843756798709673
O	5.87602668075484	12.044803058429032	0.37512452412903263
O	8.976646580754839	10.441841958429032	-1.0526574788709673
O	5.8197598307548395	8.458575848429032	3.770824796129032
O	4.6228330407548395	6.107994568429031	1.0537388261290326
O	1.6163469407548392	4.707135158429031	-0.47221243087096737
O	1.2834713307548389	4.650035118429031	-4.236246173870967
O	-1.299475877245161	2.4614022484290308	-6.057116233870968
O	-2.276614219245161	3.0350054684290306	-9.686148763870968
O	-3.5471154692451607	-0.14971672117096912	-11.275719003870968
O	-1.202637013045161	-7.29146033157097	-13.142462403870967
O	0.7433748307548391	-8.819591331570969	-8.428627443870967
O	9.60432498075484	-9.345699441570968	5.1207253161290325
O	8.77035107075484	-6.890135461570969	7.837280896129032
O	5.1442260007548395	-8.06133290157097	8.201597946129032
O	4.357782740754839	-8.368397601570969	4.4564267961290325
O	3.782262000754839	-5.508227001570969	2.0503861361290325
O	6.470453800754839	-5.411033791570969	-0.5653482408709674
O	7.64218563075484	-3.023153911570969	-3.2343904638709673
O	9.572073680754839	0.15955315742903087	-2.6054813538709674
O	9.350537080754838	1.2788662684290308	-6.250507473870967
O	7.348546780754839	0.5692336224290309	-9.396117113870968
O	1.5004292607548388	0.5766726274290309	-13.679842203870967
O	2.0982670207548386	2.3911751184290306	-10.337534963870967
O	3.301342390754839	0.4080300004290308	-7.308844923870967
O	5.001923230754839	2.049102278429031	-4.220900233870967
O	5.167791310754839	0.6329044974290309	-0.7223495798709674
O	5.19311132075484	1.7551700584290308	2.9599561961290326
O	2.3170567607548387	3.829660018429031	4.229596486129033
O	0.9876526407548389	2.2826987384290307	7.451440426129032
O	-2.094334238245161	4.50870184842903	7.674855616129033
O	-4.884092059245161	2.3397414984290306	9.165826536129032
O	-6.44796161924516	-1.0691703755709692	9.154666646129032
O	-9.39288237924516	1.2534062984290308	12.734575196129033
O	-9.237718019245161	-4.62386367157097	6.254784966129033
O	-6.1148947692451605	-5.9399267815709695	4.6216119661290325
O	-3.947349869245161	-5.8928409015709695	7.653974886129033
O	-2.213656369245161	-2.4906579515709693	7.525662136129033
O	-1.207528242245161	-1.2428913015709693	10.978265796129033
O	0.777163430754839	1.9242252284290307	11.876478796129033
O	3.438640480754839	-2.6149300615709694	13.593316096129033
O	1.5423672207548391	-4.777829421570969	11.092741296129033
O	1.9276718807548392	-5.816508891570969	7.402470106129033
O	-0.22859407424516098	-8.277452941570969	5.4434063461290325
O	-1.701747661245161	-6.86757733157097	2.2678394961290325
O	-3.351108619245161	-8.187604071570968	-0.9668233118709674
O	-2.135267283245161	-11.726892441570968	-0.4803326758709674
O	-1.888644045245161	-14.108836441570968	-3.4745724338709674
O	-4.535567389245161	-12.288913341570968	-5.464775553870967
