83

O	2.3941235729999994	2.1710885078596487	-1.72281817062807
O	2.5429725429999994	1.2963530748596488	-0.5607728496280703
O	1.6275676529999998	1.8276329678596488	0.4495537393719298
O	0.3286459789999997	1.3209392878596489	0.11530397937192971
O	1.0716424929999997	1.9513383438596488	-2.27069120062807
O	0.10713366499999977	1.6170327358596488	-1.2188680576280702
O	-0.7219618310000002	0.6064823338596488	-1.77309774262807
O	-0.5442251720000002	0.8840085655596488	-3.07351098062807
O	0.8848782329999997	1.0015681449596487	-3.41120962062807
O	1.3715789829999996	1.1299496468596488	-4.686767300628071
O	2.2032886629999995	0.4164134498596488	-5.5330305306280705
O	3.3046156329999996	0.9765434660136488	-6.367751670628071
O	1.7958996329999994	-0.7104065821403512	-6.52016328062807
O	3.8945557929999994	-0.1575713221403513	-7.6925286906280705
O	2.9249865329999998	0.5951129418596488	-9.12850325062807
O	5.223187052999999	0.6901507368596488	-8.20203392062807
O	3.7326189129999996	-1.455341992140351	-7.83721973062807
O	1.9370597029999996	1.2510684758596489	1.6352928393719297
O	1.040884223	1.2719748848596488	2.6863349993719297
O	1.5710349929999996	1.6446977188596488	4.01082625937193
O	0.4663891579999997	1.6737635908596489	5.015524419371929
O	-0.22613460300000027	0.36846237085964884	5.17128313937193
O	0.4927801679999997	-0.6165905121403511	4.30503024937193
O	0.6729230729999996	-0.1964501721403512	2.8946859493719295
O	-0.4084849914000003	-0.24763980214035108	2.0754107393719297
O	-0.23188226100000026	-0.13111514214035125	6.44441447937193
O	17.253816813	-4.474794542140351	-3.84658079062807
O	7.968414262999999	-7.228838832140352	-6.83524341062807
O	9.362511083000001	-3.9266410521403508	-5.500034390628071
O	7.506198822999999	-0.7363213921403512	-5.8668752606280705
O	6.714576243	3.585963007859649	1.9155488693719296
O	6.722335902999999	5.703352507859649	5.14999440937193
O	9.954729513	1.1925394138596488	5.05172886937193
O	10.132398013000001	-0.5204698521403511	1.6318980893719297
O	7.121222393	-1.754331962140351	-0.3808840766280702
O	6.657716203	-4.751673532140351	-2.63283458062807
O	3.6625161429999995	-5.911809882140351	-4.52670465062807
O	2.6253665529999997	-9.444973182140352	-4.13830438062807
O	-0.00019229100000023314	-11.937964182140352	-5.08519493062807
O	-2.000776187	-13.216457882140352	-2.15569931062807
O	-3.154011967	-8.156040742140352	-5.36037268062807
O	-1.5581800870000002	-6.7810548221403515	-2.2400566206280703
O	1.0634380329999997	-4.427746742140351	-1.1175040568280703
O	3.460417823	-5.454840182140351	1.5968993193719296
O	5.588444063	-2.882487842140351	3.527160759371929
O	8.634542293	-3.978467172140351	5.559020169371929
O	9.400361913000001	-1.4951388921403512	8.30608027937193
O	-13.073737587	2.367516187859649	1.92735509937193
O	-11.012523087	5.533709987859649	1.2997393293719297
O	-8.386677717	4.936107897859649	4.01835640937193
O	-5.5153575870000004	2.403046067859649	3.8836231893719297
O	-6.059060157	-0.2391364821403511	6.53977513937193
O	-4.5771201370000005	-3.6287039321403514	7.41577730937193
O	-5.160754697000001	-6.823305222140351	5.53451867937193
O	-2.4727762770000004	-8.720326742140353	7.47311498937193
O	0.5625078519999998	-8.043966202140352	9.65103046937193
O	7.344500663	-5.929343072140351	11.10863856937193
O	5.610198133	-6.451754192140351	7.715859259371929
O	2.2815250729999996	-4.773501822140351	6.99970208937193
O	-0.19628512800000025	-5.871638002140351	4.239223119371929
O	-2.8227975970000005	-3.7510007521403512	2.5851423793719297
O	-4.639090407	-3.3570183921403514	-0.7951486146280702
O	-2.4305985970000004	-2.534331612140351	-3.7415324206280705
O	-3.7926698070000002	0.5093656198596488	-5.47639265062807
O	-1.2703996170000003	0.7810293018596488	-8.15565006062807
O	-0.6113991890000002	4.572353137859649	-8.73468829062807
O	-0.6229727860000003	7.970864267859649	-7.09259207062807
O	0.2841780669999997	9.306904127859648	-12.01711533062807
O	1.9037268529999998	11.170430417859649	-3.6283222006280704
O	0.04460459199999972	9.745562257859648	-0.6879030016280703
O	-3.2790638070000004	9.383305627859649	-2.2968920206280705
O	-3.2864420570000004	5.868972067859649	-3.76706878062807
O	-5.586251467	5.507448367859649	-6.73362514062807
O	-6.450263947000001	2.3125423678596486	-8.66628742062807
O	-10.178496067	5.877341337859649	-9.99291937062807
O	-11.029861887	4.5624275878596485	-6.474615460628071
O	-8.901600107	6.3800468178596486	-3.87589585062807
O	-7.367505617	5.587203077859649	-0.4221973776280702
O	-5.511423927	7.983065697859649	1.8760542193719296
O	-2.076741327	6.745871127859649	2.8786891693719294
O	0.5072788059999997	7.652095057859649	5.603293699371929
O	-1.9127988570000003	9.629189387859649	7.729373249371929
O	2.5703038629999995	9.935826387859649	11.02753806937193
