105

O	-5.737023694358209	-1.5482617611268656	4.4822182376970146
O	3.3394564556417907	-2.6143166711268657	2.699926007697015
O	3.0818091456417904	-3.905919631126866	4.293016637697015
O	3.119765975641791	-4.618171491126866	2.2115364276970144
O	-2.9908493343582094	1.7828383888731345	-0.00070615230298543
O	0.8245069756417909	3.2993175588731343	-4.589944592302985
O	-3.5442749843582093	0.49293304287313433	0.057282017697014576
O	-2.5991839043582092	2.2834665988731344	-1.3037036263029853
O	-4.737138804358209	-2.6223386211268656	2.4158680776970147
O	-4.0298923843582095	-0.6702815011268658	3.234822297697015
O	0.046884705641790925	2.4319576788731343	-3.710266932302985
O	-0.8529881473582092	1.909881168873134	-8.558053532302985
O	-3.436896554358209	-2.8859248811268654	1.9466328176970145
O	-2.7430138143582092	-1.1063382211268658	2.927159057697015
O	0.10998545564179096	2.2628544888731343	-7.667784922302985
O	-1.913023935358209	0.12655478787313434	-1.7707762503029854
O	0.8087733256417908	-2.3548832611268655	1.8601891076970147
O	-1.759996386358209	1.1048416888731343	-6.488533852302985
O	-0.9748790353582091	-1.4977560111268655	-0.012083382302985335
O	-2.906112604358209	0.7387970759731343	-8.533212852302986
O	0.589422145641791	3.6136483588731343	-5.848446602302985
O	-0.24122140035820916	-3.7609246911268657	3.0347657376970147
O	-2.2547558543582094	-1.5127427911268656	-0.4303780973029854
O	-1.0111132613582092	-1.0688201211268655	1.318480007697015
O	-1.8959088133582092	1.1536078388731343	-3.5583720223029855
O	-0.01789834435820903	-1.049107371126866	-0.6286382233029852
O	-4.745453284358209	-1.8850079911268658	3.533614347697015
O	-1.7757874743582092	1.1772549568731343	-7.866929372302985
O	-2.726597874358209	-0.2215720401268657	-0.7420694253029854
O	-2.0656338243582093	1.3981824008731343	-2.1937009623029855
O	-2.4994343043582092	-2.5365654411268657	2.9320578276970144
O	-0.9603719133582092	1.7359897988731343	-4.3107009623029855
O	1.026787255641791	-3.3221272511268656	2.779159077697015
O	-0.4513917183582091	-2.0509360411268656	2.0289036676970147
O	-0.19247807435820907	2.7112671188731343	-6.412360112302985
O	-1.0703077923582092	1.9228791988731344	-5.647143892302985
O	2.354308455641791	-3.6821797811268655	3.073707077697015
O	-1.1602274700582091	-2.9157977011268654	2.728062307697015
O	-6.1388642043582085	-2.1794313111268657	-4.245940482302985
O	-6.102338814358209	-4.968116951126866	-1.8273886943029853
O	-9.675752154358209	-5.040287451126866	-0.25380350130298535
O	-10.542572934358208	-1.6533565011268654	-1.7408418913029853
O	-10.615220994358209	0.7883431054731342	-4.667339362302985
O	-7.836369624358209	3.2559620388731343	-5.5144967523029855
O	-7.803235244358209	6.736945788873134	-6.9983155423029855
O	-4.926170024358209	8.991197818873134	-7.941969412302985
O	-0.8489723603582091	10.501329228873134	-4.208615052302985
O	-2.747991854358209	7.327071638873134	-4.314993642302985
O	-5.835670224358209	7.076839978873134	-2.1187431523029856
O	-7.48205806435821	3.6811270888731342	-1.2644237813029853
O	-11.01895476435821	3.3822845688731342	0.08726447769701462
O	-11.457493354358208	0.12625162487313435	1.9988975076970148
O	-14.514841954358209	-1.8370705811268655	0.6800695176970146
O	-14.320281854358209	-2.6205341311268655	6.279040177697015
O	-8.102476454358209	-7.300556631126867	8.271327357697015
O	-8.89854134435821	-3.536721471126866	8.326238157697015
O	-7.066765264358208	-3.1806451911268656	11.593903917697014
O	-4.205540374358209	-5.312034911126866	10.380900517697015
O	-3.639336414358209	-3.1653362811268657	7.227011587697015
O	-3.934273344358209	0.14012649287313428	9.184817517697015
O	1.022532165641791	-2.3909802011268657	9.150864817697014
O	0.8752184056417907	0.8147475678731343	7.057971427697015
O	1.4698329756417907	2.861461198873134	10.032656617697015
O	6.388729825641791	0.8345851138731343	7.615520077697014
O	8.926071845641792	3.6218063488731342	7.160876087697015
O	11.351403645641792	2.750861448873134	4.253574767697015
O	11.17323854564179	0.6933904707731343	-0.9627549750029853
O	8.075819405641791	-0.10083876512686574	1.0764165776970145
O	4.5702759156417905	1.5462484918731343	0.6932571876970146
O	3.730241145641791	3.3608810588731344	3.940075127697015
O	1.155877725641791	5.961786658873134	5.046070077697015
O	1.031565155641791	9.546038268873135	4.001361057697015
O	-2.4207082643582094	10.069740248873133	5.571420657697015
O	-5.4435076843582095	8.111580288873135	6.780040387697015
O	-5.53754028435821	5.252279338873134	3.244221897697015
O	-3.079329534358209	7.717753378873134	1.4067339576970148
O	0.3017550056417908	6.758427768873134	-0.004152932302985413
O	2.7840184056417905	7.759962738873134	-2.7190373123029854
O	1.627800335641791	7.356980038873134	-6.357860912302985
O	4.270889025641791	5.359659058873134	-8.260052062302986
O	2.142971545641791	4.870512828873134	-11.342463582302987
O	3.0142532856417907	1.3900115818731344	-12.801411682302986
O	3.7005850356417906	-2.193356511126866	-11.844569082302986
O	6.67489897564179	-4.346762021126866	-12.699953482302986
O	12.713053945641791	-3.471961951126866	1.0404521576970145
O	13.364765745641792	-4.230126531126866	6.260916267697015
O	10.03168614564179	-6.054985051126866	6.192987337697015
O	4.805733935641792	-10.869115411126867	2.2136297976970143
O	2.2252771656417907	-13.194337811126866	-2.315519052302985
O	5.15122900564179	-8.314229291126866	-10.281170062302985
O	1.7075246956417907	-6.765052401126866	-9.779568682302987
O	2.3514205856417907	-5.571016901126866	-6.363591382302985
O	5.62859908564179	-3.9953275311268652	-6.932679982302985
O	4.95050072564179	-0.35504341112686577	-7.671951772302985
O	7.582507825641791	1.2717211658731342	-9.854975192302986
O	10.367728345641792	0.5695285178731343	-6.486856982302985
O	8.054993075641791	0.09132557387313434	-3.4513038923029855
O	6.7114970156417915	-3.2174677811268655	-2.2853389523029852
O	2.828364205641791	-3.1434778111268655	-2.049158382302985
O	0.16411226564179082	-5.551245081126866	-0.5531902863029854
O	2.4258371456417906	-7.580978031126866	1.8424719276970147
O	1.3658981256417908	-8.926239791126866	5.405638457697015
O	-2.191466606358209	-9.318437011126866	4.131591157697015
O	-2.320449014358209	-12.807692411126865	2.4986213276970144
O	1.9880155956417909	12.613994588873133	9.467592017697013
