23

O	-3.3751059664397602	0.6119706031659766	15.84442029794086
O	-4.655706340594735	0.1685088556721714	15.739800426451067
O	-5.051416552531595	-0.4843028962471326	16.868670131963675
O	-4.288137651326874	-0.5447718119936962	18.03889441380271
O	-3.491421350240209	0.48492984553964036	18.289507056654028
O	-2.784555933121389	0.5718085382420635	17.116577771019664
O	-3.093743367529445	-1.839736508466353	22.44681513605229
O	-2.008548031413978	-0.3338543814809492	23.694544009631862
O	-2.7073357326622602	0.11094217657687361	21.412307741701014
O	-2.807247747293313	-1.234863527184717	21.24080188143132
O	-2.8720886672745607	-1.3384273995864928	23.695857570585446
O	-2.0488859126862375	0.4169977233835817	22.56663972185137
O	-1.397073912932834	-0.08865392990740434	24.93095954555179
O	-2.892101475069061	2.93057724036719	22.364523669815977
O	-1.6965584486163499	3.4334279639847924	22.843557008621314
O	-1.7108393848806478	3.9731175852739553	24.34337716022
O	-0.8722326777094906	4.532140998817692	23.31319352408816
O	-3.007705453252652	1.169783134765376	20.514992907306087
O	-3.6452758561818874	1.4235092802962654	19.356100201786898
O	-2.8765053191159224	3.2637733834459293	19.967673795671868
O	-2.8646775353209	2.471913926773664	21.008028850259404
O	-3.840892197124023	2.7640961076416093	19.154898935208323
O	-4.987824835306908	-0.40199991136529084	14.579457175063261
