109

O	-1.1536363193846149	-2.790405563907692	0.1051849569156924
O	-0.9285897503846149	-1.405957543907692	-2.7922282570843073
O	-2.755013584384615	-1.6983858639076919	-0.3550445500843076
O	-2.266683202384615	-9.139081713907691	-3.4679865470843074
O	-1.964178034384615	3.147711316092308	1.1123882529156923
O	1.098755829615385	-0.8515936499076919	-1.8596600570843076
O	0.2542768796153849	-1.694600233907692	-2.4299734670843076
O	-1.4253409153846148	-0.20401993330769194	-2.1018479170843074
O	-1.0706011333846148	2.500434706092308	3.1291792629156925
O	-1.6978135263846148	1.0468778660923082	0.11741624491569247
O	-1.6410618883846149	-4.0349531739076925	-1.9152115370843075
O	0.3449479696153852	-2.875529183907692	-1.5605924130843074
O	0.5849248196153853	0.325209477092308	-0.9914827640843076
O	-0.45086754038461496	0.336166854092308	2.943032182915692
O	-2.6312899073846148	1.336196086092308	-0.6945994991843075
O	-2.803576925384615	-0.660524005907692	2.778136082915692
O	-3.608532350384615	1.769296536092308	0.12119266191569245
O	-0.662411420384615	0.07832286309230807	-1.0606067510843076
O	-2.624263220384615	-2.8623954539076917	-1.5742641680843077
O	-3.239359450384615	-4.054046003907692	0.5365216529156924
O	-0.6004022303846148	-0.9680451879076919	2.568103642915692
O	-1.7813034770846148	-1.608467963907692	2.8051895329156924
O	-3.233271570384615	-5.398716463907692	-0.14707825008430758
O	-0.9848186373846148	-0.021412618907691944	0.24923333391569247
O	-2.753641441384615	-8.821514683907692	-2.1223330670843072
O	-1.818229330884615	3.529774776092308	2.5361358229156927
O	-1.858835924684615	-10.468925503907691	-3.822718387084308
O	-3.715175770384615	-9.905638693907692	-2.3221371470843075
O	-0.6963437703846149	-3.618047503907692	-1.0666489010843074
O	-1.682926974384615	-3.790253833907692	-3.3888907070843075
O	-2.400351696384615	-2.5799049839076917	0.4646893129156924
O	-1.132883368384615	2.053088206092308	0.7381783929156924
O	-3.186562160384615	-7.579023603907692	-1.5625567100843076
O	-2.8709906203846147	-6.6806098739076925	-0.41406981808430754
O	-3.2882437203846147	-11.300470803907691	-2.483251537084308
O	-2.613984656384615	0.658093062092308	3.020511492915692
O	-1.445233850384615	1.171325216092308	3.570265072915693
O	-3.327100040384615	2.993719536092308	0.8141812429156925
O	0.0732238496153852	2.937196176092308	3.210205572915693
O	-2.6727910543846147	-11.58286200390769	-3.731583887084308
O	-1.6558967303846148	-2.324459323907692	-3.3560539070843074
O	-2.9137129803846147	-4.188515003907692	1.6741064029156922
O	1.356216989615385	-3.075464923907692	-0.8640305960843075
O	-4.280391070384615	3.240927396092308	1.7789507629156927
O	-6.399507970384615	-3.6577443539076917	-12.683326157084307
O	-7.944696690384615	-4.742953113907692	-9.357107147084308
O	-5.585493620384614	-6.376593063907692	-6.982842887084307
O	-7.322575840384615	-2.2537433339076918	1.1976342029156923
O	-7.816968520384615	-0.596172271907692	4.910371592915693
O	-11.230724550384615	1.081846566092308	4.476469382915693
O	-11.166098830384616	0.7961993760923081	0.5851018429156924
O	-10.653460550384615	-0.945791626907692	-2.867218117084308
O	-7.146441970384615	-1.2946392639076918	-4.6097417970843075
O	-6.120222890384615	-1.3950896139076918	-8.166456017084307
O	-2.746057886384615	-1.665424233907692	-9.824694777084309
O	-2.051414661384615	0.9823994660923081	-12.409988057084309
O	3.8485586096153854	0.544759685092308	-11.41548915708431
O	1.5921945096153851	1.936375936092308	-8.719527797084309
O	-1.126928708384615	0.9517491460923082	-6.522027457084308
O	-4.205341610384615	3.074828456092308	-6.124176657084307
O	-6.623437700384615	2.657151136092308	-3.172580757084307
O	-10.115886950384613	4.339139156092307	-3.315892737084307
O	-11.411930970384613	5.005010426092308	0.17835044691569246
O	-9.843364600384614	9.173120886092308	6.468596152915692
O	-4.787035080384615	7.787814446092308	7.116564252915692
O	-4.157067950384615	10.623503696092309	4.789368042915693
O	0.45959741961538514	8.236145166092308	4.653064702915692
O	11.095701219615385	5.992593296092307	4.319635942915693
O	12.199001119615385	3.173707416092308	2.0846812429156927
O	10.607847719615386	0.466928981092308	4.234948862915693
O	7.300644709615384	2.328210516092308	4.9603872829156925
O	4.285687279615385	2.681488356092308	2.527705262915693
O	3.983018509615385	6.3863831460923075	1.8372779129156924
O	2.023786849615385	8.428550246092309	-0.5935596978043076
O	2.9853454796153853	8.933570946092308	-4.164572297084308
O	-0.13619895038461483	10.928131796092309	-5.0159675470843075
O	-3.568514530384615	11.572858196092309	-3.593153047084307
O	-10.297452770384616	10.15109269609231	-1.7650669570843076
O	-7.8243092903846145	8.070947896092308	-3.851036717084307
O	-4.392651640384615	7.177217836092308	-2.4204452570843076
O	-1.3874505933846148	6.2364497360923075	-4.584908847084307
O	1.636338399615385	4.350606936092308	-3.482696617084308
O	4.334519939615385	1.948473336092308	-4.837903857084307
O	2.983232429615385	-1.5429167439076918	-6.070404517084308
O	4.875145679615385	-4.249991513907692	-4.305824397084308
O	2.7629936396153854	-7.025830993907692	-5.559599107084307
O	2.849497339615385	-9.607615553907692	-2.768534637084308
O	2.8298955896153855	-10.071463083907691	0.9369355829156925
O	5.256222259615385	-11.91374880390769	3.217902762915692
O	3.1706165096153853	-15.03554740390769	3.2836828829156923
O	3.496572109615385	-15.084102603907692	-0.5790043949843076
O	7.216303179615385	-15.047347403907692	-0.25440427908430757
O	7.551277149615385	4.940802526092308	12.494353942915692
O	1.5368781396153852	0.08336425909230805	14.185027142915692
O	0.04819368961538517	-9.724087733907691	5.636104212915693
O	0.8129710996153849	-6.078612623907692	5.9140693929156924
O	4.355372539615385	-6.3395478639076925	4.893699022915692
O	4.443028379615385	-5.644947053907693	1.1818201429156925
O	7.290938729615385	-7.341868343907692	-0.6080760919843076
O	8.285894919615384	-7.094942093907692	-4.263167217084307
O	12.434297619615386	-5.362743433907692	-0.8506848250843075
O	9.911682719615385	-4.700628273907692	1.9376952229156925
O	7.574514239615385	-1.858432643907692	3.0690193029156925
O	5.454567719615385	-1.6769575339076919	6.249819012915693
O	1.8649858796153853	-1.026029721907692	5.626395502915693
O	-1.5442340953846148	0.06023056209230804	7.534058342915693
O	0.3702028896153853	1.3952837860923082	10.467266942915693
O	-1.291109042384615	3.941698786092308	12.792935942915692
O	-4.830947750384615	2.916877506092308	11.979137342915692
