31

O	-2.1162998087437344	3.2245904895168005	17.251844241100297
O	-1.3689027743966748	5.241308880623807	15.80863301264559
O	-0.9510183516989738	2.9055726657954573	17.23493393972459
O	-1.096988587196308	3.7787594723964206	13.426838490373319
O	-1.350318727224353	4.359730369243032	14.889254388229402
O	-2.8889152974544077	3.0716002276350873	18.331295554139956
O	0.23281184415724	8.297028453321133	15.472714112260995
O	-0.1431503760219699	7.076218557136464	14.911550944617755
O	-2.982130529627932	1.7152042763861874	18.02849293808996
O	0.3673672381387436	6.34621702533632	13.847482714269539
O	-3.8000490507284512	1.5320900248577511	17.015242761807617
O	-3.713300589586197	0.31074241218335663	16.646269849344222
O	-3.661628150469469	-0.6208018013050438	17.59163108616249
O	-3.747613235964832	-0.16210243923814938	18.927463776137685
O	-3.132412789501312	1.0354197613508318	19.126211574114954
O	-2.953246591265227	3.7587617804923985	16.272166254153625
O	-2.246711316417218	3.391823585552958	15.058371636964779
O	-0.6545724806788803	2.19876326457935	14.059134372727184
O	-1.594334873059817	2.1612081953201816	15.049012629581485
O	0.4226515411690577	1.978689167166418	13.158040145592368
O	1.2187848334421212	3.1682134396979333	12.554718467252618
O	0.6925643538853101	1.4763128495831777	11.891703643135653
O	1.6666256908809147	1.455006351552186	13.660578972891301
O	-2.4733125526857678	6.100228403302578	15.487912029294755
O	-1.7520887669049856	6.944523336552219	14.666387317536076
O	0.25826202460412384	6.2089636885999795	16.36372472173962
O	-0.9370259440744897	5.785168109109296	17.002750972273816
O	-4.367181907952618	2.4643016274225973	16.194085279007233
O	-5.390040687401169	1.9312102082621587	15.538237362176538
O	-5.677502944107442	0.6362767883357123	15.812335520437193
O	-4.450315751902359	-0.03756287014746107	15.5965015454987
