27

O	-4.34841091294123	0.6575200819869673	15.413550471942282
O	-4.214961785810059	-1.5315027177393992	15.934750548733657
O	-5.017901925407853	3.2618323480439066	16.193802158638544
O	-4.494684253798002	4.577676649141779	16.42730325980197
O	-3.906379503270009	3.936044357458737	17.593230095578914
O	-2.764451640047124	3.746751012587519	16.930482105080735
O	-2.7346537682727643	3.5312027495213556	15.493442463323767
O	-3.9179032973941297	2.760481774804677	15.493424250624026
O	-1.6063403607837605	3.443052520476511	14.572461555073112
O	-0.8053591942715054	3.8119602361271423	13.596881608678675
O	0.03054767590970031	2.861249165639361	13.192244894130829
O	-0.24080105578011257	1.8375721374160539	14.141775005305368
O	-0.7663365775894992	2.6266729083258094	15.08867855078518
O	1.1733648106017742	2.5486480634311417	12.341248780685836
O	1.3967747529033538	3.6358104819113946	11.431600836935335
O	0.8729328443180464	1.2802679280029474	11.657938991857423
O	2.3660882019797773	1.9418447866092239	13.020318695362983
O	-0.9151677354591334	2.6798033997276742	16.44541312659571
O	-1.672560336808935	1.5176540920336183	16.66180384657471
O	-2.1690094588393496	1.4370871426561371	17.913302786397576
O	-3.4634639988965166	1.058581924276801	18.01443120804305
O	-4.395405458032302	0.6409522440882427	17.21222000485148
O	-4.710631154454442	-0.655152576150206	17.4369065838678
O	-4.34606081108922	-1.2730134087798062	18.572743193216503
O	-3.5818530515175793	-0.37255634012502936	19.31002918374297
O	-3.7450884881939395	0.9775011669894849	19.326448540639863
O	-1.783708878284211	0.5374421298534713	16.014565962771336
