33

O	-1.767262684119011	-1.7273477754924063	19.729660248321565
O	-0.9584166604942603	2.708203457896124	22.565075598303196
O	-2.9523509591446557	-0.781833450395022	22.690029593538405
O	-3.4766014695937364	0.4114736518423904	22.06248301250871
O	-3.232065978466097	1.1541577952186792	23.266297989645825
O	-2.5941808292843858	0.7996507944525271	24.69636672137069
O	-1.3926047787725628	0.3580940482692111	24.281900051124488
O	-1.770392891885367	-0.6290707180037758	23.422855670264404
O	-2.193900188081568	0.9352301446954523	26.08492187384601
O	-4.042184975259005	0.6086298414818867	20.644645067274375
O	-0.7493329927027828	-0.6832375572333617	22.522984602489633
O	-0.920049024635972	-2.0299214747352767	22.22389383053865
O	-2.034321505230974	-2.8160789075226944	22.404456285236556
O	-3.1479350444646537	-2.020060575049885	22.20279251690146
O	0.009854620270938863	-2.353179530553323	21.56445537647646
O	-0.8184571618443066	0.3228081121941202	21.610125038715346
O	-4.536538510512095	1.7587172932495492	20.009913684985342
O	-4.698482975193114	1.9668481359004357	18.582850080076774
O	-5.206669485985869	0.9671689473149248	17.666668983769817
O	-5.255659873652355	0.005335474777455329	18.401855862735434
O	-4.868873506974952	-0.00791751004808483	19.697593664853336
O	-0.9866143394393485	1.6888711530374951	21.240269681180536
O	-1.5866802548872867	2.2606836058432602	20.002975681267333
O	-2.3334954398918515	1.6645128960247788	18.83733046895394
O	-1.6981829960166892	0.44731046825495313	19.062021375566744
O	-1.1194962656583753	-0.10348266836241088	20.28728938530628
O	-2.0199546003871065	-0.07825482745333989	27.1469110411432
O	-1.9080258261651064	0.2529578189833944	28.547987946118624
O	-0.7843036827419474	1.015221670285737	28.980670845418423
O	-1.1764933961792126	2.0932618450433296	28.12699256304229
O	-1.1189400367369209	1.6492810567851397	26.737893538409512
O	-4.804556718955322	-1.2922035593962276	19.982100009939916
O	-4.801680311352252	1.2902818760896537	16.46487510478289
