28

O	-0.17499107506973033	1.8539681700672177	21.78297799763865
O	-3.9959962611759203	-0.802564748061764	23.548631290775397
O	-5.50346411148338	0.7250456683866675	15.635564063121148
O	-4.342015017953996	1.473605465033493	15.419664004677015
O	-3.274827958545422	0.9800997066998915	16.171267388536197
O	-3.7038687646236568	1.272790373439598	17.499355062242742
O	-2.347683990754657	2.115061629383122	18.237593564856738
O	-2.263500479637176	0.9669876049998849	19.518330135662417
O	-3.010396108092682	1.3892183787558898	20.58340671105791
O	-2.678348292141374	0.7048426230098848	21.736329476130486
O	-1.908881370953647	-0.4297214269560812	21.515567280175365
O	-1.3199873668658415	-0.979102542675755	22.648393272250996
O	-1.3236370735041794	-0.02432635010656492	23.808522481717322
O	-0.7705175228869261	1.2462990228167485	23.341796687147703
O	-0.9963722400220845	2.3689643457469627	24.18216795935658
O	-2.199652106627737	2.539129071038633	24.79964860112245
O	-2.8563814590313163	1.3267313058099224	24.981333570767866
O	-2.718902397941671	0.3390753548159957	24.00387607426384
O	-1.7454897436986783	-2.3123307991725164	22.68196122866093
O	-1.967794044689642	-2.85083334374701	23.737791546450175
O	-2.2277769770563927	-2.992911209916767	21.602474517641646
O	-2.1762455548723443	-2.388222902603247	20.37929991840596
O	-2.1201981658437528	-1.0834569091544863	20.407643886171172
O	-2.2493317628318477	-0.3838909666968311	19.33679092981687
O	-4.654177241097419	0.3817720302481944	17.864696837081407
O	-5.734804975434576	0.4908354079754276	16.994360205649706
O	-6.365358320053117	0.400709429244795	14.67488493226158
O	-4.556422515196009	0.06853289405505691	19.16592580900877
