40

O	-2.02450893938595	-0.5976802053669739	24.421904319645865
O	-3.0180887842157653	-1.659818522434853	24.584287681541937
O	-2.863557077117653	-2.546269209294204	23.558363129510905
O	-2.703020938021891	0.04582138532180058	23.29121509027852
O	-2.7342652075736043	-0.5614428171632204	22.00359576217592
O	-2.514831776508964	-1.9358490685388603	22.34069955147728
O	-2.6467827667724912	-2.9787352616116527	21.56839828656389
O	-2.8910718219637515	-0.17823112350924153	20.76895453863062
O	-3.036558056440713	1.1545381555554277	20.58528268914272
O	-2.828091984829782	-1.2276327610039723	19.857803949683145
O	-2.734777451164189	-2.57176943182521	20.327328752475076
O	-3.504855712322073	1.4620561302727135	19.291069223628657
O	-2.8049690769110107	1.279750855186803	18.100875144836966
O	-3.3978773996587255	1.844499493203768	17.003313375465652
O	-3.6634232792740735	3.26612798076989	17.24954827146137
O	-4.633186677153703	3.2165155852655962	18.26358739555893
O	-4.720921274965296	2.0324131932254526	19.051602477152464
O	-2.7899163041693584	1.9646888733602714	15.690853334344125
O	-1.4803854450532863	2.3876185130885403	15.918509885445317
O	-0.6688511633727299	1.5036577179901702	15.853359369956324
O	-1.3093974391518377	3.5418340049840564	15.261534367906734
O	-0.7523593086723226	3.3733566904529164	14.058120639396977
O	-0.9725325455790994	4.393073895236531	13.30751876145391
O	0.03224879937560843	4.296434731896032	12.521574714501849
O	0.6281598536043713	3.1037714568310406	12.491941503097003
O	0.09995868468558688	2.486944545083058	13.577940761672924
O	1.654535831699088	2.5179225041921325	11.708737401326651
O	1.7960989354578571	1.2495355902332055	11.061635073515102
O	2.773447980297331	2.1450685329114316	12.639480428214203
O	2.315779818564431	3.261730822744501	10.638668348913182
O	-2.151347801188741	5.099905532091747	13.570202776835082
O	-3.2873309517337264	4.7376818252933255	14.23639984978
O	-4.414550874682608	5.553918555909295	13.836918555098624
O	-4.132325679027742	6.752095245112557	13.160859483916134
O	-2.900836892807097	7.230145843073023	13.604607683698417
O	-2.0129851777073404	6.279740428468447	14.292322707327926
O	-4.614366111467774	6.771186089464413	11.73116527541216
O	-1.680826609253279	-0.4436165878152971	25.78257748195638
O	-1.318838132251956	-1.574677872196044	26.589413563198473
O	-1.4664202080190036	0.5055592189137241	26.53859804641492
