101

O	2.6066043363857143	4.650934024195714	0.5826125261814292
O	2.4289919963857143	1.8852904961957138	2.5575832361814292
O	0.14847232238571412	1.4862255373957138	0.22804659618142908
O	0.33005193138571415	2.7506863741957135	0.5717231961814291
O	-0.3234185595142859	3.6525004941957135	-0.21799980081857084
O	-0.11721732561428588	3.3256330541957135	-1.5264059438185709
O	-0.9963756246142859	2.2928266881957136	-1.7909038158185708
O	-0.7251361356142858	1.6456495681957137	-0.7638145168185708
O	-2.0025939736142857	1.3597566335957139	-2.304530433818571
O	-1.484770203614286	0.8313893261957138	-3.4842030138185707
O	-0.4270175245142859	1.6096260891957137	-4.126339703818571
O	-2.362039143614286	0.5363551881957138	-4.268658113818571
O	0.2408407593857141	0.1445563341957139	0.22429254618142913
O	-0.875580303614286	-0.6356687858042862	0.23190004618142912
O	-0.5461815456142859	-1.769016775804286	-0.2978682528185709
O	0.7446403363857141	-1.5155058658042864	-0.6693033728185709
O	0.835791326385714	-0.20695367580428625	-0.8713726928185709
O	-1.170676968614286	-2.9190080158042866	0.37840207618142907
O	-2.5670423436142857	-2.7017452158042863	0.15762515618142925
O	-0.5569256656142859	-3.000852265804286	1.6855411061814292
O	-0.4243714796142859	-4.013606625804287	-0.21831605181857083
O	0.891634696385714	0.5237843411957138	-2.011796503818571
O	1.776839906385714	1.5073116852957138	-1.8598296368185707
O	2.1891387563857143	2.863696834195714	-1.8875158498185707
O	3.166772356385714	2.774285294195714	-0.9502460766185709
O	2.4346962263857144	1.2235869921957139	-2.846962803818571
O	4.166082176385713	1.850295695195714	-1.2319101968185708
O	4.078762676385714	0.9248451771957138	-0.16607822481857082
O	4.612721836385714	1.7514080241957137	0.8675533161814291
O	3.522375486385714	2.458186244195714	1.291103926181429
O	2.902174516385714	3.052863894195714	0.25505884618142916
O	1.733149456385714	4.894726344195714	-6.646369953818571
O	-1.823661803614286	3.401093504195714	-6.886755743818571
O	-4.481288503614286	6.2945124041957135	-6.650712653818571
O	-1.673622293614286	8.724988784195714	-5.718892823818571
O	1.830876496385714	10.163477164195713	-6.216621753818571
O	4.943401156385714	8.835108154195714	-4.413739173818571
O	7.986828036385714	10.578447784195713	-3.149691993818571
O	11.090195176385715	9.330414964195715	-1.509751052818571
O	10.966974376385714	6.210970514195713	3.287003016181429
O	8.404413966385714	6.382875854195714	0.6215131661814293
O	5.5027440863857136	8.711988334195715	1.070678966181429
O	2.3418316563857142	8.364144704195715	-1.0796408795185708
O	-0.1472121206142859	11.195329414195713	-1.250197356818571
O	-3.595675193614286	9.991060624195713	-2.145324843818571
O	-5.045989053614286	11.841320544195714	-5.191680703818571
O	-9.363945253614284	10.691092594195714	-1.7460952738185709
O	-13.769926823614286	7.443779144195713	-0.41889038581857085
O	-14.431066023614285	3.7808965741957135	0.2709251561814292
O	-11.184889623614286	2.857702824195714	-1.6179199368185708
O	-9.274297903614285	5.352337714195714	0.6209125361814292
O	-10.600873323614286	3.622440934195714	3.665593466181429
O	-9.974078933614285	0.18868066419571372	2.301504036181429
O	-6.304075243614286	0.9873602911957138	1.6080969561814293
O	-5.633225543614286	2.6159325541957137	4.878868526181429
O	-7.3076697136142865	-0.3373982158042863	6.72338214618143
O	-5.244347383614286	-2.873781005804286	4.750709136181429
O	-1.918614893614286	-0.9915796158042862	5.183522506181429
O	-2.630872723614286	-0.7641624158042861	8.932894656181428
O	-3.2455724936142856	-4.440902445804286	9.41243578618143
O	-0.19759063761428589	-5.828200495804286	7.4702945961814295
O	2.7927913263857143	-6.602953965804286	9.603860486181429
O	4.4126394863857135	-7.0991687458042865	2.619198526181429
O	4.224885796385714	-3.2041658758042866	2.416105886181429
O	2.8476025363857143	-1.9252536558042863	5.698879226181429
O	2.4591621163857145	1.4886088964957138	7.277567176181429
O	5.271757626385714	3.3615546141957138	8.92593607618143
O	3.172594396385714	6.515252664195714	9.380190086181429
O	0.8809457663857141	7.084616864195714	3.7113498261814293
O	4.460773376385714	6.265401984195713	4.698155766181429
O	6.235629626385714	3.050399264195714	4.185831736181429
O	9.706866276385714	1.5972511111957137	3.4800892361814295
O	11.443792676385714	2.756509514195714	0.32030919618142906
O	12.692429476385716	-0.2519259058042862	-1.5547225678185708
O	4.297843736385714	-12.749727455804287	1.7078196761814293
O	0.45940500438571413	-14.153993355804287	5.083565536181429
O	-1.896278873614286	-12.104156355804287	2.933946406181429
O	-7.107993503614286	-10.942186255804286	1.334782336181429
O	-6.317962833614287	-11.608029155804287	-2.318073053818571
O	-3.8611792936142857	-9.550524555804287	-4.437439693818571
O	-5.611296283614286	-10.010249255804286	-7.730047783818571
O	-3.0741105336142858	-8.024801095804287	-9.79581920381857
O	0.27974280038571414	-9.382452355804286	-8.826555293818572
O	2.917187256385714	-8.346562585804286	-11.41539251381857
O	6.6121380863857135	-7.443764915804286	-11.536948713818571
O	5.818347676385714	-3.735291595804286	-11.14751351381857
O	4.2542461563857135	-4.071397755804287	-7.742689353818571
O	6.937194166385714	-6.134562515804286	-6.244717323818571
O	9.240117186385715	-3.604130485804286	-4.5809284238185715
O	12.817891076385715	-4.911838235804287	-4.329700473818571
O	7.772613116385714	-6.632525415804286	-0.4543047628185708
O	4.445825566385714	-7.062627965804287	-2.1420950038185707
O	2.798401976385714	-3.6086566558042863	-2.9221818638185706
O	-0.7660711026142859	-2.6372191958042865	-3.813155363818571
O	-2.602971453614286	-5.888017165804286	-2.973083743818571
O	-6.300311203614286	-5.933528175804287	-1.898867530818571
O	-7.087589213614286	-2.949952835804287	-4.089959973818571
O	-8.049928033614286	-4.356180915804287	-7.533691353818571
O	-10.843787223614285	7.079175214195714	7.526844436181428
O	-2.6916921136142857	4.970176674195714	14.07523598618143
O	0.006428457385714126	3.532239414195714	16.35216978618143
