29

O	-3.365874707243637	0.5015345451829779	26.704658692877054
O	-3.6854769310953115	-0.5959546019619165	27.754564014039417
O	-2.416381382969401	1.5492576166875143	26.864716667625657
O	-3.070355936372456	1.8521777701175952	27.522000600168948
O	-3.828102175347035	1.8637444396534844	29.133528458930115
O	-5.411039531411312	1.38008914131211	26.78977579044618
O	-4.201734644151831	3.3015725020203006	26.75756356554001
O	-2.579541717510482	1.7197567322318377	22.328053681398316
O	-2.827733881985028	1.9537339904532929	20.972687396321575
O	-3.2598146082884414	0.7920329614525218	20.134456811325617
O	-2.2680588685996	-0.35287863802994207	20.46171347398889
O	-2.5837047852260877	0.4197722907292206	22.83567070399998
O	-2.434503631268359	-0.6558629424782407	21.855505680109168
O	-2.1868753098216764	-1.901078672311944	22.61264208756555
O	-2.845912015936934	-1.8924172329042226	23.92290818128634
O	-2.4572640220173474	-0.8521822671776059	24.82889241562828
O	-1.8485871087178278	0.1279894991047098	23.99409851262616
O	-3.685823870775436	2.9904968094611633	20.666050959602746
O	-3.5422869084616813	-0.05005582480191795	25.411394779321988
O	-2.9495719678688013	1.1086794752404794	18.84335772685849
O	-3.900428380208231	1.6712411784241898	18.03256007595213
O	-1.7048250175202408	2.5671975333655426	23.05334539628999
O	-3.189742423921344	2.019874230166277	16.79541700735048
O	-4.023471314771108	1.758061858307474	15.606969024028407
O	-4.21830923492262	0.2966392061164024	15.318766953195592
O	-4.795468046847384	-0.2732055640203763	16.583328283720643
O	-4.961986567736319	0.7023884665674766	17.668936145348862
O	-5.12209542454465	0.035648599988182594	18.856336282305694
O	-5.188121603689854	0.24900756871534135	14.35320530549775
