87

O	0.11859538893442578	-0.3131240351968849	-1.873480319442623
O	0.8738941489344259	-1.061705715196885	-0.9919523179426231
O	-1.2156246990655741	-0.27449622519688477	-2.127420098442623
O	1.1052089189344259	-0.24146848419688483	-2.901811228442623
O	0.38795229893442595	-2.296235505196885	-1.186094811442623
O	1.702984528934426	-0.7860085351968848	0.05062158155737695
O	-1.284547214065574	0.6175748548031151	-3.1188432984426226
O	0.5968229489344259	-0.3494512751968848	-4.152099618442623
O	2.4341295189344256	-0.9816516151968848	-2.8211711284426233
O	-0.21000636506557413	-2.422794655196885	-0.005101888442623048
O	0.33278241893442595	-2.872608275196885	-2.560108108442623
O	0.7424180889344258	-0.633943315196885	1.0094881015573771
O	-2.421562461065574	1.4994342418031152	-3.505395828442623
O	-0.8063319540655741	-0.1460478591968849	-4.144688868442623
O	-0.3665598750655741	-1.2070675951968848	0.5228991915573771
O	-2.149317001065574	2.161572834803115	-4.759421698442623
O	-2.531639211065574	2.378701804803115	-2.632868278442623
O	-1.5399903350655741	-0.7695216351968848	1.130708871557377
O	-2.837557881065574	3.208470254803115	-5.363865628442623
O	-1.874712414065574	0.25955135180311517	0.30646698155737706
O	-2.7088765810655744	-1.2828439151968847	1.2240424115573771
O	-3.4174919910655746	4.4600208548031155	-4.971755118442623
O	-4.2523198410655745	3.343269454803115	-5.660105918442623
O	-3.0761430210655742	0.32613711580311516	-0.469869461442623
O	-3.579116951065574	-0.5928239151968848	0.567830071557377
O	-5.075150101065574	-0.6794699451968849	0.9842022215573769
O	5.671405368934426	-12.638125405196885	3.774649201557377
O	1.907075688934426	-12.256182005196885	3.115803311557377
O	0.0007869889344258585	-9.522104505196884	4.936947531557378
O	-4.526646501065574	-5.037991635196885	-1.352709684442623
O	-7.1107941710655735	-3.249358905196885	-3.7733270184426226
O	-7.404605621065574	-5.637468835196885	-6.697465148442623
O	-4.409648841065574	-7.7168839251968855	-5.537440168442623
O	-2.424722971065574	-9.695882205196884	-2.8868654584426228
O	0.2169623289344258	-8.111216715196885	-0.619659945442623
O	3.396639158934426	-9.283254305196884	0.841539351557377
O	5.8831781589344265	-7.626854335196885	3.077161841557377
O	9.474697748934425	-7.875634445196885	1.907674841557377
O	11.036496148934425	-2.755070815196885	4.695607791557377
O	8.562548278934425	-2.679414775196885	1.8240527715573769
O	5.184607968934426	-3.8048903551968847	0.7946798215573769
O	4.775289118934426	-5.451960935196885	-2.5783155584426227
O	1.2636826489344257	-5.818574395196885	-4.179672198442623
O	0.694856528934426	-8.207294645196885	-7.107311548442623
O	-2.296826551065574	-7.067474695196885	-9.116759488442623
O	-4.790529911065574	-1.2018327651968848	-13.423697978442624
O	-3.9598555910655744	2.743484254803115	-10.009082368442623
O	0.3466027489344259	5.854783094803115	-7.373496788442623
O	3.695425828934426	13.193502494803115	-0.21433237244262304
O	4.597599918934426	11.913376594803115	3.2016318515573774
O	1.0066745889344257	11.029945694803114	4.162370061557377
O	0.026857568934425924	9.429228224803115	0.819395831557377
O	1.024034488934426	5.864375314803115	-0.39532417344262305
O	3.187451418934426	6.376233884803115	-3.459778268442623
O	5.407093918934426	4.148891884803115	-5.573546068442623
O	8.860252978934426	2.9936001748031154	-4.576927458442623
O	9.142034448934425	0.6049329618031152	-7.540313128442623
O	6.920326028934427	-1.1189886551968848	-10.082090628442623
O	2.035814718934426	-5.841553095196885	-12.430129878442624
O	3.7973400189344257	-5.648563205196885	-9.033633218442624
O	3.6528028189344264	-2.341504265196885	-7.058720958442623
O	6.182774038934426	-1.478327485196885	-4.285853648442623
O	5.522270238934426	0.9981315218031152	-1.516096941442623
O	6.495619168934426	1.6556188678031152	2.129397201557377
O	5.406852908934426	-0.9815382751968849	4.6570245315573775
O	3.574096558934426	0.7395905098131151	7.447890511557378
O	2.3317633589344258	-2.4557891251968846	9.057797021557377
O	-1.0304766440655742	-1.6812645751968849	10.727308921557377
O	-4.3017510210655745	0.053770733803115145	10.060778721557377
O	-6.063628521065574	2.645906404803115	12.133423921557377
O	-8.341223861065574	-0.035075518196884814	13.597136721557376
O	-10.714405761065574	9.246027354803115	-2.2143856384426233
O	-8.756865981065575	0.17161494380311515	7.100216331557378
O	-7.129886281065574	2.320637044803115	4.4611197215573775
O	-5.086821691065574	4.466014154803116	6.6621804515573775
O	-1.7411754560655741	2.7520127548031152	7.118926971557378
O	-0.02873500106557403	3.623603264803115	10.336367521557376
O	3.4632427889344264	2.590515824803115	11.531259621557377
O	0.14992089893442584	7.786070454803115	8.706231741557376
O	-0.2864736780655741	7.283170044803115	4.879293281557377
O	-3.600284841065574	7.4268144448031155	3.0092316415573768
O	-4.1190611610655745	4.445777814803115	0.8316751315573769
O	-6.554215761065574	3.305836784803115	-2.140909108442623
O	-7.5551035510655735	6.763007434803115	-2.973857768442623
O	-8.899038531065575	7.386444684803116	-6.4893032484426225
O	-10.058585841065575	3.817674724803115	-7.043529058442623
O	-13.703713851065574	3.589480454803115	-5.914239258442623
