99

O	1.161294758680882	-1.0313876273941165	2.105395398647059
O	2.7299130686808817	0.03200083860588365	0.3398202476470592
O	0.8797779786808819	0.10662677960588363	2.3979884886470595
O	0.6840519686808819	0.7123392466058835	-1.4594921913529408
O	1.632925528680882	0.2011800596058836	-0.2853035975529408
O	1.2867510786808818	-1.9992901173941162	3.018073508647059
O	5.620424508680882	1.7513361266058836	-0.4995742463529408
O	4.2839449286808815	1.4558539086058837	-0.7700203323529409
O	-0.10287797031911816	-2.0702067173941163	3.082029918647059
O	3.3062692286808817	2.1394747626058837	-1.478952221352941
O	-0.5747903890191182	-2.684932027394116	2.019669848647059
O	-1.847769921319118	-2.5629531973941164	2.018913538647059
O	-2.486555311319118	-2.7177233773941163	3.1731024086470594
O	-1.685330811319118	-3.043904877394116	4.292875798647059
O	-0.4633240103191182	-2.445283937394116	4.27327870864706
O	1.388179218680882	-1.6515606273941164	0.8767796186470591
O	0.724320358680882	-0.7371446773941164	-0.034410806352940804
O	-0.6534721051191181	0.9828894139058836	-0.3505512236529408
O	-0.4455276583191181	-0.1288263373941163	0.41447811964705916
O	-1.0817057433191182	2.2055488126058833	-0.9358160813529408
O	-0.08012808731911814	3.1342218826058836	-1.6755469713529407
O	-1.9013802713191181	2.697796282605884	-1.9431239413529409
O	-1.417333674319118	3.3162837826058835	-0.08265585735294079
O	3.440990728680882	-0.9672263373941163	-0.40599425085294083
O	4.049307858680882	-0.07995905739411646	-1.2723703693529407
O	3.8534026586808823	1.5495515596058835	0.9116234186470591
O	3.5880159886808816	0.24332219460588356	1.4015268086470591
O	0.08501707068088182	-3.0596265573941164	0.8842334186470593
O	-0.6320609520191182	-3.9530872773941166	0.21483810564705919
O	-1.8111899313191182	-4.322786357394116	0.7694499986470591
O	-2.4864456713191183	-3.095850757394116	0.9822675586470593
O	4.968514808680882	-3.018133607394116	5.173409908647059
O	6.829978778680882	-1.0358530673941162	2.599513018647059
O	9.137079488680882	-3.3659766973941165	0.4372399596470592
O	7.607850088680881	-6.388964137394116	2.133554468647059
O	6.319362718680882	-8.143534557394117	5.24376704864706
O	2.700945128680882	-7.771998907394116	6.45813101864706
O	0.6979370986808819	-10.432705997394118	8.240357658647058
O	-2.729739751319118	-10.192951397394117	9.664634888647058
O	-7.226513621319119	-8.502335167394117	6.637685598647059
O	-3.6603689313191183	-7.4296055273941155	6.159304498647059
O	-1.6124975513191182	-9.293846597394117	3.67465934864706
O	1.6228715786808818	-7.728682157394116	2.421035588647059
O	4.065116818680882	-10.174392597394117	0.7247554086470591
O	6.364823528680882	-8.224174607394117	-1.4765204913529408
O	10.104808648680883	-9.041612697394116	-0.7548803363529408
O	12.003812648680881	-10.091500797394117	-4.014156011352941
O	9.675904148680882	-8.172801477394117	-6.315658281352941
O	10.265827648680883	-4.676948227394116	-10.74128131135294
O	9.021567208680882	-1.2491024673941162	-11.780251511352942
O	8.278427778680882	-0.39478318739411633	-8.072541231352941
O	6.225836908680882	-3.672046527394116	-7.82311430135294
O	4.184251648680882	-2.5870556173941166	-10.763303111352942
O	3.7945080086808822	0.9358161084058836	-9.556440461352942
O	2.408892758680882	-0.29180622739411644	-6.25586392135294
O	0.06957083268088182	-2.802373087394116	-7.513633051352941
O	-1.249882961319118	-0.20008349739411635	-10.075914151352942
O	-1.7581272113191182	2.3947539326058838	-7.344657421352941
O	-3.452588941319118	-0.04728329739411641	-4.9104252113529405
O	-5.727887831319118	-1.1296481773941165	-7.686089861352941
O	-6.890791751319118	2.3351310726058836	-8.58357043135294
O	-7.650371421319118	3.684903262605884	-5.046965031352941
O	-11.248525451319118	3.3761574126058838	-4.010893661352941
O	-7.129993401319118	5.435183302605884	1.5072758186470592
O	-5.664496241319118	1.8254040996058836	1.6102899186470592
O	-6.896046481319118	-0.023536807394116455	-1.4395939613529407
O	-6.759206711319118	-3.602976837394116	-2.5807642213529407
O	-9.052551601319117	-6.299259877394116	-1.3206207233529408
O	-7.1653197113191185	-9.044707897394117	-3.198768581352941
O	-1.3831007413191183	-7.596749067394117	-1.5280664313529408
O	-4.490965441319118	-7.763487977394116	0.6227879006470592
O	-6.037105231319118	-4.811761217394116	2.2974729886470593
O	-8.099525991319119	-3.964424697394116	5.418504178647059
O	-6.405425031319118	-4.558176027394116	8.742012188647058
O	-6.586307701319118	-1.4396719973941166	10.69005878864706
O	-8.104226221319118	11.040101702605883	1.7903759786470592
O	-8.860894171319117	12.116987402605883	-3.346856981352941
O	-5.247834271319118	11.138533902605882	-3.8744739613529404
O	-0.6666432756191182	11.343179002605883	-7.048537521352941
O	1.3996152686808818	12.806174102605883	-4.2012845313529406
O	2.2411865886808817	10.939168312605883	-0.9030126323529408
O	6.288642718680882	10.782474062605884	2.9895667886470596
O	3.1914539786808818	11.217166402605883	5.03489500864706
O	3.916706018680882	10.535386512605882	8.74356136864706
O	2.1209423586808818	9.120641932605883	11.801242588647058
O	3.469640748680882	5.628449232605884	11.04520998864706
O	1.6959667786808819	5.308134962605884	7.75440707864706
O	-1.6355844513191182	6.378502962605884	8.897330708647058
O	-3.425134051319118	3.135049742605884	9.761112888647059
O	-6.096494581319118	3.714488972605883	12.449812188647059
O	-6.620366741319118	5.191195912605884	6.061642878647059
O	-3.558567811319118	6.630120502605884	4.399618038647059
O	-0.9872816913191181	3.783990822605884	3.662419278647059
O	2.030002818680882	3.984753282605884	1.4621000486470592
O	1.396213318680882	6.946175152605884	-0.7361690243529408
O	2.871000438680882	7.352848022605884	-4.350853521352941
O	5.984176058680882	5.324015522605884	-3.645115651352941
O	8.664597448680883	7.633863632605884	-2.2428090813529407
O	2.462334158680882	-6.873798537394117	-13.166658411352941
