32

O	-3.8842526972302602	1.4625026598373667	16.965660692577746
O	-3.515888466252615	0.8797017591324666	20.419431694526295
O	-2.555517633875758	0.7169456287679693	21.367565820347806
O	-2.5608108897878274	1.4720931450627637	22.637280709043445
O	-2.1112688574475786	-0.4565142345931913	21.86419680275489
O	-2.2036255849900526	2.443380225021523	25.05023022913181
O	-1.1155072535726342	1.5968679402651964	23.207143520611826
O	-3.2899121938070506	0.7989790214960574	23.740428539631466
O	-3.031388770110402	1.2428428069543238	25.15290349316035
O	-1.0113362473500265	1.6093026734746516	24.689307073748104
O	-1.7336048938156916	3.291054870399007	26.011153850104947
O	-0.4320279358325192	3.657387493658375	25.612569168755975
O	-3.7693955159276578	2.151955437123735	19.971654981311744
O	-3.0572323625436195	0.2708004072363027	19.191537663193184
O	-1.9805562853089929	1.0285381566278553	18.748481772726823
O	-1.0028962246501814	3.348660331186171	18.908550868809467
O	-1.2198808013908677	1.410713949458295	20.034870241713712
O	-2.2448110213246038	1.8274728798258475	17.581986703037153
O	-2.2477112970562603	3.2566062468324266	18.029574760401385
O	-1.217216467774431	2.867319526538304	20.364646748471642
O	-2.6412078398437377	-1.7255976865999174	21.38435968046081
O	-1.3866876106641843	-0.6032963203735824	23.06497434753981
O	-1.6291596295397666	-1.4160510681162253	24.193237096451405
O	-1.0516603562833913	-1.2191933633484884	25.45793725404353
O	-2.2620704789780364	-2.773102557886023	22.438094709988395
O	-2.5773725582601688	-2.3636256734556786	23.814326054873284
O	-1.5074599408584308	-0.6534799496248422	26.666438317435066
O	-1.36045447199512	0.4583370170425488	27.54132321211975
O	-2.9014682377012004	-1.2019704081909925	26.717184685605723
O	-0.3401457546852331	1.309363086897283	27.713129557336348
O	-2.477047641424724	1.3393679121726074	28.105569462612493
O	-1.6738808024622496	-0.1158526320920985	28.944115368483082
