18

O	-2.7226237255095636	-3.0156196087471505	22.877141803824543
O	-2.3780616663520067	-2.6079576371810322	24.13606194707611
O	-3.2146983097834365	-1.6031932367191073	24.500442067552413
O	-3.2905430533649684	-0.6725826498377099	23.466507104138643
O	-2.820590283104281	-0.8857998216655443	22.23345608319465
O	-2.720081146631124	-2.162781043689039	21.7930001529381
O	-2.63370702814181	0.09447894269834911	21.153375970675782
O	-1.6951810142333994	0.8270189518251876	21.783065134478395
O	-1.8167080357357777	2.1788037090098182	21.49670494869393
O	-2.457587551495889	2.1635517787697376	20.42301650957003
O	-3.2268008049816164	0.9407336808649771	20.172831702643045
O	-3.0397639286964218	0.7902335658329558	18.694432860202408
O	-3.0086205950687788	1.9509282342669862	17.89320739083049
O	-2.922543350048052	1.927491951245335	16.522914087800753
O	-3.545377529437975	0.9195266353842191	15.857661169368761
O	-3.8028086637047176	-0.2083362640108104	16.57379028734161
O	-3.4520414685921184	-0.21729604166231986	17.89499689773219
O	-3.410390209157748	0.8596381627964933	14.518187336093565
