33

O	-2.8265191487807115	2.119612219040791	23.920984656068786
O	-1.9402670461749332	-1.8063969596600233	20.70327482170778
O	-2.105099740559419	-2.8135913666447547	21.552598598004927
O	-0.9175007647618969	1.594076492401386	20.001599536394274
O	-2.5908091662175536	-0.9948783044625356	22.837114849520272
O	-2.6128066174472933	-2.3416883856966146	22.750106427640226
O	-0.7541726250523397	4.24312512910276	18.019888523890017
O	-1.6985600083780508	0.7044291763163328	20.24483548430798
O	-1.839154482503007	-0.9455030939660835	21.74868633980408
O	-2.508105704288019	-0.03566821886014629	19.375223799078164
O	-1.5744813587546607	0.31529400843052646	21.495930216484812
O	-1.8870979006266408	-1.3187740754837507	19.369431530569017
O	-0.5757867610064604	4.458090121261283	20.17758204478905
O	-3.262925402982547	0.2381369993557472	22.625237521294856
O	-0.843544287083474	1.2618190342050255	22.277144207182857
O	-0.21576419998319407	0.46143790152875575	23.434753470098848
O	-2.971012282199874	0.9149568845021308	18.40188404318518
O	-1.9121788917489453	1.8171105701609407	18.089184577974404
O	-2.2832928503499135	3.1624649647069667	18.35449654098013
O	-3.4588273335093085	3.4283259441294796	17.742206421857183
O	-4.383617725598338	2.42816773313877	17.39698482970477
O	-4.076283849197956	1.1198221116814073	17.64440663095158
O	-3.1573449559270648	1.5860260740506709	22.305106878863565
O	-3.561720568529579	2.596126514459514	21.488166508168128
O	-4.531173736045262	2.248245364302716	20.643466624972167
O	-5.071058551891482	1.0545030483003455	20.790563464089427
O	-4.428843282899946	0.12985588403054601	21.73831769984433
O	-4.998002562248821	-0.027945415158767722	17.600773737966076
O	-1.3927495611281464	4.051746894406266	19.113810087001962
O	0.753623792084595	5.066844075034992	19.997833541867806
O	1.5389615954171805	4.518155221834067	21.367423754551233
O	2.135626459927766	5.173842862689437	20.273106365050626
O	-4.486694368337091	-0.7401802262365824	20.634535457930077
