88

O	3.3386321192754105	-1.2782282453622948	-1.0263440519262303
O	1.9690878692754101	-1.3376761953622949	-1.1219725269262302
O	1.3033870992754097	-1.3241732353622948	0.10563278607376975
O	1.6727985992754097	-0.5890032513622949	1.1855743190737698
O	2.9393943592754104	-0.05575047436229491	0.9602241890737697
O	3.76315078927541	-0.8473117293622949	0.21162947907376972
O	1.44223094927541	-2.263563275362295	-2.1290067809262303
O	3.7130864192754105	0.6280814186377051	2.0280973790737695
O	6.06777967927541	1.319803824637705	2.7570335090737697
O	6.06042614927541	2.649439914637705	3.38054689907377
O	6.28408634927541	1.4325809846377051	4.16224787907377
O	-0.05560558272459004	-1.7616368453622948	0.11479340507376978
O	-0.7383218507245901	-0.9635308953622949	-0.6979129069262302
O	-2.11646959072459	-1.020937825362295	-0.8089057349262303
O	-2.70274665072459	-1.6409742153622948	0.21582423607376977
O	-1.99777267772459	-2.007529055362295	1.3672272890737698
O	-0.58846383672459	-2.093921995362295	1.2762134690737696
O	-4.18412458072459	-0.16327977636229493	-0.34687662882623027
O	-4.26121866072459	-1.5830800253622948	0.22482084607376973
O	-5.28765704072459	-2.145645715362295	-0.6049001079262302
O	-6.70092416072459	-2.193189925362295	-0.12059762692623024
O	-6.52310681072459	-2.065315825362295	1.3197771490737698
O	5.04460172927541	1.009592459637705	1.8486208690737695
O	-3.15721750072459	-0.22049345036229492	-1.3918307309262303
O	3.3890256592754104	0.2067963881377051	3.1389697290737697
O	-3.71651551072459	0.540018132637705	0.6776844700737698
O	-5.06855075072459	-1.6166055453622947	1.4478075790737697
O	-6.78521459072459	-10.762841715362294	-6.64948265092623
O	-6.01410135072459	-10.914802215362295	-2.8907493709262306
O	-7.16164931072459	-8.032174805362294	-0.7158714979262302
O	-0.03853969072459007	-5.546717915362295	4.19059620907377
O	2.87987720927541	-4.608951885362295	6.59602069907377
O	5.2157539692754105	-7.675595745362295	6.61664195907377
O	3.5580445592754097	-9.130187665362294	3.5174698590737696
O	0.4720932992754099	-10.126094615362295	1.4853574990737697
O	-1.37909586772459	-7.798312095362295	-0.9089828119262302
O	-3.12002474072459	-8.414005075362294	-4.14812833092623
O	-4.93031848072459	-6.057788205362295	-6.40912383092623
O	-3.9047934707245897	-6.219361385362295	-10.04993619092623
O	-5.40258414072459	-0.451198859362295	-11.00510889092623
O	-2.5882336807245903	-1.3113554253622948	-8.62567955092623
O	-1.80358883972459	-2.971525935362295	-5.43808134092623
O	1.10477873927541	-5.401961355362295	-5.30902990092623
O	2.6351770992754098	-6.422931115362295	-1.9078135009262303
O	4.90472899927541	-9.528464655362294	-1.6713790009262302
O	7.199729939275411	-9.247142715362294	1.3203011290737698
O	12.99225550927541	-4.857364605362295	4.05911746907377
O	10.70399650927541	-0.05755904336229492	3.6791126890737695
O	8.83168200927541	4.025034604637705	-0.34561782042623024
O	3.33890036927541	13.064364084637706	-2.4327994909262305
O	-0.30130384972459	12.748635284637706	-3.2939572609262306
O	-1.3658922967245901	11.770208484637706	0.25168287007376977
O	1.4812577292754099	9.266592394637707	0.9214339690737698
O	1.79237942927541	5.707757364637705	-0.5317545179262302
O	4.89694564927541	5.680794864637705	-2.7840919009262306
O	6.35183679927541	3.224261414637705	-5.28811876092623
O	5.01637616927541	2.633363954637705	-8.733135780926231
O	7.33194867927541	-0.34260984636229486	-9.364122400926231
O	9.46599950927541	-2.837606575362295	-7.44996308092623
O	10.68997420927541	-8.494249255362295	-3.0581743609262304
O	7.408516669275411	-7.272610385362295	-4.63045938092623
O	6.36888491927541	-3.617504215362295	-4.19413611092623
O	3.71877233927541	-1.8498894253622948	-6.41482537092623
O	1.6126037792754098	1.1311368326377051	-5.50372809092623
O	-1.78105970072459	2.739664084637705	-6.21307768092623
O	-4.86484354072459	0.6891298296377051	-5.22345363092623
O	-7.1277397007245895	2.883423214637705	-3.19370253092623
O	-9.47801933072459	0.07410502173770508	-2.2327853109262303
O	-10.86371651072459	0.896287370637705	1.2607962390737697
O	-9.76914656072459	2.061367964637705	4.67081350907377
O	-11.04731539072459	4.900239034637705	6.79263421907377
O	-13.11993939072459	2.467718384637705	8.85502329907377
O	4.47500870927541	7.228932884637705	11.36210550907377
O	-6.78013450072459	0.9437375406377051	8.96886450907377
O	-3.69037892072459	2.328689924637705	7.32892336907377
O	-5.28531366072459	5.2916056646377045	5.78152772907377
O	-6.23816531072459	4.186608424637705	2.2964986790737694
O	-9.16219121072459	6.016150024637705	0.7947905090737697
O	-10.60317503072459	5.653008714637705	-2.7451390409262304
O	-6.55708140072459	9.640155284637705	0.9738778690737697
O	-2.97563148072459	8.227357064637706	1.2287992190737698
O	-1.05379386552459	7.347455244637705	4.39177721907377
O	0.24916566927540984	3.7796040946377047	4.47981877907377
O	2.81683116927541	1.898375874637705	6.68455203907377
O	4.62025756927541	4.969588924637705	7.95616540907377
O	8.25481626927541	4.744902784637705	9.23921361907377
O	7.98059410927541	1.0358353246377052	10.00841900907377
O	6.82379822927541	0.6947147726377051	13.65007430907377
