17

O	-3.0114028054003024	2.530699227694288	17.192910460801883
O	-4.092761390568685	2.792852746149351	17.973974907431593
O	-2.1848093230793486	1.5763219548719407	17.711301314069797
O	-2.702798675312602	-1.020303542607567	25.1652414500088
O	-2.4519208881619905	-2.050971228536789	24.25574014601822
O	-3.9845139825774964	2.715546609715623	19.366238575899313
O	-2.085235622633257	1.5515697916123101	19.100087002007236
O	-2.5662213626790846	0.2519024763971396	24.65729345139129
O	-2.7201576631974826	-1.8203420382663706	22.8922026212955
O	-1.8009200318498348	1.9537687139556899	21.775945462336736
O	-3.1541596436126307	1.8308805873045486	19.941815693476016
O	-2.9093236916781926	0.01542391524216602	21.289774584513705
O	-1.9937465751234813	0.3269682294953281	23.42080283881336
O	-2.3871213202472297	-0.5786950136486769	22.440313886683775
O	-1.4885509963775183	1.4751835018359878	23.00467733102642
O	-2.9824763820812645	1.3788288720292354	21.35292375673984
O	-3.3948936832718584	-0.7236541016292068	20.414014273268688
