107

O	-1.5138386083285718	4.609706254571426	-1.4227163266730158
O	-0.6227822083285717	5.129261604571427	-2.4025787386730157
O	0.6978307936714283	5.465264874571426	-2.1324815136730155
O	1.0020854636714283	4.793182844571427	-0.8778433886730157
O	0.5698261136714282	3.426533214571427	-1.1100295046730158
O	-0.4881191683285717	2.545964567571427	-0.8115495546730157
O	-1.5287057183285717	3.375399604571427	-0.5849124636730157
O	1.1155035536714284	3.0792423445714268	-2.2484549386730155
O	1.183679493671428	1.7663988785714269	-2.4682828206730156
O	0.006820423671428211	1.1046526635714269	-2.576504060673016
O	-0.9324894923285717	1.464998633571427	-1.6427816046730157
O	-2.7013100063285718	4.781894614571427	-1.9814816666730157
O	-2.7827492763285715	3.839949364571427	-3.034277830673016
O	-1.9045018223285717	4.231446724571427	-4.037183550673015
O	-0.6219471073285717	4.273581704571427	-3.577935460673016
O	-4.171671796328572	3.908176014571427	-3.3904169906730157
O	-3.5537317263285715	5.7835196545714265	-4.750902930673016
O	-3.1733036863285715	6.944153164571427	-5.399005910673016
O	-3.217062836328572	9.000111594571427	-6.039925530673016
O	-3.9682452563285713	10.169279274571426	-5.525592240673015
O	-5.966229636328572	9.210985084571426	-5.781951670673016
O	-4.436950026328572	5.1676108845714275	-4.073942290673015
O	-4.0160415063285715	7.870629184571427	-6.001558760673015
O	-2.438634966328572	2.774469776571427	-0.05593707067301579
O	-4.475374576328572	3.366622274571427	-2.2370240566730155
O	-5.176262746328572	9.939668764571426	-4.924921640673016
O	-5.390343646328572	7.812418734571427	-5.975102030673016
O	2.2174509836714282	-0.16021519542857332	-1.5744093698730157
O	0.9166808036714282	-0.48829398542857305	-1.3947327832730156
O	0.8456168536714281	-1.5832485554285731	-0.6204675226730157
O	1.8139757736714281	-2.621375655428573	-0.5803828216730158
O	3.0293255836714277	-2.058560895428573	-0.8275972646730158
O	3.1983999336714284	-1.1707341454285731	-1.7679086466730158
O	0.32101841367142825	0.1790553845714269	0.9557023493269843
O	1.4446491536714283	1.0564425985714267	0.8570111993269842
O	2.016892403671428	2.168022068571427	0.7339475993269842
O	3.205692693671428	2.525399771571427	0.33965865932698436
O	4.017134603671428	1.5122291705714268	0.7636034993269845
O	2.3526707336714283	1.051366590571427	-2.248686797673016
O	0.16847914367142836	-1.185991105428573	0.5492255493269842
O	-0.8733207073285717	0.3424682045714269	1.0144361293269841
O	3.013419513671428	0.2201664545714268	1.329132439326984
O	4.263676323671428	-0.37922268542857296	-1.5850675118730158
O	1.9659675036714284	-3.0916880054285727	0.638764469326984
O	-2.609728756328572	2.275914538571427	-13.614741900673017
O	0.7542956136714283	3.5115334645714267	-12.170571700673015
O	1.144111193671428	5.461899474571426	-8.899197800673015
O	6.975065313671428	1.6851257355714269	-3.777260070673016
O	9.97488880367143	0.07298278457142682	-1.5322087126730157
O	9.383796703671429	-1.924969085428573	-6.592031080673015
O	6.773405433671428	-0.14870814542857325	-8.753408370673016
O	3.094660123671428	0.3484613145714268	-7.818032240673015
O	-0.02442202632857171	0.33072315457142687	-9.860641430673017
O	-3.534128916328572	0.6811977845714268	-8.856974150673015
O	-6.057133766328572	-1.8256635754285733	-10.056634710673016
O	-9.652919666328572	-2.991055785428573	-9.802938600673016
O	-9.666794146328572	-0.9530676254285733	-5.206376050673016
O	-6.245344666328572	-2.3560944854285735	-4.758513180673016
O	-2.706757156328572	-1.4541653054285733	-5.063633230673016
O	-0.3523084873285717	-3.9170534154285734	-6.720169050673015
O	3.4789704936714285	-3.6324371554285735	-6.129545700673016
O	5.8736287436714285	-5.468042495428573	-8.475981230673016
O	9.186625303671429	-6.164243285428572	-6.7982851206730155
O	8.86811400367143	-8.357671165428574	2.970290009326984
O	6.682898103671428	-11.249352065428573	1.9665148493269844
O	3.210121643671428	-8.670029365428572	4.975476789326985
O	-4.493899466328572	-5.0495096154285735	11.671678899326984
O	-6.603837276328572	-2.1752759654285727	10.526408899326984
O	-3.7679084563285716	0.39852403457142693	10.777052099326983
O	-1.0500862053285718	-1.7610283754285732	9.188816799326982
O	-0.7341981713285717	-2.621696055428573	5.500729739326984
O	-1.2101340366285718	-6.386836935428573	5.021039059326984
O	-1.6146481253285718	-8.802610665428572	2.090631239326984
O	-4.741456856328572	-9.175135765428573	0.040960369326984214
O	-2.999629446328572	-11.445682965428572	-2.5282275806730157
O	0.4944779736714282	-12.299520265428573	-3.7530242606730155
O	6.8128394936714285	-11.240692265428573	-7.1016953306730155
O	3.6547008636714278	-9.078965565428573	-7.099380530673016
O	2.0773548336714285	-8.002744565428573	-3.7763185406730155
O	-1.6037444023285716	-6.847027565428574	-3.460716160673016
O	-3.069238716328572	-4.705557005428573	-0.7347416646730157
O	-5.449036526328572	-1.943966705428573	-0.026960060673015818
O	-5.037382746328571	1.1096486875714269	-1.9351706946730158
O	-5.096010296328572	4.053323964571427	0.5852595293269842
O	-4.480667396328572	6.917114354571427	-1.4988893582730158
O	-2.2075178763285717	9.394608514571427	-0.37064003067301576
O	0.4021714836714283	9.990225414571427	2.0687517493269842
O	0.37458346367142825	12.133761634571426	5.207902059326984
O	-0.7200045093285716	14.962358534571427	0.9391882193269843
O	-3.1689398863285714	15.363672834571426	3.8110802793269842
O	5.583182383671428	9.471565224571428	3.2651743193269844
O	4.984061883671428	6.046415214571427	4.7003699293269845
O	1.7535998036714282	6.656719294571427	6.479239399326985
O	-0.9155677643285717	5.818956734571427	3.821163609326984
O	-4.086310466328571	7.718277164571427	4.431862959326984
O	-7.427668506328572	7.367927844571427	2.5540098893269843
O	-10.03456507632857	10.098243164571427	2.1723791393269845
O	-8.532690046328572	9.956473754571427	7.078542009326985
O	-8.111673546328571	6.216360494571427	7.926557819326985
O	-4.399724556328572	5.441758214571427	8.276792859326985
O	-2.173589776328572	2.396136942571427	7.694066319326985
O	1.5108798736714284	2.109564058571427	8.444496499326984
O	3.604547583671428	1.048339426571427	5.562679049326984
O	7.174948273671428	-0.20374201542857318	4.568746669326984
O	7.805603223671429	-1.2373321854285733	8.147351649326986
O	10.48532870367143	-3.849362355428573	8.928413099326985
O	12.460806403671429	-3.0985739654285736	5.779282739326984
