35

O	-3.9150209738199466	3.9807613371788575	12.82510540324898
O	2.5122902490672065	1.2959502433095467	12.920112320195367
O	2.206296052314299	2.659101944009354	11.427122076611083
O	2.8522695237071822	3.2422211309129985	13.384027308052989
O	-3.3063152832144262	-1.7789728252678951	21.73006620819482
O	-2.3278157399014883	-2.8574089044037683	20.82761307966284
O	-3.185766624053707	-1.1972522932446925	20.40357436959618
O	-2.1713215216530344	-1.8738660730000392	19.76825640351111
O	-3.901429812941781	5.1682227041681355	14.92313590944595
O	-2.9261220682607862	6.285311588985327	13.5327372017387
O	-2.7847381251836	5.064965910758839	15.84630993879847
O	-1.738389867734019	6.144602690976837	14.370720167126857
O	-1.217647723574245	0.05191694930503066	21.351054085222597
O	0.004542683616162169	2.244740552340867	14.553142703535748
O	-3.2717370989859615	0.7990087512387576	19.616811488478074
O	-3.49021577300841	1.3059128787111474	20.853261113066896
O	-2.072863143481842	0.351223124151554	17.72737142255134
O	-1.1157030106389418	2.855939306217423	17.167965042326166
O	-2.4131975170426827	-2.5000315916098383	22.03939201925526
O	-1.1886718357877544	1.9162380709361255	20.912859231924344
O	0.2167482076715972	4.1765809957420394	13.778778628892093
O	-1.8810252315099114	2.8872866673866935	15.995722294994838
O	-1.3565873757580986	3.2244855878331427	18.501141175369423
O	-0.24727778594471977	1.9776141272980343	17.06767674007756
O	-2.8793172942079956	1.480517545389716	18.200070955203266
O	-0.46050409387949787	0.7358733891662079	19.650349856556232
O	-3.4546115889076634	5.129053363839266	13.571081452632814
O	-2.889500114707656	-0.7169492767009868	19.157458871726462
O	-2.009515613026555	1.1616120798090017	21.38471256562331
O	-1.4918446558598775	5.28901346571555	15.259719829857051
O	-1.093354004660081	2.9540500618764423	14.835639057430352
O	0.639161137761837	2.939799384862722	13.565031797959627
O	-1.089030712057483	2.341051277300717	19.557581644655052
O	1.7199558738121157	2.500347096520593	12.796555988571297
O	-0.6297835897445359	4.228978708282438	14.758956351593804
