78

O	-4.664716813528571	1.1373333456232153	0.6969302656267855
O	-4.173402843528572	1.6564429846232152	-0.45000363737321447
O	-4.128736983528571	-0.07617872537678472	0.9730752976267856
O	-1.6573590315285713	0.11455590962321532	4.949394917626786
O	-0.7348871555285714	-0.9420051753767847	4.883121547626786
O	-2.4402305935285717	0.4540566566232153	3.7367805076267855
O	-2.8663489035285714	1.3178673176232154	-0.7839922573732144
O	-3.0612522135285714	-0.6317541953767846	0.27831735562678556
O	0.6918057264714286	-2.2802656953767846	1.8387200076267856
O	2.109608216471429	-1.3199962453767848	0.5880701336267855
O	-0.5212880895285714	-1.1999892153767848	3.5261922976267854
O	-0.4969057365285714	-2.079517725376785	0.9296238776267856
O	1.0123242464714284	-1.2228672953767847	-0.4072592543732145
O	-0.7359995485285714	0.17256936962321534	-0.3337544033732145
O	-1.4897224895285714	0.7362741176232154	2.7598654376267855
O	1.5623128864714284	-1.1309090353767846	1.8691112576267856
O	-2.2084201965285715	0.19411402362321534	-0.4008014123732145
O	-0.2731517005285714	-1.1507745953767845	-0.04065698537321448
O	-0.6875162495285715	-0.21391396237678462	2.5522244376267857
O	-1.5808548925285715	1.9738312146232153	2.1570938576267857
O	0.7123599064714286	0.07551163762321533	2.1897120176267855
O	-0.11725306352857134	1.2341113626232154	-0.20983852737321446
O	2.247569746471428	-12.941429135376785	-1.1533035823732145
O	0.7698454264714287	-11.649842735376785	2.1532032276267854
O	2.307634126471428	-8.572962675376784	3.7711666776267854
O	-4.691239623528571	-3.127138295376785	6.058524107626786
O	-7.420429433528572	-0.4792999953767846	7.239581067626785
O	-8.91837032352857	-5.632760055376784	5.116188477626785
O	-5.897102553528572	-7.884963925376784	4.229665827626786
O	-2.9696723435285715	-7.078538235376785	1.9442124376267857
O	-0.8990190735285715	-9.079476635376784	-0.4714388053732145
O	2.0334916164714283	-8.129155025376784	-2.6530849823732146
O	1.6820892964714285	-9.136856175376785	-6.284735792373215
O	3.2604687064714284	-8.862039985376784	-9.699786692373216
O	5.191839356471428	-4.5614831253767845	-8.125407082373215
O	1.8372897464714286	-3.825550825376785	-6.594529592373214
O	-0.04259212352857156	-4.190465295376784	-3.5200914623732142
O	-3.5664223835285718	-5.580670325376785	-3.4966290123732144
O	-5.9441797035285715	-5.038206185376785	-0.43020583237321447
O	-9.131408703528571	-7.020200655376784	-0.028748070473214468
O	-11.728657733528571	-5.150978375376784	2.0250859576267857
O	3.595719076471428	11.312273464623216	-5.713690962373215
O	3.6347768564714285	11.272892764623215	-1.8890673523732144
O	0.020245776471428556	10.176503084623215	-1.3787224823732145
O	-1.2775059419285715	6.646652114623215	-1.9680570023732145
O	-3.7782638335285714	6.495387714623216	-4.7530827323732145
O	-5.4982770735285715	3.855182964623215	-6.843878242373214
O	-3.870200093528571	1.8866148446232152	-9.597888402373215
O	-6.845830773528571	-0.4244183483767847	-9.960311282373215
O	-9.971808273528572	-1.4725915853767848	-8.142803422373216
O	-13.806000533528572	-4.833141695376784	-3.1318800723732143
O	-10.055365973528572	-5.1395120953767846	-3.9534875823732145
O	-7.886159013528571	-1.972508195376785	-4.070066562373214
O	-4.523400863528572	-1.9061408953767849	-6.011078012373215
O	-1.6693084365285715	0.5714507885232153	-5.8710629123732145
O	2.0769490264714285	0.8969595916232154	-5.541196312373215
O	4.073781036471428	-1.4862385353767849	-3.3414768023732146
O	6.383946376471428	0.5262581338232153	-1.1132937123732145
O	7.436995616471428	-2.3199562153767848	1.0826553876267855
O	8.408423636471428	-0.8097687553767846	4.487349487626785
O	7.232497206471429	1.7240755746232153	7.048993687626785
O	9.144823066471428	4.599113144623216	8.586158617626785
O	11.51769796647143	-0.1154469013767847	9.387508177626785
O	13.714420766471429	2.6327871146232154	7.965718637626785
O	3.420580156471428	3.095290294623215	10.587691407626785
O	1.3852153964714284	4.983364644623216	8.009723877626785
O	4.177481676471428	6.397783564623215	6.0363345976267855
O	5.094831116471428	3.817966184623215	3.3604414776267855
O	8.683059846471428	4.106047424623215	2.2604230376267855
O	10.501134866471428	2.2101042346232154	-0.5224256683732145
O	10.594359466471428	7.681614614623216	-1.4886423323732145
O	7.526922896471428	8.135617374623216	0.7323759066267855
O	3.6863800464714283	7.962761044623216	0.3860938786267855
O	1.1090866864714284	8.881405774623216	3.0159960476267855
O	-1.3759476845285714	6.345324984623216	3.7894339776267856
O	-4.8341133035285715	5.7150869546232155	5.621278307626786
O	-5.689629563528571	9.277603164623216	5.396965077626786
O	-10.458651223528571	7.215619324623216	7.457303387626785
