108

O	-3.1283100770937677	-8.225125124134783	-3.013979678575362
O	-1.9260844033937679	-7.4852382341347825	-2.429395318575362
O	-1.518265535093768	-8.911214134134784	-3.067434598575362
O	-1.7097148850937678	-6.718131184134783	-3.5638989985753624
O	-1.5285335130937678	-6.740170824134783	-4.823991148575362
O	-0.42310942709376786	-6.002918334134782	-4.942780988575362
O	-0.46356530709376775	-5.266836714134783	-3.837618238575362
O	-0.1005151570937679	-3.9222108941347833	-3.8299009885753623
O	-0.6490590970937677	-3.147619204134783	-2.856197888575362
O	-1.886084951793768	-3.206704514134783	-2.320742248575362
O	-2.9796415370937677	-1.967976274134783	-2.2035631885753624
O	-2.722971852093768	-0.2668628641347829	-2.4903210185753624
O	-3.116253977093768	0.442739514865217	-3.6085235685753623
O	-3.9638430670937677	1.5711914268652172	-3.571475028575362
O	-3.8030386670937677	2.379201055865217	-2.4366628985753622
O	-3.745688977093768	1.636166079865217	-1.2614627315753624
O	-2.828526570093768	0.5865088468652171	-1.4070351825753622
O	-2.5434960500937676	-0.22799171013478292	-0.24019131957536222
O	-2.4736688870937678	0.47891318286521706	0.9005202814246378
O	-1.187409045093768	0.31873571386521704	1.3700974314246377
O	-0.2155805370937678	-0.28948197413478305	1.0582729214246378
O	-0.9933827550937678	1.7393640258652172	1.1043339914246377
O	-0.39741358709376784	2.3877566558652172	2.124454711424638
O	0.747593452906232	1.8950439258652172	2.5981064414246378
O	0.9536293729062322	2.768173195865217	3.6643252314246375
O	-0.2877915970937679	3.198179665865217	3.9366970814246374
O	-1.1350171730937677	3.114515925865217	2.956632201424638
O	-2.427674818093768	3.583161105865217	2.4891083614246376
O	-3.5785424870937677	2.7561286558652167	2.508029071424638
O	-4.726200807093768	3.398926315865217	2.0424563014246377
O	-4.595963237093768	4.643723645865217	1.3564012014246378
O	-3.689204197093768	4.180164585865217	0.3768438914246378
O	-2.629464299093768	3.6507225958652167	1.0573328514246378
O	2.232251502906232	2.608652295865217	4.257061521424638
O	2.793656162906232	1.269927287865217	4.510394481424638
O	2.3616012329062324	3.374868225865217	5.485787381424638
O	3.550517832906232	2.939760075865217	3.707595961424638
O	-2.287549553093768	-4.543415014134783	-2.4061636785753624
O	-1.713268553093768	-5.386477084134783	-3.309857908575362
O	-10.257404667093768	-7.4774739441347835	-8.372729678575363
O	-7.786152277093768	-8.836448574134783	-5.817060158575362
O	-7.060543867093768	-2.837458934134783	0.7765330814246378
O	-7.117586557093768	-0.862015384134783	3.977085161424638
O	-10.228879997093767	1.499828243865217	3.7046939814246374
O	-10.875197617093766	0.584801727865217	0.0637221544246378
O	-10.989498787093767	-1.974940044134783	-2.7331440285753623
O	-8.081092457093767	-3.146881714134783	-4.8516211285753625
O	-7.793629157093768	-4.297988374134783	-8.389255498575363
O	-4.911381027093768	-5.480445604134783	-10.443086718575362
O	-0.04855678709376776	-2.527868194134783	-10.870501078575362
O	-2.394049997093768	-2.569518594134783	-7.976749408575362
O	-4.983349017093768	0.23943341886521702	-8.006014008575363
O	-7.007987047093768	1.039877825865217	-4.799170438575362
O	-10.163245557093767	3.096976805865217	-4.705157198575362
O	-10.745167857093767	4.666786065865217	-1.3086867775753621
O	-14.249239267093767	3.806123705865217	0.0430330734246378
O	-7.367625447093768	9.334099585865216	7.388603351424638
O	-7.554029337093768	9.982011535865217	3.5752607414246373
O	-5.003980657093768	12.689783535865217	3.874285241424638
O	-2.835139708093768	10.703098985865216	6.196287791424638
O	-2.5905071280937677	7.738856195865218	3.717066941424638
O	-1.9088844976237678	10.080322795865216	0.7204549214246379
O	2.397313642906232	8.706396435865217	3.7850033514246375
O	2.316656662906232	7.036604935865217	0.2946819134246378
O	3.8806747629062324	10.034020115865216	-1.190656649575362
O	7.854471612906232	6.417538185865217	1.1921326714246379
O	10.662542632906232	5.701906265865217	-1.2701293335753623
O	12.229345432906232	2.254110025865217	-0.44848896657536225
O	10.647210632906233	-2.984488624134783	0.7638346614246379
O	7.917792492906233	-0.386117204134783	1.445256131424638
O	4.782415932906232	0.270422808865217	-0.6672664728753622
O	5.045974842906232	3.748371125865217	-2.249642698575362
O	3.194498902906232	5.651426945865217	-5.036914808575363
O	3.388106312906232	5.000280985865217	-8.721683398575362
O	0.4298827729062322	7.352891925865217	-9.508339298575363
O	-2.5961379150937676	8.988359355865217	-7.830812028575362
O	-3.924862487093768	5.294048555865217	-5.5120568185753624
O	-1.4682438260937678	3.164188725865217	-7.749135508575362
O	1.3428728629062323	0.947037617865217	-6.527621928575362
O	3.277891602906232	-2.177508584134783	-7.462543518575362
O	1.4252326429062323	-5.436900274134783	-7.782526138575363
O	3.117669992906232	-8.066312284134783	-5.692075678575362
O	0.5363978829062324	-10.638720864134784	-6.027217028575362
O	0.4523174329062323	-12.544080364134784	-2.698759308575362
O	0.7537871729062322	-12.215489164134784	0.9925661714246379
O	3.1450070029062323	-13.972641264134783	3.350047621424638
O	11.844690832906233	-1.8054719241347832	5.329183201424637
O	13.402280932906233	3.019882245865217	6.907354831424637
O	9.848583232906233	3.526464315865217	8.170895791424638
O	6.392527392906232	6.335884095865217	11.548266121424637
O	3.4777553229062317	0.21396147686521705	11.678718721424637
O	-0.30567021709376774	-3.851606594134783	12.931823321424638
O	1.5480687729062323	-11.730789964134784	7.404327721424638
O	-1.4346646010937678	-10.309988864134784	5.421308051424638
O	0.08838684290623222	-6.989786594134783	4.849447841424638
O	3.4216757029062324	-8.117507744134784	3.7259880014246374
O	3.0207817029062323	-8.220535414134783	-0.06162802057536221
O	5.3312903329062316	-10.779982164134784	-1.6430198885753622
O	8.709809132906233	-8.243806654134783	-0.1153874545753622
O	7.062887202906231	-4.808901074134782	0.5332903414246377
O	5.441421902906232	-3.666993514134783	3.7550953414246377
O	1.808276682906232	-2.487055374134783	3.2661157514246377
O	-0.6843315570937678	-0.8274036041347829	5.618505361424638
O	1.6741686429062324	0.784084642165217	8.098567621424637
O	1.0297218129062322	4.288376145865217	9.787754821424638
O	-2.744906724093768	3.797363285865217	9.616912721424638
O	-3.698102847093768	1.809827655865217	12.749478021424638
O	5.909659212906232	10.467679165865217	-10.784501478575363
