25

O	-2.4761622569107704	-1.1071972037097366	23.36188974277775
O	-2.207742863092828	-1.9131058588736607	22.318999031930865
O	-2.523833504322502	-1.592313516126149	21.031817302261565
O	-2.5145019303696343	0.21032940061385352	23.232028372523043
O	-2.196729417846688	2.2972419118642438	18.48680967381712
O	-1.9368005772833554	2.530751275663061	23.932226993515307
O	-0.5484737809286049	2.14399822965958	23.518261627175086
O	-0.40623687696489696	2.583950206263231	22.089308995154745
O	-2.3750687748042143	1.5986380409967418	17.330950478986843
O	-2.5103515870415443	1.9703031722573352	15.99442986285115
O	-3.123968097603475	3.213969916584805	15.882561391946112
O	-2.76961777571492	4.040783603385744	16.895915062023057
O	-2.3514477803998064	3.5795104002731115	18.188576498831647
O	-0.9064773157648978	3.8307006780408943	21.567973050999825
O	0.33524456467164665	4.418081826079163	21.26841515357699
O	0.4422423235178634	3.802244462026155	20.01310954083499
O	-1.618141922756768	-3.1290647400089497	22.51617254623217
O	-2.5710025494842896	2.774823517024001	22.670643405417888
O	-0.06130633755850701	2.2163535636419525	20.421589409608902
O	-2.5904675770693424	0.18410120493978843	19.628425894827767
O	-3.070776367005549	1.3874849940532983	19.3497911716596
O	-3.097684793029058	2.126376772071892	20.378790911375912
O	-2.6175474643337466	1.887755187615679	21.601080864505555
O	-2.4500420549379673	0.5994195584394615	21.93391500564919
O	-2.162879576033481	-0.22313994752935082	20.883143404272708
