89

O	-1.5042061496029409	-2.530076510155882	2.6506134145147042
O	-2.392357214602941	0.20469122084411773	0.16225039151470444
O	-1.904325077602941	-0.6253576301558823	-0.6151058114852956
O	-3.7760693576029407	0.31513985184411775	0.0626692585147044
O	-4.382595457602941	-0.9172440301558824	0.21471009951470443
O	-4.086162147602941	-2.1784761201558824	-0.14959087848529562
O	-3.3484609476029408	-3.1202582301558826	0.47603924451470436
O	-2.8265003176029406	-2.649410640155882	1.6384697745147045
O	-4.008539167602941	-2.206355970155882	2.2421115145147046
O	-4.5912616376029405	-1.2444010801558822	1.5156053845147044
O	-1.3772218356029409	0.5195290706441177	1.1312844645147044
O	-0.39798017160294086	1.1709128318441178	0.5835818545147045
O	-0.7857956276029409	2.3185359198441176	-0.042974048485295624
O	0.6168920623970593	2.6952156798441176	-0.17084838648529554
O	1.3713606223970591	1.6324455298441176	-0.4657499404852956
O	0.45212476239705923	0.5823360938441178	-0.3795588134852956
O	-1.9606800366029409	2.8710975698441175	0.7666872645147045
O	2.6031044623970585	1.3343543838441176	-1.1197524694852956
O	2.359143592397059	1.0708144928441177	-2.5537274354852957
O	3.5990298323970586	2.3425718498441177	-0.9123916324852956
O	3.3282248023970586	0.11173173984411772	-0.9733748504852956
O	-7.422303657602941	4.348022319844118	0.9225360345147045
O	-4.437925527602941	6.8326928298441185	1.1221739245147044
O	-4.672365847602941	8.677614899844118	4.557885384514704
O	-7.359148997602941	6.261947279844118	5.7729396945147045
O	-10.53730473760294	4.227471119844118	5.208666004514704
O	-10.66974470760294	0.7162858768441177	3.7254798445147044
O	-12.91218941760294	-2.1783042001558823	4.430815554514704
O	-13.03766801760294	-5.556317630155882	2.8821270445147045
O	-8.564520057602941	-9.191531280155882	2.7799613045147042
O	-8.562941287602941	-5.480947570155882	2.7433425645147045
O	-8.090843407602941	-3.6466066601558826	6.020051954514704
O	-6.994304267602941	0.0444906698441177	5.898000404514704
O	-5.165577837602941	5.105940899844118	9.237620034514704
O	-7.072412737602941	8.401425289844118	9.866482554514704
O	-2.032118853602941	8.855884339844117	12.387570554514705
O	3.905997362397059	9.614100609844117	7.007739184514705
O	2.461087242397059	6.804690459844118	9.193360564514704
O	5.9516536423970585	5.523802139844118	9.869002354514704
O	6.97482411239706	5.860543149844118	6.266399414514704
O	4.067403002397059	3.7935437398441176	5.120440934514704
O	4.415911092397059	1.0683182808441176	7.684237544514705
O	8.12310608239706	0.7794525658441177	6.7923575345147045
O	7.469138792397058	0.5969791088441178	3.0502151045147046
O	4.6175873523970585	-1.9703033901558822	3.3731573845147045
O	6.74453042239706	-4.1152287501558815	5.5638519145147045
O	9.59695618239706	-4.208980560155882	3.1021562145147046
O	7.609185772397059	-5.016541480155882	-0.11983594848529555
O	7.4715629423970595	-8.667774840155882	-0.9450599514852955
O	2.709746922397059	-7.1653985401558815	-8.284406245485297
O	3.2350234523970585	-4.858076980155882	-5.265070555485296
O	0.7797030023970593	-4.440677030155882	-2.280089335485296
O	2.426418082397059	-5.5505705101558815	0.8815111445147044
O	1.452539672397059	-6.3503056801558815	4.4002955145147045
O	-0.4856759586029409	-9.354395680155882	5.489779864514705
O	-2.9365345676029406	-2.3205056901558825	7.777713434514704
O	-4.024331197602941	-5.630283990155882	6.144990704514704
O	-3.330308117602941	-6.714369740155882	2.6394604945147044
O	-4.8362683676029405	-8.707864160155882	-0.22708398448529554
O	-8.199511027602941	-7.536142310155882	-1.4734962684852957
O	-8.052565387602941	-7.217613860155882	-5.198971015485296
O	6.323627202397059	-4.458430820155882	-10.041634505485296
O	11.18911678239706	-4.269523540155882	-7.975057925485296
O	10.15356838239706	-0.9838078501558822	-6.398866115485296
O	11.71536558239706	3.8612273498441176	-4.138162495485296
O	9.75362108239706	5.878034919844118	-6.700290935485295
O	5.913040612397059	5.810769629844118	-7.063349375485296
O	5.476896032397059	9.359544209844117	-8.214203125485295
O	1.670846552397059	9.173499759844118	-8.650838235485296
O	1.0594410323970591	6.065084199844118	-10.667597585485296
O	-2.492667967602941	6.145676889844118	-12.164666345485296
O	-5.280589027602941	3.6959948098441178	-13.036661345485296
O	-6.8903243676029415	4.192745009844118	-9.601423495485296
O	-3.9955679376029405	2.7927197698441177	-7.706449835485295
O	-3.485295157602941	-0.2760068651558823	-9.735666755485296
O	-5.527726087602941	-2.9206319301558823	-7.891718245485295
O	-6.705703467602941	-5.672954900155882	-10.252629655485295
O	-2.372629664602941	-6.6616695701558815	-10.799478645485296
O	-0.6486448476029408	-5.047030040155882	-7.756110795485296
O	0.721756922397059	-1.5299175001558822	-7.505061255485296
O	-0.8468012966029409	0.3964371524441177	-4.570711455485295
O	0.08349506239705917	3.7512566198441175	-2.8593145454852955
O	3.742741752397059	4.068674919844118	-4.128737285485295
O	6.481851432397059	5.929144199844118	-2.0443115754852954
O	3.9472724323970585	8.224056449844118	-0.3941755514852956
O	3.481154812397059	11.242434079844116	-2.6871018254852954
O	5.988808592397059	3.121782839844118	14.488523154514704
O	6.366374572397059	-10.998330120155883	11.242442954514704
O	3.561159832397059	-12.525244720155882	9.134943944514704
