39

O	-2.8489649558614327	-0.6719851942770668	19.585556903029197
O	-2.264079413063396	2.6588011541505674	19.5916041545777
O	-1.1823296926243354	1.8582771678034335	19.498588923401087
O	-2.628307042515061	-0.798864552774897	21.03159787886731
O	-3.8263872515628363	0.019695345738545367	18.726531825679736
O	-3.857619405003411	-0.78546340155763	26.44570161572835
O	-3.468230022736722	-2.1354576984025218	26.44809516693276
O	-2.8779842880623088	2.534450041493675	20.82156005877295
O	-0.42492684058574115	1.7574219278364396	20.71030573280824
O	-1.8062632837436516	-0.26632101011380105	27.080381649863085
O	-4.568550653481277	0.13906258175916897	20.69653004870507
O	-1.646328492298322	1.9344040006917886	23.820714984819126
O	-1.0151193235127143	-0.36818833347931534	24.655205629860106
O	-2.825559416594295	-2.6378528265153496	30.021272327629866
O	-1.6852523329795015	-1.6926076436629778	30.27214750819003
O	-0.08048932393001929	0.8376061800366842	24.24324012124029
O	-2.5991461166248886	3.5200254079082978	26.145768572509986
O	-2.2673699009367327	-0.09398746566901728	24.160704157303062
O	-3.363718993749327	1.5122861280905795	27.401722371031617
O	-1.3073803780734754	2.033814946672085	27.613520736975758
O	-3.976682775648977	-0.22960323569095042	24.115913224578556
O	-2.8084334206070856	-3.10088689318234	28.629882072751062
O	-1.0086194465306408	-1.5874238692138811	28.988895615155492
O	-2.287699372261116	2.3396777417973955	26.849825466994204
O	-3.1701771644107986	-0.6702707924773689	23.272888430045583
O	-3.1529629055531982	0.17953863084702026	27.083571299870624
O	-3.6567008782575163	-0.5078432754781128	21.853660737025915
O	-4.895486715331222	0.29842173908597347	19.328879460256026
O	-2.599284872421415	-2.34381976470217	27.45233928333131
O	-1.6307079732545005	-1.430823134512547	27.670405814864584
O	-2.671858841590708	2.508599326587868	23.168775516672884
O	-2.251771738155796	2.209519084608357	21.950233919990527
O	-0.9697667009467756	1.7700539331813152	21.93362315558481
O	-5.6591080672873755	0.5471613915394021	18.15300293501228
O	-0.6562436825809046	1.391535602098826	23.132942503244486
O	-3.51474399486115	2.999943046290786	24.504373129622675
O	-6.817757918921073	0.04081779169425781	17.864786290456795
O	-5.458385080603975	1.701459226901476	17.453540969632815
O	-5.301278008678011	-0.16675862692572807	16.92889276358929
