81

O	1.0174319993035712	2.2272150799375003	-5.072633533392857
O	0.879869389303571	2.3968674499375004	-6.483031903392857
O	1.0804155893035712	0.19387769793750054	-6.661577883392857
O	1.055624619303571	0.0014190899375003951	-5.212415703392857
O	1.043388229303571	0.9917961080375005	-4.178395793392857
O	1.0694663293035709	1.3500925919375004	-7.448969273392857
O	-0.26053144869642897	1.9016690359375006	1.265917746607143
O	-1.268793378696429	2.1308318499375005	2.2146053466071427
O	-1.957348041696429	1.0664249719375005	2.682385036607143
O	-1.657181341696429	-0.15039413006249958	2.0808198266071427
O	-0.663264024696429	-0.23101595006249953	1.0962468266071428
O	-0.659818172696429	0.9277103339375005	0.37522190660714294
O	-0.466895101696429	2.2112538599375005	-2.814881523392857
O	-0.698256634696429	1.0280371213375006	-1.092324613092857
O	0.4930984793035711	0.6991750749375005	-1.651808046392857
O	0.5321799693035709	1.2425829149375005	-2.903949873392857
O	-1.352809714696429	1.8876840769375005	-1.872408580392857
O	2.031034649303571	-0.12980543006249956	0.10225896660714295
O	1.583046339303571	-0.10838976006249945	-1.197479583392857
O	3.528223299303571	-1.2928475700624993	-1.8396617443928571
O	2.951500279303571	-1.1106646300624996	0.35240474660714294
O	2.350429309303571	-0.6667018200624995	-2.103341033392857
O	3.485843609303571	-1.8895189700624997	-0.6468219873928571
O	4.319820069303571	-1.9000967300624996	-2.833324433392857
O	-3.022180550696429	1.3524378269375004	3.441617626607143
O	-6.422944710696429	-10.999839680062498	-12.085980353392857
O	0.07154437930357105	-12.3956896800625	-4.392543393392857
O	-0.550135866696429	-9.3549734800625	-6.656752273392857
O	2.072049589303571	-6.5931530800625	-6.713838093392857
O	-2.550866470696429	1.2027431429375004	-5.694848993392857
O	-3.985467440696429	4.725269419937501	-5.405374583392857
O	-7.660796500696429	4.018687429937501	-6.3010456433928566
O	-7.269273900696429	0.2298112169375005	-5.912436773392857
O	-5.348145710696429	-3.0718190800624994	-6.424159493392857
O	-2.643106540696429	-4.4233282900625	-4.120781103392857
O	-1.6164883936964292	-7.8453115100625	-3.038146973392857
O	1.192853329303571	-9.0198993800625	-0.804391508392857
O	0.11148042930357094	-11.3537078800625	1.924208466607143
O	1.3258960493035712	-13.2316105800625	4.953642816607143
O	1.844693179303571	-7.1696376700625	4.625802986607143
O	0.449922949303571	-5.3167809200625	1.709459656607143
O	-3.300880380696429	-5.273571520062499	1.284399086607143
O	-5.048317070696429	-2.7177165900624995	-0.9775171823928571
O	-8.672583050696428	-3.3147978500625	-2.1532472433928573
O	-10.32814637069643	-0.02257466006249942	-2.999439623392857
O	-11.82692224069643	-0.09242751006249961	-6.554760813392857
O	-12.458222440696428	6.6562864099375005	0.3107713066071429
O	8.60780278930357	6.8941061599375	7.557285626607142
O	4.889428079303571	7.2396303699375	6.688230036607143
O	2.565439359303571	4.462788499937501	5.571447776607143
O	-0.11238263069642895	3.8879953199375006	8.162822516607143
O	-2.749422750696429	1.2737523109375004	8.897258466607143
O	-2.087312890696429	-2.1523955900624996	10.209541746607142
O	-5.697701120696429	-3.3099394300624994	9.706109046607143
O	-8.80435988069643	-2.3814547000624993	7.719332056607143
O	-12.85635734069643	-1.5284355600624997	1.7835127766071428
O	-9.50282317069643	-3.3679629500625	2.211823486607143
O	-6.612988920696429	-1.5718121300624996	3.822143456607143
O	-3.500384430696429	-3.3247797000625	5.353011786607143
O	-0.039818536696428986	-1.8574489700624996	5.792790166607143
O	3.6058194893035713	-2.8470968000624994	5.774257676607143
O	5.041912209303571	-4.4883892100625	2.699477496607143
O	8.264783539303572	-2.7006112900624997	1.7969475466071427
O	8.587868839303571	-4.3611935000625	-1.572487607392857
O	10.279498159303571	-1.8069311800624994	-3.902846443392857
O	10.22704955930357	1.8304341199375005	-4.928369093392857
O	13.89422115930357	-0.0013327800624995945	-8.090180243392858
O	7.352450729303571	5.722192829937501	-7.273846043392857
O	5.532713659303571	6.4368295399375	-4.066984453392857
O	8.48788778930357	6.1456891599375005	-1.758073602392857
O	8.463680589303571	2.537421149937501	-0.5574564573928571
O	11.836941859303572	1.1532286824375004	0.40492112660714286
O	11.73865225930357	4.2448896099375	3.6524547966071435
O	7.990058929303571	5.1321530799375	4.007773316607143
O	6.014752109303571	7.8141985799375	2.178578046607143
O	2.950222049303571	6.5301265699375	0.335416296607143
O	-0.20837838669642894	8.1203709699375	-1.303652850392857
O	0.08668231930357106	11.375198819937502	0.5399705166071429
O	-2.9494714806964293	13.693384819937501	1.0134173566071427
O	-4.79881095069643	12.2437655199375	-1.953078715392857
O	-3.883795800696429	14.325669419937501	-5.044567883392857
