31

O	-5.27736317396837	1.1034173691971736	17.52454970842179
O	-1.4022612861635122	-1.0010601353137762	21.995399507970564
O	-1.7446926766657285	-0.49008322784808456	19.595282072344023
O	-0.8673403829980884	3.9217024445431417	21.491709783401884
O	-2.4051870292984154	-1.6690890417146877	21.244484454834723
O	-2.2245085614062945	-2.4256693001647975	23.10529602421481
O	-3.05153674574158	-2.3968229003826127	22.109018666527167
O	-1.6065761803034417	-1.2625472798894855	23.322168651449925
O	-1.9041267166447984	0.026410144368321037	23.785069958631237
O	-3.8950008187075724	-0.22606354888320587	20.031483838502965
O	-3.192524918338288	0.684794376198203	23.619757297758436
O	-0.4847092880049064	4.745616913371737	19.515923200171237
O	-1.2594762057841071	1.1738279903036677	23.099893186904147
O	-0.6071333090616731	-0.6094520756439382	20.059086118890033
O	-2.80342393580707	-1.0711013230998463	20.130469931638995
O	-3.1338665310901543	1.6817125424088657	24.60959666522348
O	-2.245806777626074	2.7379996776868065	24.15798968286927
O	-0.980877421629651	2.121185135580254	24.165983786750285
O	-0.3184552669150995	-1.0660485957660273	21.228336441745814
O	-3.6183915847027532	1.0974729477565357	19.474178659196998
O	-2.4248278223296893	1.504715915575984	20.097956275584338
O	-1.972154909314637	2.6943420541563485	19.896264274644853
O	-1.8490740264017076	2.661627497022826	18.399010666076354
O	-2.6598439117650488	1.9845472915530533	17.53025301546659
O	-3.646880352436896	1.216721774350677	18.11516614359393
O	-0.927923828631116	3.579508941179052	20.29965587032804
O	0.7725649969962802	5.391286885292567	19.76652638955425
O	1.4126723275978246	4.818550013353298	21.16326591505746
O	1.9738813623640752	5.866376092949537	20.42277559461544
O	-4.141855099990247	-0.08922675355646001	23.11326780302609
O	-0.32154389388653826	1.1813606711111497	22.172222026134005
