26

O	-5.635215287979278	0.26354435166410417	17.512315198996266
O	-1.886194064668251	-0.8198862678578145	24.682159186942634
O	-2.4702619467503144	-0.612126075990711	25.958305271335576
O	-1.9732575285536011	-0.6133933546280061	27.27820448764396
O	-2.982325385827518	-1.2194442139450485	28.25310282276478
O	-2.7437284955159127	-1.1642759693423856	29.76194206698442
O	-2.571715778963167	0.2091837188381258	30.336939014611005
O	-1.4574264003269097	0.71597371948493	29.479708628100315
O	-1.7316345843202092	0.7335439589740194	27.96742663980316
O	-2.1078030654149837	0.1025241647423123	31.63001796185774
O	-2.2179560720615377	-1.9391529266974796	23.866077124234018
O	-2.2361304917410276	0.2994758437761226	23.77366490321468
O	-1.9181232711967549	0.1671985581602925	22.39459083519883
O	-2.4114489296841013	-2.006006295159333	22.4745832466047
O	-2.268426945685502	-0.9171191915941613	21.530647171523352
O	-2.1532034474953003	1.4243190135283614	21.732265517138444
O	-3.2781464700926533	1.411872244192878	20.855610843768865
O	-3.3195625041990064	0.5485700827928486	19.748997920288605
O	-2.8057266870201376	-0.7174582082021139	20.176430355290897
O	-3.7192655164044193	2.615201716959147	20.403801139918357
O	-3.2900491281664905	1.2100482920146596	18.59386846596986
O	-2.4218116641682093	2.416111892438977	18.635680003661143
O	-3.1703816038145907	3.409356892418799	17.816404896325793
O	-3.169614860154162	3.070062444424317	16.31912449132949
O	-3.8115711779179056	1.6943765311435077	16.174631633116046
O	-4.269427393403846	1.3283489399181228	17.535385763977466
