40

O	-2.3091845701160536	1.8771069264109306	24.536573045261875
O	-2.603620886992564	0.4126880377253776	24.317280230981552
O	-2.670490759293991	-0.22596380033433544	23.06553187827597
O	-2.7719001595507855	-1.322915278394209	22.3664784126276
O	-3.6545449882834826	0.8429125673643694	21.345260528580905
O	-3.4035846967231613	0.0005546000565458953	20.42264907848832
O	-3.936934291202288	0.4607418072148103	19.14301910869453
O	-3.272601494184017	0.6446653256250867	17.966193442181112
O	-3.4779846019731515	1.5018377565459287	16.847622303561476
O	-2.2740193922540266	2.340928755282707	16.434360950769808
O	-1.089088758625954	1.670575104755379	17.075143256884694
O	-0.7368158553626796	0.8964958340763469	16.182587565247953
O	-1.0977283592495801	1.199121768312442	18.545151737173043
O	-0.6944103389546088	2.5723974835127197	18.73752675542253
O	-1.2090650335482733	2.8845135023634225	19.918547645434074
O	-3.0743759616053588	-1.1984387832630017	21.041453843142317
O	-0.5315552603679998	2.205644728304497	21.082359636346613
O	-0.1253273573201148	1.1037833524846297	20.819602077501983
O	-0.7857356260032415	0.6088269390054825	19.69960200182495
O	-0.20080913108753484	0.5928152668435642	22.229686076864816
O	-0.035657762297540474	-0.5491937340713022	23.062565339950325
O	0.04451699536289544	-0.4643197863075584	24.51725428586813
O	0.18540431358042397	0.4947178419832085	25.445981047043663
O	0.6783867550568008	1.4824065068712522	24.618214089329626
O	0.42242412431748644	1.2956244702887099	23.272881084083345
O	-4.55765386878864	2.31266654583035	17.015355176745345
O	-5.606473845698002	1.6816719054514986	17.721805922998737
O	-5.247219157078096	0.8950684058770362	18.81012238184973
O	-0.8304721211024948	3.8549527497018254	23.219665659458496
O	-6.289032925479348	0.37024246795004206	19.753330803571526
O	-2.863824228093929	0.8747534037653497	22.362426839050013
O	-2.708649702375956	2.2562325953911486	22.698197229915447
O	-1.8377258749904857	2.794887949406358	23.58531062073795
O	-0.28974388906225856	4.750117321772301	22.3774181175837
O	1.0428252949730972	5.3296556003285644	22.40109899645965
O	1.7120363686735613	6.0160033907402894	23.472788171633006
O	-4.718330242547864	0.761531399869601	21.957863462315217
O	0.572092335930134	5.793958426902737	24.38004448478982
O	-0.09435468569238137	4.513391197955749	24.21421444287776
O	2.2707322385016617	7.285956678678117	23.101116212194455
