26

O	-3.6693229262112244	0.9060003239306094	17.439416455288907
O	-4.228831054987983	0.21214378250700205	18.494620757627626
O	-2.923902216717515	2.040744110445908	17.38626321352973
O	-4.697771289483798	0.60990425854944	16.495686452522918
O	-4.803323544023685	1.1954713699105988	19.20237765632509
O	-4.105874154135223	-1.0435809106593792	19.002948628880045
O	-2.7502083768603987	2.1983324245441844	16.071555086377593
O	-5.006064079646544	1.648241424123616	15.683190839036396
O	-5.966951087496173	-0.14459017371801014	16.87028576678286
O	-3.984969106747501	1.1413962097731079	20.24912880083077
O	-5.750288308969846	2.1393599080369134	18.542457973686567
O	-2.981161493630316	-0.8275407064641649	19.74698141138099
O	-1.6463042759821667	2.892841757105824	15.351169750707232
O	-3.9955249232431505	2.641675150681711	15.72979121437164
O	-2.8723961095493777	0.5007533510083028	19.884376172588052
O	-1.950183190171927	3.009633966730279	13.944349515303369
O	-0.6251346490602887	2.1911110413939165	15.457561758970122
O	-1.5879089898174676	0.9305920241005683	20.205545400608017
O	-1.1178906530074384	3.3940193060445103	12.89813767015906
O	-1.0858230311012558	1.1555413865379822	18.96147456244285
O	-1.1451327184519187	2.001226164501596	20.7497858620262
O	0.2217074770420493	3.1302210166303164	12.459571323041118
O	-0.27930230140765344	4.571066438066347	12.760987523373531
O	-0.6380600137534589	2.4274555521094996	18.47948900680051
O	-0.4510283391290022	2.699794058934241	19.916549674250668
O	0.6136408506141295	3.6892304257422333	20.470159356390358
