89

O	0.8285618046451609	6.197338846143548	-5.831986716290322
O	-0.4488069873548389	5.904933786143548	-5.358609906290322
O	1.7622336046451612	5.186507106143549	-5.6176319962903225
O	1.267895714645161	-0.1642114938564514	3.199149713709678
O	-0.10457890335483894	-0.2910077838564513	3.562060903709678
O	-0.44410780735483896	5.450362306143548	-4.041713056290322
O	1.774916864645161	4.641060526143549	-4.364085046290322
O	0.576206084645161	-0.6094408438564516	1.0444438637096778
O	0.606251984645161	2.9617179861435483	-0.8151961892903221
O	-1.712076085354839	1.5667593619435487	-3.260047106290322
O	0.14453801864516103	1.9857380791435486	-1.617196185290322
O	1.5995400046451613	-0.2576113738564514	1.8778626937096776
O	-1.072057629354839	-0.12310410385645132	2.571989203709678
O	0.748408414645161	4.9415487861435485	-3.512426606290322
O	-0.597714006945839	0.03320393614354855	1.309830043709678
O	-0.08677902435483897	2.788068716143549	-2.722097326290322
O	-0.7334463173548389	1.1931397431435486	-1.0628681691703221
O	2.5486261446451612	0.6636020201435486	1.115566173709678
O	-2.506474325354839	0.11211688614354864	2.742248163709678
O	3.696907224645161	1.9375123841435486	-0.8071307122903222
O	1.3509085146451612	3.5441149061435486	-1.7102748042903222
O	-1.270954040354839	2.8459819961435486	-3.333066746290322
O	-1.568536933354839	0.8166994041435486	-2.0687832642903223
O	0.465765844645161	3.9399913061435488	-2.485121936290322
O	-1.038367434354839	0.8531516401435486	0.24292641370967782
O	2.714567774645161	1.1244575731435487	-0.1592656872903222
O	3.629825194645161	0.2582447661435485	1.659549603709678
O	-7.5212121553548394	12.16758641614355	0.24467001370967778
O	-3.752831415354839	12.13019171614355	1.057027453709678
O	-1.328859484354839	10.305708456143549	-1.2905351372903222
O	3.764010864645161	5.157976416143549	3.5404187137096774
O	6.439590694645161	3.030858476143549	5.7211035337096785
O	6.12157989464516	4.271889656143548	9.331261633709678
O	2.869364684645161	6.177905836143549	8.615038903709678
O	0.6566531646451611	8.451370516143548	6.433197813709677
O	-1.5034774493548388	7.184277686143549	3.454736173709678
O	-4.808905605354839	8.422359416143548	2.2414904237096778
O	-6.888942315354839	7.213359296143548	-0.6339598142903222
O	-10.498937605354838	6.498637596143548	0.1784559537096777
O	-10.853617835354838	2.3462875281435487	-4.1763344862903224
O	-8.58226985535484	1.7674072221435486	-1.2109172092903222
O	-5.461181455354839	3.0173432161435487	0.3879164137096778
O	-5.58886935535484	3.4851150261435486	4.161301993709678
O	-2.353918655354839	3.8799716961435484	6.190629173709677
O	-2.300436635354839	5.270985076143548	9.711873433709679
O	0.742823334645161	4.061060076143549	11.603226733709679
O	3.9897841546451613	-2.4574864238564516	14.255699533709679
O	3.9747704546451614	-5.270311243856451	9.728699733709679
O	0.34027471764516104	-7.960086793856452	5.838339163709678
O	-1.138734338354839	-13.11084778385645	-3.6638941162903222
O	-2.072804915354839	-10.924650883856451	-6.591159176290322
O	1.337604934645161	-9.228862183856453	-6.874762806290322
O	1.872964834645161	-8.68831098385645	-3.113988866290322
O	0.11720133764516105	-6.038411413856451	-0.9852006582903222
O	-2.100327585354839	-7.759763273856451	1.6187599737096776
O	-4.775230835354839	-6.630091503856451	4.086614533709678
O	-8.28378338535484	-5.6714713038564515	3.1430541537096777
O	-9.116694165354838	-4.417899903856451	6.658172443709677
O	-7.356390245354839	-3.2575869838564513	9.812680333709679
O	-3.4784894853548387	1.2008593491435486	13.974880833709678
O	-4.967920635354839	1.7861232961435487	10.475195333709678
O	-4.2183398853548395	-0.6998091338564514	7.670349573709679
O	-6.41188184535484	-0.9861139638564516	4.476233043709678
O	-5.207855655354839	-2.3340864238564514	1.1684469437096778
O	-5.8374360153548395	-1.9241594138564513	-2.581211376290322
O	-4.990707055354839	1.6072714372435486	-4.055966516290322
O	-2.6979879453548388	1.1471868141435486	-6.978185126290322
O	-2.131605315354839	4.785140776143549	-7.520109306290323
O	1.384670204645161	5.046701466143549	-8.967198556290322
O	4.845267664645161	3.7493811561435484	-8.495673086290322
O	7.137972894645161	2.283348187143549	-11.108598666290321
O	8.954489994645161	5.5993021561435485	-11.477891566290321
O	5.156395634645161	4.5513910161435485	-15.126819366290322
O	12.186533764645162	-7.734013363856451	0.9599530237096778
O	9.102469494645161	3.4091152161435483	-5.400165626290322
O	7.805483414645161	0.3071519261435487	-3.741364926290322
O	6.361803904645161	-1.3947177438564515	-6.7031154262903225
O	2.7510221646451614	-0.07403955385645133	-6.738658056290323
O	1.3596353446451612	-0.14992601385645132	-10.256868486290323
O	-2.190979665354839	0.6591456541435486	-11.420149666290321
O	-0.8568231633548389	-4.536882383856452	-12.760525066290322
O	1.825927124645161	-4.573463253856452	-10.055126656290321
O	2.0170990546451613	-5.298030763856452	-6.270670116290322
O	5.19631348464516	-5.545102213856452	-4.220537046290322
O	5.12759745464516	-3.3814867838564515	-1.2066646922903221
O	7.025730584645161	-2.784052573856451	2.2368975337096777
O	8.589343974645162	-6.186705583856451	2.133883803709678
O	9.876999364645162	-7.657369013856452	5.4059529437096785
O	10.34607336464516	-4.296670913856452	7.110090333709678
