80

O	-1.5346601653842111	-4.968479212349123	1.9946858165087717
O	-1.5824875293842111	-3.9161733123491227	2.914805666508772
O	-2.034892363384211	-2.735575002349123	2.460417976508772
O	-1.932002015384211	-2.586416412349123	1.1395426025087718
O	-1.580350806384211	-3.594036642349123	0.10526014650877186
O	-1.924762251384211	-4.743505232349123	0.7068829575087718
O	-2.262932138384211	-2.7077110923491228	-0.8922404634912281
O	-1.207649475384211	-1.6957296223491227	-1.078611903491228
O	0.10786624061578887	-2.014106922349123	-0.8496245334912281
O	0.7536548906157889	-1.3597841323491227	0.19368932190877186
O	0.12993515061578886	-0.3000552153491228	0.6326718185087719
O	-1.048912087384211	0.23887262165087722	0.12520394150877187
O	-1.839233111384211	-0.7889332523491228	-0.2880605434912281
O	0.354611580615789	-3.265575162349123	-0.9567716434912282
O	0.33821167061578894	0.42492771985087724	1.7522325465087718
O	0.23687877061578888	-0.40242059834912275	2.900171126508772
O	-0.792965883384211	0.41339261935087723	3.492726346508772
O	-0.7231978883842111	1.4520433376508772	4.420298216508772
O	-1.796559466384211	1.3536468046508772	5.350549546508772
O	-3.027073109384211	1.3010677176508771	4.683883076508772
O	-2.916652139384211	0.14468761565087723	3.869064226508772
O	-1.982409666384211	0.4027539015508772	2.848832466508772
O	1.2485552806157891	-2.247671192349123	1.8665176665087717
O	-10.209925549384211	-1.5388992123491227	-8.258859033491229
O	-9.658333149384212	-4.273355562349122	-5.6158273834912285
O	-6.099386259384211	-5.472552652349123	-4.9888136834912284
O	-5.024217369384211	-5.313328182349123	4.2881916165087715
O	-4.244062669384211	-5.655061812349122	8.058230896508771
O	-9.670492479384212	-4.540426442349123	6.195657736508772
O	-9.926887379384212	-4.568147492349122	2.3294668865087718
O	-7.842448929384211	-2.623460102349123	-0.20420488249122815
O	-8.569903699384211	-1.0077250923491228	-3.508106393491228
O	-6.395231849384211	0.8678056376508771	-5.950582683491229
O	-7.754858749384211	4.226427167650877	-7.016861453491228
O	-6.984943819384211	7.349436947650878	-8.976666553491228
O	-2.222866315384211	6.3851355476508775	-8.014860173491229
O	-3.273138509384211	5.511560717650878	-4.523510613491228
O	-4.227637049384211	2.651444887650877	-2.428887033491228
O	-7.291322669384211	2.9256365776508773	-0.20906864749122817
O	-7.923680319384211	0.5032622876508772	2.755462126508772
O	-11.333771349384211	0.23095864065087723	4.4166433565087715
O	-11.203670449384212	-1.0233646723491228	7.985071656508771
O	10.407690180615788	7.384772817650878	2.0405797765087716
O	10.740521480615788	3.654771077650877	2.847917496508772
O	7.84480532061579	3.4499788476508773	5.338578896508771
O	4.150703290615789	3.502989597650877	4.370071966508772
O	2.452045790615789	6.575415887650878	5.707149666508771
O	-0.8306272443842111	8.429425117650876	5.335340216508771
O	-1.865080657384211	10.400160907650877	2.350259456508772
O	-5.437220139384211	10.739131807650876	3.589892276508772
O	-12.534185619384212	4.440620317650877	8.569945286508771
O	-10.638632029384212	4.538889927650877	5.216101676508772
O	-6.939618349384211	5.078635267650878	4.9901800565087715
O	-5.019258079384211	6.271126817650877	1.8711918065087718
O	-1.418415405484211	5.971777047650877	0.8462726385087719
O	0.873218370615789	5.340130377650877	-2.075951723491228
O	0.18827537061578892	2.512224987650877	-4.476289263491228
O	3.315368400615789	0.45774506555087724	-4.871616063491229
O	1.816567150615789	-2.262227522349123	-6.9925731934912285
O	3.8823333806157896	-5.441998972349123	-6.103329883491228
O	5.488986250615789	-7.301125802349122	-3.196800053491228
O	9.003440580615788	-8.562083822349123	-2.829733083491228
O	6.584994130615789	-10.514764192349123	-7.157623203491228
O	9.998198680615788	-8.956980342349123	-7.785807803491229
O	4.5083197106157895	-9.836832992349123	1.4537460365087718
O	4.740288630615789	-6.704092232349122	3.503969106508772
O	7.444025470615789	-5.056072262349122	1.600459006508772
O	5.761784410615789	-3.024468362349123	-1.1421924534912282
O	7.87832408061579	-2.424486642349123	-4.157008143491228
O	7.056958830615788	-0.3105053193491228	-7.247313303491229
O	8.389829440615788	-0.7993246623491228	-10.75873997349123
O	12.324907280615788	-1.0406747623491228	-7.332551523491229
O	11.569925780615788	1.6351201476508772	-4.6776505934912285
O	10.509139980615789	-0.05770168134912279	-1.4280211834912282
O	8.249211210615789	0.7914527866508771	1.5740128265087718
O	7.76522122061579	-1.2472616023491228	4.757497576508771
O	4.2596427406157895	-2.053842702349123	5.638618626508771
O	2.0458348806157893	-3.473383052349123	8.575276356508772
O	4.663159750615789	-2.543633152349123	11.109769426508771
O	0.6260942906157891	-4.198255912349122	14.613895526508772
