77

O	1.1770426698518515	0.5602733296227774	1.5450522888444462
O	1.8353801998518513	1.4422025190227776	2.353054304844446
O	1.2207636498518513	2.572845523022777	2.798301224844446
O	-0.08955176014814858	2.3809677930227773	3.1322252948444462
O	-0.8703308431481485	1.3834184330227774	2.490176534844446
O	-0.13217924014814852	0.7502762230227775	1.486114929844446
O	-0.7896749131481485	3.2061127530227775	4.013649514844446
O	-2.0360359101481484	2.7950960230227775	4.508301624844446
O	-2.7475653801481483	1.9530519030227775	3.698226084844446
O	-2.2096002101481487	1.7595595530227774	2.411289894844446
O	-0.7965332961481485	0.49078049182277744	0.29321552884444607
O	-1.9843504331481485	-0.2563795299772226	0.606342968844446
O	-2.1321920041481484	-1.2321558569772226	-0.3050774851555539
O	-1.9802391141481486	-2.6065617269772225	-0.12529958415555398
O	-2.7994300701481487	-2.7250468669772223	1.006720565844446
O	-3.1814615001481483	-1.6495701469772224	1.908692314844446
O	-2.1469252101481486	-0.8034158969772225	1.9018760848444463
O	-1.2568647992481485	-3.848182296977222	-1.165233945155554
O	-2.2034525251481485	-4.402518876977222	-2.534359595155554
O	-2.7424930701481482	3.449027533022777	5.4864050848444466
O	-3.8871568301481485	4.2385817330227775	5.519502204844446
O	-4.083422010148149	1.7742475130227775	3.971300414844446
O	-5.2076542001481485	2.586304113022777	3.870376804844446
O	-13.238033700148147	10.211609993022778	-4.456932965155554
O	-3.2949920301481486	11.677698313022777	-3.123290855155554
O	-5.753449330148149	9.204876823022778	-1.5069723151555539
O	-4.695378670148148	7.479898773022778	1.680836105844446
O	-6.484207890148149	-1.2098982269772225	0.638719432244446
O	-7.391201690148148	-5.068851386977222	0.5135493608444461
O	-9.767234410148149	-5.353358616977222	-2.4621770951555537
O	-8.947357770148148	-1.8296725469772224	-3.6995563051555536
O	-8.215529760148149	1.8843862730227774	-3.1186506251555537
O	-4.8401215101481485	3.4173914730227777	-2.439084475155554
O	-3.2140070101481486	6.660051263022778	-3.347421175155554
O	0.16773771985185149	8.051570443022777	-2.475775265155554
O	2.1601733098518516	9.260251343022778	-5.427496485155554
O	5.504179029851851	10.621105713022777	-6.496753255155554
O	7.483873299851852	8.375444013022777	-8.783583765155555
O	5.115821069851852	5.273232073022777	-3.6196068451555536
O	1.7811799098518515	3.8050319330227778	-2.829167265155554
O	-0.4010551791481485	2.8267605230227772	-5.797477585155554
O	-3.4183533701481483	0.47605123079277745	-5.272885815155554
O	-6.175665860148149	0.1330555590227775	-7.870008815155553
O	-7.9274564301481485	-3.200423606977223	-7.583996935155553
O	-11.735800700148147	-2.7137062669772227	-7.240714525155554
O	10.122026099851851	-6.381284936977222	5.926729064844446
O	7.502960239851851	-7.628347806977223	3.404567914844446
O	5.504739669851851	-5.498174776977223	0.907225448844446
O	6.594461749851852	-6.417838476977222	-2.6225204051555537
O	7.784264369851852	-1.8987625169772226	-7.435928135155554
O	5.6060785098518515	-1.8192034869772227	-10.577041615155554
O	-4.929023360148149	-3.7115283269772226	-12.335892215155555
O	-2.7727514201481487	-1.1122686169772225	-10.481545815155554
O	-0.03702394014814847	-2.302767696977223	-8.109821595155555
O	2.927215619851851	-0.07187444797722253	-6.928641545155553
O	4.899152459851852	-0.5121607849772225	-3.733910875155554
O	6.730917469851852	1.5322350930227775	-1.088292685155554
O	4.804201129851852	4.169643943022778	0.8217856208444461
O	5.426224809851852	3.698089023022778	4.510041134844446
O	2.7149608298518517	6.073969063022778	5.609731574844446
O	1.4223186098518514	4.812880253022778	8.976668054844446
O	0.32890034985185146	1.7127978830227775	10.733718984844446
O	-0.45155900814814853	5.2132822230227776	14.476147784844445
O	-3.3079733901481485	-2.226027526977223	10.955549384844446
O	-1.4700311051481485	-4.188219026977222	8.347496184844445
O	1.9852712598518516	-3.543503566977222	9.586623844844445
O	3.212820369851851	-0.5229364549772225	7.619290314844446
O	5.778483329851851	1.5463902930227775	9.499525584844445
O	7.6511333098518515	4.640655053022778	8.253189114844446
O	8.396085899851851	-2.070883536977223	9.153130164844445
O	6.810666709851852	-4.104589026977222	6.2766035648444465
O	4.110220579851852	-6.7785847769772225	6.539417604844446
O	1.0894622498518514	-6.043873566977222	4.344852604844446
O	-2.0072032061481484	-8.006408696977223	3.0505886048444464
O	-0.5629848041481486	-11.355566486977223	3.8487563148444464
O	-5.110295410148149	-13.099084286977222	1.1763307388444462
O	-7.466839010148148	-14.088559086977222	4.014072744844446
