84

O	-1.1773050240677958	3.4128376026610168	1.2331417673050857
O	-1.750358661067796	2.275935242661017	1.6669865773050858
O	-1.2139108110677959	1.0420338146610169	1.4447956773050856
O	-0.4368314000677958	3.444601422661017	0.1354623373050856
O	0.7673638889322043	-1.016023647338983	-2.2364612256949146
O	0.2505228889322042	4.413028012661017	-2.0549870826949146
O	-1.094930410067796	3.9348636726610167	-2.5127106026949146
O	-0.8714814507677958	2.568028192661017	-3.093680512694914
O	0.6372197389322043	-2.245468837338983	-1.6642813606949143
O	1.0517294289322041	-3.5248029773389824	-2.0306277016949146
O	2.237545778932204	-3.475736897338983	-2.756698532694914
O	2.2979812689322046	-2.3747235573389833	-3.5442186026949143
O	1.6004661389322041	-1.1539468473389831	-3.2582298426949143
O	0.25187294893220424	2.2094203226610167	-3.921867502694914
O	-0.4624908440677958	1.9653124826610169	-5.107919992694915
O	-0.7820841750677958	0.643049244861017	-4.767366922694914
O	-2.907807411067796	2.315251092661017	2.390747117305086
O	1.0130136189322043	3.1998658126610167	-2.0400903226949145
O	-1.2286176940677958	0.863131932661017	-3.1279650726949146
O	-0.10794540006779574	-0.13398704633898306	-0.14372950269491436
O	0.9568334489322041	-0.257279164338983	-0.9231597066949143
O	1.2914792889322044	0.854159202661017	-1.4313353706949143
O	0.6650341889322042	2.0312401426610167	-1.3720745752949144
O	-0.18475749406779574	2.2025798726610173	-0.3487749546949144
O	-0.7818537560677958	1.055558378661017	0.08826638730508574
O	7.023660598932204	9.152057152661015	7.083627837305085
O	6.734918628932204	9.240917422661017	3.2535530173050855
O	3.257050558932204	8.993210192661016	1.7479646773050856
O	3.942896388932204	2.756267342661017	-4.782577532694915
O	3.8971049789322043	0.192057740661017	-7.859864342694914
O	7.648698908932204	-0.255467117338983	-8.614213722694915
O	8.645019818932203	1.404602282661017	-5.281739062694914
O	8.403263058932204	4.146148062661017	-2.5838935026949144
O	6.023490708932204	4.051379402661017	0.40560461730508557
O	6.339386868932204	5.265882332661017	3.9204049573050854
O	3.9891117789322044	5.128894252661017	6.834369807305085
O	5.385143838932204	3.6995501826610173	10.001735207305087
O	-0.004225690067795829	1.730564152661017	11.868054807305086
O	1.5877059489322043	0.254738487661017	8.759086907305086
O	2.6171967289322042	1.064199717661017	5.276667627305086
O	6.043295888932204	-0.05680216233898305	4.155248387305085
O	6.983895568932204	-0.19056665233898307	0.43965272730508564
O	10.625485358932204	-0.40769017733898294	-0.6689418316949143
O	10.943341758932204	-1.960406427338983	-4.086844552694914
O	12.945691658932205	0.303328287661017	-6.467756162694915
O	9.499711058932204	-8.636043737338984	-7.8346343426949145
O	-10.839402871067795	-6.171732797338983	1.2981404473050857
O	-7.533629591067796	-7.137173257338983	-0.3715012556949143
O	-4.062633681067796	-5.8215557873389825	0.5567323173050858
O	-1.9489269010677959	-8.681089347338984	1.9147174873050858
O	1.3903051589322042	-9.054031707338984	3.728255767305085
O	1.9791213589322043	-8.123615167338984	7.278262537305085
O	5.756118528932204	-8.568313227338983	6.977712327305086
O	8.491784158932203	-8.701502037338983	4.352530507305086
O	12.955949958932203	-5.971551347338983	-0.6765139356949144
O	10.616903158932203	-4.128599227338983	1.7688584273050856
O	7.021132098932204	-5.179954227338983	2.0519698373050854
O	4.605661598932204	-4.288789507338983	4.915184537305086
O	0.8743533389322042	-4.040019697338983	4.982118447305085
O	-1.9796793010677958	-2.102547797338983	6.584495277305085
O	-1.9953931910677958	1.671445015661017	6.3415106473050855
O	-5.428969151067796	2.7775246526610173	5.138622957305086
O	-4.442010111067796	6.384946642661017	4.557290527305086
O	-6.452597911067796	7.571251472661017	1.5107164173050858
O	-7.661748961067796	6.6002264226610174	-1.8763235546949142
O	-11.256005041067796	6.645078612661017	-3.1403952326949143
O	-10.777667071067796	10.011862822661016	-4.831083002694914
O	-9.759884551067795	11.418940272661017	-1.3918234766949142
O	-13.082769941067797	10.162040892661016	-0.03175886269491435
O	-6.672119121067796	5.450060562661017	-6.999518842694915
O	-6.157947031067796	1.767743402661017	-6.152920792694915
O	-8.809148421067796	1.378631039661017	-3.6547138626949147
O	-7.272794711067796	2.1918468626610172	-0.26353857269491443
O	-9.955305721067797	3.453276282661017	2.1330492473050855
O	-9.569685001067796	4.257961512661017	5.874273047305086
O	-11.719916341067796	-0.618594487338983	1.7138764673050855
O	-8.835483671067795	-2.7963856273389833	0.37616319730508563
O	-7.952169801067796	-3.4648228773389826	-3.251970222694914
O	-4.406241031067796	-2.7141244673389826	-4.113252642694914
O	-1.9339519210677958	-3.4361874073389824	-7.110267102694914
O	-3.8358930710677956	-6.239535907338983	-8.423605562694915
O	-2.143418171067796	-8.897307657338983	-10.650537842694913
O	0.6710286189322041	-6.556883997338983	-11.700235692694914
O	-0.4088101090677958	-4.9253396473389826	-14.980025492694914
