27

O	-0.7969858567186785	-1.58084527707193	27.32138269463531
O	-1.9093595559800223	-2.2168616277744726	26.774239834894303
O	0.15240027407238355	-1.1833273745963249	26.38323703719937
O	-3.1438297211105626	2.3997015121354806	17.27791051788289
O	-4.326724459532639	1.687052954226779	16.925262706655825
O	-2.46841183874274	-1.5067280154117966	25.71402975005615
O	-0.3325281933614721	-0.5421903380860492	25.277415860670676
O	-2.3084221804413936	0.3611908463627309	17.960544772003658
O	-2.558763293349466	0.42866398640501224	21.978643324114646
O	-2.4357408921199664	-3.215440118721616	21.92188621415829
O	-2.1056498004420003	-0.7544119849225067	21.527046194513694
O	-2.130665939327485	1.713247306484825	17.883542944955323
O	-4.565371671783927	0.45408908679505555	17.53131246686823
O	-1.68212949129488	-0.550986634060819	25.0587063443344
O	-3.5689593578410674	-0.009862763485374237	18.327799128341628
O	-1.9603402652656317	-1.3501613778658021	22.76882570659654
O	-2.7812735394351957	-1.2516904265303244	20.525749594715304
O	-1.3336266677476798	2.1661478265693046	19.10424115552825
O	-5.820053541295173	-0.2973946377682749	17.585293050383125
O	0.1258271938460105	2.110582729062764	21.22675554074335
O	-1.718032473191483	0.5378258899886329	22.966631489008304
O	-2.530916349401061	-2.5153319852495923	23.078225830377487
O	-2.7136245105372	-2.6020165380232063	20.677380217801947
O	-2.097059107933921	-0.4172379329060719	23.66288981222885
O	-3.6079389815049963	-0.7125686923711305	19.55639914565287
O	-0.6722607754152015	1.5987891489343062	20.15582093209789
O	-0.6765778052514211	3.094976338808517	18.525632264869152
