22

O	-3.323746412512339	2.0902650823226097	16.64623334372923
O	-3.3972807685500532	0.840803608404953	16.13656645648981
O	-3.9030679308670875	2.1727211828502524	17.86841564321844
O	-0.697143637665143	3.261817729168995	21.107416190003118
O	-1.2139146928849467	2.808229900401069	22.331701126608603
O	-1.3840777052442943	2.867192809370672	19.854030731887836
O	-3.386272082325586	-0.21095316806079878	17.046653471356795
O	-4.339318580053235	1.073881000568859	18.598560875284097
O	-3.42156908531995	-0.029313071366867005	22.743267041897187
O	-2.898174645118457	-2.0714438941654465	22.51486742033034
O	-2.087993858395702	1.7597960199317983	22.03135245239724
O	-4.185565896449948	0.09402436948401438	21.44677669809387
O	-3.7567577434293042	-2.0494738689450926	21.303876456016283
O	-3.265483075911445	-1.1009293288757562	19.337103719305222
O	-1.3835441945242835	1.4752969675850383	19.864084887359105
O	-2.2338363454596903	-0.8360029279101051	22.608102366081084
O	-3.796082609717769	-0.1542674158143511	18.339467816146158
O	-3.9438069014356207	-0.9341991414496231	20.587484184949783
O	-1.939904628639574	0.9815431356347821	20.882012804519995
O	-0.8132585181253882	0.8558698908896558	18.771258000419465
O	-1.437482612042242	-0.2832343697232682	21.45011989293334
O	-2.1794472984928426	-1.6527752115648928	19.134455818124543
