80

O	0.5751644704262298	1.4254049895475411	1.2521168428688525
O	2.48121901042623	4.820848133547541	3.0994486228688527
O	1.20443035042623	1.2214135578475411	2.3891175828688525
O	1.4407513204262299	2.3338776935475414	3.1131209928688524
O	2.05976778042623	3.204831263547541	2.2779574228688526
O	1.5566488504262297	3.535692853547541	1.0777420668688524
O	0.4294710704262299	2.711057013547541	0.8877345498688526
O	0.11818360042622977	0.5191989735475412	0.20804097146885253
O	-0.6637015055737702	3.536287173547541	0.46146729386885255
O	1.1220467904262297	0.01761724354754124	-0.6308353451311475
O	1.1689600704262297	-1.2792480264524588	-1.0663603271311475
O	0.5970452604262297	-2.235083066452459	-0.28927960613114745
O	-0.49004981957377014	-1.855115686452459	0.42934756286885256
O	-0.7672928685737702	-0.4875371864524589	0.5495530828688525
O	-0.45048638657377016	4.258383433547541	-0.6567420711311475
O	-1.3186449095737702	5.303510803547542	-0.7570096221311474
O	-0.9998068020737702	6.300451153547542	0.12558118206885255
O	-1.1939274775737703	5.788971553547541	1.3629693028688525
O	-1.0356814536737702	4.442803973547541	1.5036465128688525
O	-6.02760801957377	4.696388493547541	16.63200435286885
O	-9.15368141957377	6.8650715635475414	7.264663212868853
O	-5.61678855957377	6.311316793547541	8.668810242868851
O	-2.6274169095737703	7.402791483547541	6.597985802868853
O	3.1131408104262297	0.6079924425475411	6.280396052868853
O	5.88410238042623	-2.138603806452459	6.394710922868852
O	4.946713080426229	-4.429440726452459	9.338470162868852
O	1.46113281042623	-2.909311126452459	9.614102012868852
O	-0.9302458415737702	0.0752913035475411	9.662565452868854
O	-2.55652250957377	1.6651016055475412	6.651430552868852
O	-5.87950250957377	3.238973683547541	6.070070782868853
O	-7.316978769573771	4.870507753547541	3.0150784928688523
O	-10.65656834957377	3.628095153547541	1.9594528228688526
O	-13.31439265957377	3.849212203547541	-0.6939049051311474
O	-13.85834185957377	0.6737720565475411	-2.6521158371311473
O	-9.67736845957377	4.909423683547541	-3.8480283371311477
O	-7.58861833957377	2.256764011547541	-2.1076067071311475
O	-5.092012729573771	1.771121746547541	0.5715215968688525
O	-5.735021609573771	-1.1100161964524586	3.0192333728688525
O	-2.8057012695737704	-2.4020292364524587	5.218530772868853
O	-3.4712525095737705	-4.569139276452459	8.281683172868853
O	-0.45992863257377015	-6.680934096452459	9.130548442868854
O	3.8973862904262297	-12.39322962645246	6.186734712868852
O	5.04802367042623	-10.23259272645246	1.4417797028688526
O	2.57455117042623	-8.680521866452459	-3.7833291771311472
O	3.4410305604262295	-3.576579806452459	-13.322464447131146
O	2.33862927042623	0.012206153547541065	-13.455131247131149
O	5.241757450426229	1.3439812961475412	-11.342972447131146
O	5.232017210426229	-1.434272236452459	-8.711006587131148
O	2.6791776304262296	-1.8459936464524587	-5.932150427131147
O	0.6630278804262297	-4.987675526452459	-6.378269707131148
O	-2.4698721995737705	-6.560759326452459	-4.910381967131148
O	-5.950915229573771	-5.361640916452459	-5.542158827131147
O	-7.442339609573771	-7.640100756452459	-2.8635797571311477
O	-6.39967471957377	-9.592835826452458	0.22073966386885252
O	-4.15203361957377	-10.42809772645246	7.0745486328688525
O	-5.34842908957377	-7.260640316452458	5.247746102868852
O	-3.75553429957377	-6.291120956452459	1.9197550128688525
O	-5.35988534957377	-3.8225338364524593	-0.6034602031311475
O	-3.5052378495737706	-1.7183321564524587	-3.1208520471311476
O	-3.9413547995737703	1.5161155155475412	-5.1276010171311475
O	-3.89831126957377	4.695410343547541	-3.0376052271311473
O	-1.32593934657377	7.100239803547542	-4.468745457131147
O	-1.4842779725737703	9.520179113547542	-1.5238707171311474
O	1.9777695504262296	10.940021223547543	-1.0761023071311475
O	5.570643270426229	10.053683583547542	-0.9773925871311475
O	9.43861564042623	7.457315643547541	1.5572591828688525
O	8.53039762042623	4.289199873547541	-0.21705087613114749
O	8.01425801042623	5.748501613547541	-3.5797957871311477
O	4.26748581042623	6.4194147335475416	-3.6907198771311474
O	3.4063910604262295	9.256959123547542	-6.043061177131148
O	-0.08285518057377017	10.52296667354754	-6.989630877131147
O	4.93720140042623	6.609417613547541	-9.309748037131147
O	4.875348750426229	3.0832165235475415	-7.760487337131147
O	7.63862239042623	1.3864504775475412	-5.785546977131148
O	6.635261800426229	0.11917286354754109	-2.3922319771311473
O	8.06382221042623	-2.3170618964524587	0.2570172358688525
O	10.47055344042623	-4.020345626452459	-2.0921209571311477
O	11.78854564042623	-7.561444516452458	-1.3013048971311474
O	11.25920664042623	-7.177440966452459	2.4335576428688523
O	14.48979804042623	-5.753581426452459	3.9300326028688524
