91

O	-3.0684994638952383	1.886174445619048	-1.2539964086365079
O	-0.10726217289523865	-1.479736594380952	-2.1576895859365077
O	0.4399616861047614	-2.380212174380952	-3.089404850936508
O	0.5660765061047613	-3.5302369543809515	-2.3933608009365077
O	-0.3848480568952386	-3.9977048643809523	-1.4582809079365078
O	-0.8831485018952386	-3.0487777543809518	-0.6179677739365078
O	-0.3145047018952386	-1.841716804380952	-0.7884461729365078
O	-1.7909515938952385	-3.1920827343809517	0.5273212390634923
O	0.1119591551047614	-0.9358449843809521	0.30895829906349226
O	1.4845423961047617	-2.067380514380952	-4.067220840936508
O	2.2600814561047615	-3.0005393943809517	-4.816320040936508
O	1.6460009761047614	-0.8604410843809521	-4.335625460936508
O	3.4640468161047613	-2.610554274380952	-5.568589890936508
O	4.615538286104761	-3.648664374380952	-5.7076165709365085
O	3.9010916561047617	-3.127352694380952	-6.8654607209365075
O	0.8284015861047614	0.184855545619048	-0.27258802593650777
O	-0.29615368689523863	1.258551570619048	-0.2610076739365078
O	-1.4699836708952385	0.464030977619048	-0.6217684539365078
O	-2.4405608038952384	0.542853976319048	0.41185345906349213
O	-2.389259813895239	1.613515275619048	1.238294139063492
O	-0.7480475062952386	1.8334377656190481	1.297986749063492
O	1.2725801161047614	0.150372392619048	-1.4361895709365078
O	-3.2841362238952385	2.817965935619048	1.3351217290634922
O	-3.0383186938952385	3.790850305619048	2.2493200590634923
O	-3.0522427938952386	5.167493675619048	1.9752577190634923
O	-3.2784644738952387	5.570430195619048	0.7119983290634921
O	-3.4602415038952383	4.576579685619048	-0.25729790393650775
O	-3.6459577438952384	3.222353995619048	0.07842679906349215
O	-13.05085383389524	1.201738924619048	6.219926039063493
O	-12.365640833895238	2.568006135619048	2.6918770490634922
O	-9.464791293895239	4.880812965619048	2.264168709063492
O	-4.7769457138952385	1.822291475619048	-5.084253300936508
O	-2.7105634438952384	0.831586468619048	-8.080281390936507
O	-5.212379423895238	-1.311684964380952	-10.100026760936508
O	-7.560313683895239	-1.709932774380952	-7.104235750936509
O	-9.588021753895239	-0.38547478438095206	-4.120041540936508
O	-8.300141263895238	-0.15470767938095198	-0.5546757009365078
O	-9.673522193895238	-0.43895648438095203	2.8872910790634925
O	-8.136628013895239	0.06570036161904802	6.286886229063493
O	-8.691760413895238	-2.799013794380952	8.656241869063491
O	-3.5939378338952386	-1.6341200843809518	11.665384919063492
O	-3.4484161338952384	-2.747100064380952	8.038609209063491
O	-4.316032803895239	-1.7603284643809518	4.599879239063492
O	-6.0286497338952385	-4.244267934380952	2.3556379590634924
O	-6.095930453895239	-3.676485044380952	-1.4591612049365077
O	-8.59602484389524	-5.681537664380952	-3.642619260936508
O	-7.337356133895239	-5.943749544380952	-7.198038150936508
O	-1.4934456818952386	-8.949614094380951	-11.280703980936508
O	2.5992190061047613	-6.939975474380952	-8.487202590936509
O	2.2415554261047617	-10.110056134380953	-6.444125030936508
O	5.480242646104761	-7.413533294380952	-3.2086735309365078
O	12.740427366104761	-3.374660504380952	3.757570439063492
O	11.536305966104761	-0.8271615743809521	6.249379379063493
O	11.04351526610476	1.9446330256190478	3.653246419063492
O	9.406055166104762	-0.22810787038095204	0.9444324790634924
O	5.8181170961047615	-1.567040954380952	1.018761109063492
O	5.867597426104761	-5.361513134380952	1.2523580290634921
O	3.299911156104762	-8.092619134380952	1.9311736890634923
O	1.8065087161047617	-8.873374974380951	5.268836829063492
O	-0.7398558404952387	-11.311875134380951	3.781553939063492
O	-2.392766793895239	-12.143370934380952	0.46574624906349227
O	-6.730837333895239	-11.147808034380953	-5.2044353609365075
O	-6.4771379238952385	-9.186124034380953	-1.9175589939365079
O	-3.0799191038952385	-7.779378944380952	-0.8080836169365078
O	-2.3540276938952385	-6.852834344380952	2.910162349063492
O	0.3024575061047613	-4.393946764380952	3.9798308890634924
O	1.0304402861047612	-1.789828794380952	6.6786371290634925
O	-1.3568797068952385	1.154713322619048	6.945201159063492
O	0.6633738761047613	4.329614015619048	6.992707359063491
O	-2.266833893895239	6.611861385619048	6.8044523390634915
O	-1.1340568308952386	9.672254505619048	4.722497119063492
O	0.9089301961047614	10.721255165619048	1.7273101090634921
O	3.7559649161047615	13.146408765619048	1.4677181590634922
O	1.4290771261047617	15.869549565619048	0.21075777906349225
O	2.5419255761047617	15.969002265619048	5.481939309063492
O	9.914684066104762	2.817188095619048	-9.679806860936509
O	1.4077275861047616	10.587875265619049	-3.6644297609365077
O	3.0150460261047614	7.161144825619048	-3.5584566909365076
O	5.129736886104761	7.818076585619048	-0.5870108279365078
O	3.1484393561047614	6.5947690356190485	2.408620669063492
O	4.021291946104761	8.362852575619048	5.627190109063493
O	2.7558245061047617	7.641036135619048	9.176842319063491
O	8.07422160610476	6.535238565619048	5.150023199063492
O	7.5152128261047615	3.600138685619048	2.7238444390634924
O	7.678007326104762	3.647971075619048	-1.0860294019365078
O	4.5525211661047615	2.425536395619048	-2.812492780936508
O	3.521249626104762	1.2065230326190481	-6.330375860936508
O	7.089597416104762	0.7165337806190479	-7.564357840936507
O	7.839321066104761	-1.620068274380952	-10.548017740936508
O	4.362676806104761	-1.198153154380952	-12.013992980936509
O	4.476487676104761	1.7440924356190481	-14.457608380936508
