21

O	-4.38901243306167	-0.026770936378579746	14.896595642343021
O	-1.8325645167588371	1.9531547183495894	16.897641829714356
O	-1.1584148264663288	0.9456336903890282	16.648919692722906
O	-2.2407740054543055	2.0366319903777974	18.2254863820693
O	-2.90946254987878	0.8900444806206316	18.610133067939497
O	-2.7825084523063954	-0.42335091578771267	18.345237834879278
O	-3.2929253507431535	-1.1675129053605178	17.34111275448952
O	-4.01636368894481	-0.4067866122059012	16.47895408749246
O	-4.893694862849341	0.18323145527757934	17.395504863569112
O	-4.229603655291329	0.9197431638362881	18.295097668990245
O	-2.2350138341025243	2.5110114320537016	15.634518645720023
O	-1.2151040364268089	2.9916316955993256	14.992660907008574
O	-0.5206520950000469	3.933183805626382	15.693537504391799
O	0.21753927249268845	4.259118249478962	14.479201271357534
O	0.5049458301321382	3.1543669930491847	13.784512666043051
O	-0.17861432022567325	2.1668527634896466	14.500553496945834
O	-1.5521240417076818	4.683360488097444	16.538836127106137
O	1.481709027495861	2.690668609807954	12.854626655665866
O	2.6037386273682106	2.057223904477441	13.57923121378925
O	1.9221253900802129	3.715375089954035	11.956084294286594
O	1.3249780375597662	1.5487607529822973	12.009929143084667
