33

O	-2.528139219269426	4.49600402535534	13.842934812310776
O	-1.4497550402940405	4.916574625510765	13.264687798937384
O	-0.36468068957636957	4.16928446640578	13.536698141919956
O	-0.23698064459265034	3.381498239196854	14.709853054722727
O	-1.300602180368407	2.50617742634123	14.738579644438266
O	-2.4697007911893296	3.1046737812354914	14.163993989134767
O	-1.4975582989408087	1.8206044774809569	16.0238055159175
O	-0.5217673098792117	1.5653821261147953	16.792966054922427
O	-2.1104182721529705	3.065724433750871	16.479416519529902
O	-2.765259555643076	2.8743315345749494	17.747077437840385
O	-3.9858485361796534	2.293671720517716	17.602192337686226
O	-4.301392754937574	1.511645875937064	18.974085557906864
O	-3.573100950656035	1.8355823027829428	20.085334943451777
O	-3.418779367372185	1.8567294052499939	21.43943447353169
O	-2.4853874608346516	0.8866205494306458	21.35654742658248
O	-1.9734327202765383	0.5432966707071982	20.131700620271346
O	-2.6364725014609336	-0.2833331594603756	18.93096489076055
O	-3.4995252785168347	-1.0571434155743946	19.635711652283028
O	-2.912490089745954	-1.3919022593314023	21.046358771338042
O	-1.808198208974571	-2.1224446624039786	21.197990406427945
O	-2.038395355695876	-3.232044365304966	22.1078406828995
O	-2.791786204419016	-3.0769084004042364	23.178725561701818
O	-3.097097346744661	-1.814381309414166	23.43851191749512
O	-3.087872707657601	-1.0095234183670925	22.306079325878958
O	-2.280190882992717	1.7673103760568432	19.449184886693736
O	-1.7173425973758967	2.555030343060819	18.60429133546153
O	0.718166911475598	3.982972791825693	12.781881656217333
O	1.5012823824112613	5.13451923433708	13.012856570843637
O	2.2516279537639994	4.631128650703765	14.297100370808733
O	2.9733032728298783	3.4994524059737353	14.0351295248179
O	2.980560868489789	3.373084834233751	12.659975907358934
O	1.5798251732770578	3.1742683617994825	12.07333985988399
O	-3.770879034459493	4.8775746928358235	14.38836548842947
