19

O	-2.749351494274558	1.2723914933861231	18.61451938510254
O	-2.6739572800298133	1.356605325560002	19.968822694152497
O	-3.8564073537244554	0.7112112888475424	17.81495174454882
O	-1.9520953167070232	2.2285865544101773	18.13901463068897
O	-3.0151346332358115	0.25255436885025573	20.8683229650017
O	-1.7952861751591755	2.3662011534698353	20.19476531787082
O	-4.46828821252402	1.664374730736246	17.056101384164947
O	-3.498009766342965	-0.3398650074274719	17.024269571468942
O	-1.1534584391583937	2.5318955031250354	19.06894240022032
O	-2.9731836800339795	0.33399325333302543	22.192715197424384
O	-2.303548533151875	-0.9187799788649031	20.533500982023337
O	-1.087724342552392	2.5512446771662787	21.493064019017325
O	-5.190988029801661	1.4282164563748851	15.8801887513976
O	-3.6842010936043526	-0.32483785964116535	15.621510467084441
O	-3.0308919966501926	-0.6154472169943841	23.127647074711525
O	-2.7739246879405917	-1.9287710599764807	21.32473202327265
O	-4.612057544574951	0.5020688213164075	15.060734735893806
O	-2.902006758032762	-1.8873059082163277	22.654727038330517
O	-2.8562107016548275	-0.467035023667508	24.52484400062539
