83

O	-5.903308141554717	-0.8297307346320754	1.9664321154716982
O	-7.108929891554717	-1.4302419046320756	1.5333496354716978
O	-8.060758031554716	-0.3473995146320753	0.8738974754716978
O	-4.671381181554717	-0.7675230346320755	1.265312935471698
O	-3.601234341554717	-1.6454904546320757	1.620876265471698
O	-2.5344137715547173	0.5262064363679246	1.342175425471698
O	-3.956514241554717	0.4454969103679246	1.0041874454716977
O	-1.638462017554717	-0.43338313463207545	0.6833431854716979
O	-2.4523929415547174	-1.6562853746320756	0.8150961954716979
O	-1.4812651835547173	-2.6547830546320754	1.165498965471698
O	-0.6886817605547171	-2.8298599446320756	0.00650042347169788
O	0.36420850844528285	-1.7633240646320756	-0.010038064528302137
O	-0.20228610855471718	-0.6225615846320754	0.7078130154716978
O	0.037460968445282905	-3.9915702846320755	0.17174680547169785
O	0.9585825784452828	-1.7080950846320757	-1.1935175065283021
O	2.2279629984452827	-2.1336985846320755	-1.4845786555283023
O	3.2409322884452827	-1.9863108246320755	-0.4043213455283022
O	4.655739188445283	-2.1007092846320754	-0.8460986676283021
O	5.050429318445283	-1.5533110046320755	-2.1651109145283023
O	3.9671791784452823	-1.3451686146320756	-3.158527494528302
O	2.633583388445283	-1.1051665746320753	-2.5640450845283023
O	-2.268539691554717	-3.6863295346320752	1.7487566254716977
O	-9.179659711554716	-1.0360765146320756	0.22747899547169792
O	-8.265269641554717	-2.0256810346320755	2.278533095471698
O	-10.445553591554717	-0.9755452846320755	0.7287062854716978
O	-10.706054661554717	0.4157492133679246	0.5390519954716978
O	-10.655115601554716	0.3341007343679246	-0.9406764665283022
O	-9.324458781554716	-0.2789368246320755	-0.9630103075283022
O	2.513081308445283	0.045270457367924566	-1.7890492855283022
O	5.883954668445282	-0.48149450463207544	-2.174649594528302
O	-8.486060661554717	-3.2262691846320752	-9.344175994528303
O	-7.622950951554717	-5.845734104632076	-6.675685214528302
O	-7.441117981554718	-5.026933444632076	-3.077244404528302
O	0.22004957844528295	-7.694727324632076	0.6150894054716979
O	3.4139473384452828	-9.127480944632076	2.278380955471698
O	2.351701128445283	-10.714632374632075	-2.888343294528302
O	-0.9929552075547171	-9.456919574632076	-4.244851014528302
O	-2.073344427554717	-5.802595184632075	-4.357875214528303
O	-4.122219201554717	-3.8771314846320752	-6.912958764528302
O	-5.160357261554718	-0.27138327463207534	-6.919932404528302
O	-4.437900121554717	1.6644295783679246	-10.066549864528303
O	-4.527585391554717	5.085844715367925	-11.636019564528302
O	-3.9870523015547175	6.888918185367925	-7.057013244528302
O	-1.4964863075547172	4.122688135367925	-6.414702474528302
O	-1.1908539674547172	0.7001251853679246	-4.993930144528302
O	0.7715488584452828	-1.8529214946320756	-6.981406534528302
O	2.0543399884452826	-5.099689404632075	-5.350028174528302
O	3.1708282384452824	-8.077267224632076	-7.466198724528302
O	5.619789228445283	-10.257191674632075	-5.585078874528302
O	5.664244138445283	10.717997815367925	5.318470665471698
O	4.485993478445283	8.016873005367925	7.766665365471698
O	6.374395728445283	5.095143875367924	6.186304335471698
O	5.444438818445283	3.2884216453679245	2.936286625471698
O	8.121201108445284	3.8381008353679245	0.3569068854716978
O	6.957687668445282	5.350697045367925	-6.018231544528302
O	8.058278008445283	3.0107396653679244	-8.812928164528303
O	8.844583788445284	-7.742498014632076	-9.452053514528304
O	6.0470499784452825	-5.1116290646320754	-9.117511254528303
O	6.314134478445283	-2.4185118146320757	-6.458539794528302
O	4.323211118445283	0.9090169358679245	-6.522416434528302
O	3.429883748445283	3.0974385553679245	-3.595700784528302
O	0.6855947684452828	5.431800145367925	-2.340761834528302
O	-2.819935471554717	4.045375585367925	-2.040516404528302
O	-4.0479990915547175	4.898735425367924	1.412119845471698
O	-7.156260461554718	3.0640859153679245	1.120453835471698
O	-8.026574671554718	1.6668513813679247	4.726978625471698
O	-6.393326151554717	0.07666861536792458	7.766560875471698
O	-11.305418811554716	0.13628897036792464	9.359019835471697
O	-10.984002451554716	3.5336802853679243	11.032721435471696
O	-3.7968017715547173	-4.205358904632075	9.668576135471698
O	-0.4536412295547172	-2.8545679446320755	8.599243785471698
O	-1.1048698712547171	0.7111994563679246	9.369327535471697
O	-2.503501941554717	2.2250128453679245	6.167070605471698
O	-4.719024531554717	5.249347705367924	6.7995810254716975
O	-6.3418832815547175	7.586108585367924	4.212309665471698
O	-2.946491491554717	10.426651805367925	7.523355275471698
O	-1.0520718375547171	7.214416205367924	8.383702245471698
O	1.814346378445283	5.120297675367924	6.859715455471698
O	3.5309859684452825	2.0984549153679244	8.423304035471697
O	3.5617765984452827	-0.9231903946320753	6.123543475471698
O	5.475505448445283	-4.264462844632075	5.990838015471698
O	8.225342278445284	-3.227347014632075	8.396136355471697
O	10.229828988445284	-8.192968004632075	6.937991335471698
