109

O	3.128930223964286	-5.712358916584287	3.255731784642857
O	-4.443788656035714	-2.809045596584286	3.526244624642857
O	-4.637959966035714	-0.8707501365842862	2.161979024642857
O	-4.9297798160357145	-2.7215214065842863	1.3745729246428573
O	3.848050263964286	-2.1517193765842864	0.08226862064285714
O	3.893966593964286	-1.3924125265842862	1.2720916546428573
O	3.637380883964286	-1.3374313365842863	-1.0606139863571429
O	2.2917743739642864	-4.396762366584286	1.9882112946428572
O	2.879303703964286	-3.1789540665842866	3.7801520146428573
O	1.7162581439642859	2.1215562134157135	-1.3985723353571429
O	1.304283703964286	-3.4995667665842864	1.8846381546428572
O	1.654617773964286	-2.463693816584286	3.828650684642857
O	2.2076566639642863	2.3947694134157134	-0.08555765535714285
O	3.0863226239642865	0.39445437341571365	0.09871118964285716
O	3.737951123964286	2.390008713415714	-2.506675575357143
O	-1.823433186035714	-1.4344953465842862	1.4749148446428573
O	3.9831687039642865	5.794204643415713	-0.9630306613571429
O	5.063802603964286	5.388891003415714	-1.9851384753571428
O	4.278236853964286	5.3301219734157135	0.41898703064285714
O	5.3377153739642855	3.935694493415714	-1.9855901553571427
O	-1.699283056035714	-2.7044656365842865	3.239866074642857
O	1.9471695039642862	-0.03496748658428639	1.967313484642857
O	0.507839777964286	-1.5610509965842865	0.9754966446428571
O	2.6899652039642863	0.39848410141571367	-2.236279375357143
O	3.1901868339642863	3.279491763415714	1.6969460046428573
O	0.15968124296428604	0.5103583184157137	0.6686694846428571
O	3.4989400939642863	4.113489393415714	0.6725595116428571
O	0.772964073964286	-0.25634354658428626	1.3424736046428571
O	2.6638974939642863	-4.416190216584286	3.366645984642857
O	3.0276252239642862	-0.34260886658428635	1.1532657046428572
O	3.4083309939642863	-0.033033156584286294	-1.1010425043571428
O	2.8471617539642864	1.5904374974157136	-1.9393651453571428
O	0.6638236539642861	-3.1726902565842865	3.147713944642857
O	3.9276703839642866	3.4725137934157138	-1.6902878053571428
O	-0.6141599210357139	-1.8513576465842863	1.7001502446428571
O	-2.5478754360357136	-2.2628394165842862	2.3297152546428572
O	3.5264602839642865	3.0607278034157135	-0.38859943235714284
O	-3.955461786035714	-2.1831691665842863	2.302464914642857
O	-0.5128207880357138	-2.503200136584286	2.836718574642857
O	10.658593593964287	7.886493573415714	-2.742842655357143
O	6.491502333964286	2.469077793415714	3.400530094642857
O	4.663805963964286	0.7676565554157138	6.162857704642858
O	7.431768073964286	-1.4354946365842864	7.763802354642857
O	9.698778493964287	-0.9439717665842862	4.7804513546428575
O	11.456260593964286	1.3048845554157138	2.207943384642857
O	10.123089193964287	2.252844093415714	-1.221601464357143
O	11.563176593964286	2.976923023415714	-4.596026675357143
O	9.953266793964287	4.078113313415713	-7.8378118953571425
O	5.625940243964286	1.1755683862157138	-10.295404085357143
O	6.4485906739642855	1.4332575534157137	-6.7830066053571425
O	8.428942053964287	-1.2379143265842862	-4.9859920353571425
O	8.483825223964287	-1.761044656584286	-1.1612147773571428
O	11.247786193964286	-3.795608106584286	0.5153156066428571
O	10.039181593964287	-5.038525466584287	3.8879350446428567
O	12.548085093964287	-4.083125896584287	6.682544794642857
O	10.495729793964287	-9.172439716584286	7.958000464642858
O	2.8315196039642863	-8.515265516584286	10.218585014642857
O	4.7024953239642855	-9.598402516584287	7.0694878446428575
O	2.203615763964286	-12.344289016584288	6.465116414642857
O	-0.657456033035714	-10.033201016584286	7.2209268246428575
O	0.4391831859642861	-7.493971536584286	4.6908569246428575
O	1.147588223964286	-10.012773816584286	1.9593792946428572
O	-4.047075306035714	-8.315082966584285	2.482956034642857
O	-2.247747406035714	-7.100369366584286	-0.6666574953571428
O	-2.950656336035714	-10.213350316584286	-2.4337190653571428
O	-7.323961296035714	-6.450431126584286	-2.600547895357143
O	-8.560184666035713	-6.030354396584286	-6.161078145357142
O	-10.273087406035714	-2.572647266584286	-6.5208077853571424
O	-9.343260626035713	2.7757799934157137	-5.177872595357143
O	-7.368359266035714	0.2886222804157137	-3.043803665357143
O	-3.5668180260357136	-0.4070021165842863	-3.392251255357143
O	-3.0737972760357137	-4.0236949365842865	-4.443129595357142
O	-0.24243804713571393	-6.184704976584286	-5.678075925357143
O	1.325770383964286	-5.937310296584286	-9.057735125357143
O	4.127333143964286	-8.358622826584288	-8.153883365357142
O	6.0863622439642855	-5.9645920165842865	-2.890600175357143
O	5.095385453964286	-3.985621586584286	-6.021247145357142
O	2.1958958939642863	-1.7133437265842861	-6.628062325357143
O	1.0809810139642861	1.2307754774157136	-8.764127465357143
O	3.048395483964286	4.460106713415714	-8.459955755357143
O	0.5907057249642862	7.259145743415714	-7.7836738853571426
O	3.2514736339642862	9.770294313415715	-6.884031665357143
O	1.6870141939642862	12.090017183415714	-4.241144075357143
O	-0.4023975244357139	12.064686383415715	-1.0953227593571428
O	-3.583317656035714	14.040200183415713	-0.35115602335714285
O	-12.616655906035714	2.0144980744157137	-1.6326044053571427
O	-14.852523806035713	-2.6578892865842865	-0.5589444933571428
O	-12.386718106035714	-2.9646340965842866	2.315328844642857
O	-10.775594206035713	-2.067660436584286	8.927347694642858
O	-8.213827276035714	0.7050469234157137	8.143236544642857
O	-5.413546976035714	4.877385823415714	10.669056314642857
O	-6.970441366035714	6.593678253415714	7.678953874642858
O	-5.246781366035714	9.931435573415715	7.090182354642858
O	-4.342672996035714	12.161307383415714	4.148300804642857
O	-0.8455352580357138	10.632350823415713	4.105312574642857
O	-2.131860426035714	7.238796683415714	3.198087334642857
O	-4.243962646035714	8.196749433415714	0.38185990464285713
O	-2.098720206035714	7.980077503415714	-2.778812765357143
O	-3.251316886035714	10.341405903415712	-5.508452605357142
O	-7.005730866035714	7.907257673415714	-5.527379455357143
O	-5.989131356035714	4.5807692334157135	-3.808052545357143
O	-6.203745416035714	3.790605193415714	-0.10423251135714284
O	-2.737938466035714	2.689049103415714	1.2403965746428571
O	-1.5909128360357139	1.1305036055157136	4.632429524642857
O	-4.936840476035714	-0.1617997865842864	5.887486454642858
O	-5.298434616035714	-3.4512846765842866	7.919810374642857
O	-1.869585956035714	-2.839560586584286	9.407041204642857
O	-2.3919664060357135	-0.6499603065842863	12.488110514642857
O	-0.11704108803571392	-11.579419216584288	-11.708367885357143
