37

O	-2.496827099522192	0.579535157695868	22.465345796350643
O	-1.3163443203600322	1.309726233006264	21.768583263716106
O	-2.2902297871391806	-0.8243344093385787	22.367896119422475
O	-3.88305434600552	0.7173396836087118	22.257464259559654
O	-1.8441490336287614	2.735845170818179	21.82403467646241
O	-0.8185601951463481	0.5107629230524865	23.034102285694086
O	-2.672040918514989	-1.0233116257422357	20.9088514603828
O	-1.2354847399882172	-0.7430576374236639	23.190954244763642
O	-4.443509882556322	0.08520865627213403	21.186582131607224
O	-2.0088818516750067	2.8350851055926842	23.511543299188983
O	-1.0990580261934895	3.9096249073073226	22.257061245159083
O	-3.556997210479997	-0.17238935450818216	20.235690763592515
O	-0.5683149381342716	2.4970679941167653	23.751156512585474
O	0.20159992172502728	4.187162392748962	22.832543698936
O	-3.662069382518963	0.900327035351677	19.156521977947072
O	0.42676812996647806	3.429622017605041	24.168984369408957
O	-2.69889540131374	1.1878606849169109	18.29532035362412
O	-5.051661014409486	1.2091061766220403	18.79411764537057
O	-3.143953555527177	1.2641497041487	17.006991334373897
O	-5.4354144793278545	1.536615006943519	17.542801562741502
O	-6.1183765321441905	1.0258987265276205	19.829583015065264
O	-1.9834625200590164	1.4940321140438064	16.060840468303745
O	-4.409439221992421	1.3312386296281957	16.61711151622377
O	-2.1228907639222356	2.7624245653627875	15.355955188787672
O	-0.7813910287646364	1.2451783723501313	16.307317808963578
O	-2.0670289101688897	3.365083543946664	16.623473888540346
O	-0.876548009857393	3.246873035916013	17.46090573705385
O	-2.3831893381765856	4.683160225189896	16.468435908210616
O	-0.5980278339083918	3.725977592996602	18.82011203814228
O	-3.0153007651994894	4.397381108895445	17.850869115091193
O	0.5761619338197974	4.656651546962241	18.330829598489444
O	-1.8827411897684114	4.251384903212581	18.83846888652702
O	0.9875422853235722	5.201479594036979	16.98748232598886
O	1.7704374417264361	3.807140453417613	18.382727667970027
O	2.4034097715045233	5.660553044576238	17.149972453093405
O	2.841147842159412	4.786876181138174	18.887550828561537
O	2.504723435452022	6.113817641202209	18.526617906672126
