34

O	-0.24081873362704598	3.037585970489105	14.549692173299897
O	-0.041790222593526716	3.835606034173609	13.39244371179605
O	-2.05521811542203	4.20062316156609	14.37695984676036
O	-1.0844503711988907	4.669906416731527	13.699161254708358
O	1.1258050784011198	3.5863460464354033	12.575157831146687
O	-1.1386325119352059	3.802303632781371	15.226654043199476
O	-3.2668754496990813	4.919726512176961	14.984414088146522
O	-2.585617026941616	6.016591161069531	15.546995016964871
O	-1.897955083470102	6.587559180166108	14.409147115374173
O	-2.043283476407106	6.561638678597157	16.458550713140234
O	-2.2006886691078305	3.6460374577044727	17.02620864957361
O	-3.6320789806118112	3.828090282106195	17.385792621147292
O	-1.6857462339109865	3.5131545078853765	18.125878994522502
O	-3.9662040897246698	2.51863470397395	17.290162109062052
O	-3.217913117944965	1.7646671144171424	18.135039133962874
O	-2.1054039161784965	0.9692645527408024	17.7945112875685
O	-2.0319163459579146	0.6347174005796026	16.43756491653687
O	-2.876479642004031	1.2814980309226045	15.605415948145623
O	-3.9133281940703917	2.1283104349738178	15.99931821559235
O	-1.262942559845698	4.465473386355731	16.440088255607463
O	2.022353942398139	2.5008262013959284	13.069827686444391
O	1.183545825170224	3.1149844990080746	11.227467926633345
O	1.857838085817401	4.832875488037301	12.565134890642385
O	-2.4306101280555357	-0.7035931216464699	16.66511102902607
O	-3.310810619163777	-1.186210544205513	16.015938298328933
O	-3.6216851747074346	-0.6640681740520562	14.965927177374798
O	-3.380855198028391	0.5080175599606176	14.67288660621932
O	-2.81452192887569	7.634617659943714	14.120011565454032
O	-2.545843837857697	8.808644349984254	14.84751922493072
O	-1.0563339072899962	9.580320178509693	14.497578828531717
O	-0.5390642663718332	8.145789793544315	15.434011110389818
O	-0.6272143847853576	7.146798264534413	14.381981646793246
O	-0.6144427215565619	9.392224946584278	13.148598075848277
O	-0.7405459333724342	10.870077243916658	15.011791267745279
