108

O	3.9339664100588223	-5.603218164933825	3.7270403239102943
O	5.1272778900588225	-5.746821744933824	2.892119493910294
O	4.732812670058823	-5.756849634933824	1.5857915539102942
O	3.7206073200588223	-4.186672304933824	3.409539633910294
O	3.2625688100588226	-3.7766742949338243	2.1250895939102943
O	3.652471350058822	-4.896471984933823	1.3220879239102943
O	3.6646678200588223	-4.980482734933824	0.02044843491029423
O	2.648385660058823	-2.749582094933824	1.6116315739102942
O	2.288974980058823	-1.7850779749338241	2.4901139639102943
O	2.4336061600588224	-2.8684583049338244	0.2422726489102942
O	2.9846294400588222	-3.975196304933824	-0.4700256570897058
O	1.9184261300588228	-0.5894431649338243	1.8404914239102943
O	0.7957238400588229	-0.4067029249338243	1.0368845339102943
O	0.5526107000588227	0.8959335540661758	0.6916927819102943
O	0.4845878100588228	1.731920728066176	1.8953007439102942
O	1.802577930058823	1.6705635620661758	2.375212323910294
O	2.6169763900588228	0.5760526980661758	1.9634299539102944
O	-0.6451329639411773	1.377898766066176	0.02856896991029423
O	-1.7111561719411772	0.7434126980661757	0.6662130759102942
O	-2.1475021359411772	-0.1968662849338243	0.05818610191029422
O	-2.5174242999411773	1.6971030290661757	1.1494041239102941
O	-3.5351545599411773	1.9772023010661757	0.32925157591029425
O	-4.033743779941177	3.1304974450661756	0.5994768739102943
O	-5.221459739941177	2.9547676150661757	0.15779537191029422
O	-5.376200139941178	1.937688922066176	-0.6907564180897058
O	-4.215928989941177	1.2523985520661758	-0.5390518670897058
O	-6.439279849941178	1.4635461890661758	-1.5001546560897057
O	-6.5197760799411775	1.0195716607661758	-2.8580920160897056
O	-6.762676929941177	0.06833634506617581	-1.0462043480897059
O	-7.735700919941177	2.1373969250661755	-1.5277190660897058
O	-3.1480021299411773	4.063416775066176	1.1502422639102943
O	-1.7832127149411772	4.116629245066176	1.1494953839102942
O	-1.3091316999411773	5.466929635066176	1.3694692639102943
O	-2.227899273941177	6.393635125066176	1.8885235839102943
O	-3.136132659941177	5.710746505066176	2.695235873910294
O	-3.2304319799411774	4.252444005066176	2.5250461839102942
O	-2.573583849941177	7.507818345066175	0.9315225939102942
O	4.306636440058822	-6.497661684933824	4.753866713910294
O	4.751124750058823	-7.829328534933824	4.453178683910294
O	4.2462888100588225	-6.505861204933824	5.984623733910294
O	15.094731640058821	-2.179095024933824	4.766421463910294
O	12.302701240058823	-1.4300807449338242	7.288571383910294
O	9.307147040058823	-3.8879099649338245	7.355980703910294
O	1.582615240058823	0.6883259600661757	6.960247803910295
O	-1.6206121949411771	2.5841639850661755	7.237293323910294
O	-0.6374280409411772	6.085611235066176	8.628796213910295
O	2.970027190058823	5.575623665066177	7.7430036739102945
O	6.157464250058823	3.502404555066176	7.944758243910294
O	7.276896300058823	1.0021183305661758	5.314592233910294
O	10.584650140058823	-0.10457169493382423	3.877280433910294
O	11.310153040058822	-2.919323864933824	1.4506454439102943
O	13.593382840058823	-1.840141074933824	-1.3476252860897058
O	9.144718640058823	-3.003945514933824	-3.860628736089706
O	7.643274210058822	-1.6952604549338242	-0.8071728740897057
O	7.954368420058822	1.9781942450661758	-0.08080314078970577
O	5.732089830058823	3.785895655066176	2.4861222739102944
O	6.4632972400588224	7.215737385066175	3.9706850639102944
O	3.3084836700588225	8.913121945066175	5.181366933910295
O	3.6708484900588223	10.024700665066176	8.864201883910294
O	0.795845710058823	14.066879755066177	6.1913563939102945
O	-6.6297205999411775	11.594818855066176	4.342065883910294
O	-3.2672175899411773	12.009288055066175	2.4818022239102944
O	-5.063771019941178	13.195039355066177	-0.5867930130897058
O	-7.686596809941178	10.498465525066177	-0.33035492708970576
O	-5.024757829941177	7.590506355066175	-0.2007050050897058
O	-2.9715916599411774	9.154061885066175	-3.0510847960897056
O	-7.211826009941177	6.027824605066176	-4.535157406089706
O	-3.7339383399411776	4.437476345066176	-5.209039216089706
O	-6.451536549941178	1.1935108070661757	-8.704862876089706
O	-5.204156109941177	-0.8999989949338243	-11.608169146089704
O	-5.447131899941177	-8.338209094933823	-6.751813766089706
O	-5.492090139941177	-4.709169564933823	-5.579022316089706
O	-2.4173695499411774	-2.7069752449338242	-4.3321815160897055
O	-1.7348907389411772	0.14188819506617578	-6.789940476089706
O	1.0702730600588228	2.616354135066176	-7.487510556089706
O	4.413957050058823	1.8256019080661758	-8.957850216089707
O	5.827928080058823	5.328048655066176	-8.146111836089705
O	5.096900560058822	8.289557985066176	-5.8187755360897055
O	6.3387881300588225	8.429888625066177	-0.3190147500897058
O	4.278951400058823	5.761973085066176	-2.086262596089706
O	5.768600640058822	2.676444905066176	-3.975591986089706
O	4.055384210058823	-0.6108713149338243	-4.591033126089706
O	4.754223460058823	-4.326840314933824	-5.042565086089706
O	6.365656950058822	-6.135049124933824	-2.117618526089706
O	4.305461990058823	-9.192619344933824	-1.3237542660897057
O	6.0385341500588225	-9.886257344933824	1.9534468239102942
O	3.4293100800588228	-11.462332244933824	4.216539043910294
O	-0.2524506299411773	-11.390668644933823	5.267991513910294
O	-2.9884901399411774	-13.978508244933824	5.241147203910295
O	-10.245271319941178	-7.827293424933824	-6.291044006089706
O	-13.165084859941178	-4.317804104933824	-8.997735576089706
O	-13.064349359941177	-2.1171339549338244	-5.914960826089706
O	-13.039901859941178	-1.5771060749338242	2.121073543910294
O	-3.8508836899411776	-8.425036184933823	8.039086223910296
O	-4.466573059941177	-6.3125887949338235	5.034101083910294
O	-4.459625369941177	-9.026303544933823	2.477394373910294
O	-0.7857892389411772	-9.060149144933824	1.2492244939102943
O	0.22718590005882278	-12.478250744933824	-0.038738978289705774
O	-2.9329740299411773	-11.912090844933823	-3.1855433660897057
O	-3.5475356099411774	-8.117840694933824	-3.2340895260897056
O	-6.014107719941178	-6.185843094933825	-1.1308455260897057
O	-4.380022429941177	-3.454870764933824	0.9478436539102941
O	-5.691600689941177	-0.5342584449338241	3.087513693910294
O	-9.204020229941177	-0.3493496349338243	1.7114485239102941
O	-11.382201679941177	3.0519351550661757	1.4058240339102943
O	-9.558168249941177	4.530036555066175	4.429006263910294
O	-11.481844269941178	3.411570475066176	7.512650273910294
O	4.241678730058823	5.206678425066176	-14.345081546089705
