25

O	-0.2952211903983857	0.6015854409427726	24.655411996131527
O	-0.03574624263828552	1.0418811304578872	26.15338664932898
O	-1.999989677847593	1.0405712605566921	26.68121643779783
O	-2.1931214088195365	1.4978186708110721	25.188081223918918
O	-1.548518785928865	0.9965630527624809	23.96120418151051
O	-0.7931012665687605	0.5178679073097321	27.244694484774897
O	-3.703029547482799	0.29705922114497796	18.369645084350356
O	-4.178305218475889	0.357205742811432	17.03735829298446
O	-4.604910643412181	1.562724212524993	16.586065899339065
O	-3.8460352182528905	2.5973675915755368	17.033753555112476
O	-3.4524568407353007	2.460894266464762	18.327218702689564
O	-3.2778947236381573	1.3423865479520856	19.138703783969497
O	-0.9947640931373267	2.2113667615321524	21.85409359103014
O	-2.55842945470138	1.4863553675507006	20.41383218489315
O	-2.2257793981651792	0.6264816668694235	21.381999926251776
O	-1.6861633943299514	1.2226058834627989	22.53021934625625
O	-1.6037616516937865	2.4475761476320823	20.658001917205127
O	-2.0375564274016194	-1.8989673057362502	21.11056996979466
O	-2.665333179972767	-0.7511855896873744	21.516037122954607
O	-2.8559914456956594	-1.665249097798804	23.78772175605809
O	-1.8479767956069166	-2.869827118101881	22.114443348176795
O	-3.2473520568464265	-0.9006879183449767	22.701405142780313
O	-1.7609973029837056	-2.2724470057219213	23.37806906375734
O	-2.8104572399895824	-1.5209320332736092	25.21711969262868
O	-4.974786877048711	1.606591634827137	15.283157967227028
