28

O	-1.2652039303807525	-0.5335020928085885	20.988119640380763
O	-2.1418842639776337	0.5621921913586156	21.3603199552851
O	-1.5346679330872628	1.0716005682475402	22.503556878354576
O	-1.9725722204744982	2.4437491744490343	22.157320969997755
O	-2.7603147793411917	2.556671844549638	21.150402950885812
O	-2.8718273306626916	1.3636469741142134	20.642850395106763
O	-2.99756557152322	0.9742107645305897	19.291966382504683
O	-4.369789234104017	1.2839142575042182	18.89175318824729
O	-5.011580666436355	1.4978423168721258	17.663132406264012
O	-4.260903884942585	2.0477891032403153	16.683244409286228
O	-2.966765224699648	2.2790443953219315	17.011571109850944
O	-2.7172875314145237	2.116843211870279	18.38808469409288
O	-1.1815185774421122	0.4635628329814776	23.804654956515805
O	-1.4094846599509827	1.3684735217359552	24.713043176059923
O	-1.8879889350943717	-0.8254570060175253	24.179105581580195
O	-3.1380192382464562	-0.7660293538974619	23.49671637207486
O	-3.8257102197089976	-1.5468221082774085	24.52455772362415
O	-3.466604900332648	-1.7445770924409076	25.848182263536096
O	-2.252505183635783	-2.329978462514659	26.2255004217257
O	-2.278116304673965	-2.6171372570614846	27.576023922344206
O	-2.9289089202287064	-2.730111264973274	28.7608472859028
O	-3.7879815147386253	-3.8191329650374417	29.26208866929643
O	-4.055015375173129	-4.449189990088785	30.583822406977944
O	-3.3304651088804094	-4.0619436519003465	31.746067963557753
O	-3.0371457573179077	-2.715638082618537	31.40992254814082
O	-2.509100242695584	-2.1892241500314173	30.073640696961807
O	-1.431465493422164	-1.6517314019801428	25.31221529936017
O	-4.88427750831085	2.6314958091492544	15.635239464377884
