23

O	-2.659108102384727	2.5191837562684074	21.71237411607655
O	-3.6496763683146805	1.726472953410513	21.218560383277413
O	-3.855054846328061	0.43622492385234235	21.94101090179055
O	-3.388710091247641	0.19521467670918125	23.22141264729192
O	-2.7216805403803432	1.2029226682679448	23.938226377241172
O	-2.3934814700357236	2.166367298091991	22.98079113546765
O	-1.7162344823465756	2.220374086388746	20.73260891954213
O	-3.494515276852756	1.783460814592248	19.86334725976102
O	-0.4005166295801321	2.101372465565132	20.85769854604949
O	-2.1907999451159323	1.2704570028913043	19.843761001734798
O	-2.1908238413479464	-0.14675761622144123	19.636692231206275
O	-1.3713099988346436	-0.7529071190887779	20.700302418034813
O	-1.6274076061997285	-1.75939960880152	21.602710183901316
O	-2.718787326090273	-2.467070305661486	21.432519892029944
O	-3.3166337967479214	-2.3052344417250703	20.281738259406733
O	-2.7596869088285305	-1.3545903167190652	19.42142049220045
O	-4.201465155335223	1.4936709668388113	18.644146370764272
O	-4.637621750108549	0.19379856385378602	18.545527213571166
O	-4.767458000681243	-0.3477879498270475	17.310915096675295
O	-4.047553686869603	0.13027993868144927	16.292447994756003
O	-3.6882886698232458	1.4393412602248308	16.26859538488503
O	-3.24717766673964	1.602304984734092	17.574691826428076
O	-4.2400336514221655	-0.35373881157129583	15.084240488114688
