32

O	-1.8049969649690816	-2.707370064343269	22.572132147460046
O	-1.7443277473720937	-1.8407683346723065	23.669529384332684
O	-2.130224190096366	-0.4773662402249499	23.599075967232565
O	-2.7964780770672464	-2.4949807343644768	21.581540306800147
O	-2.7533843781805207	-1.0649774129638387	21.270489015041935
O	-2.1946839820184616	-0.12518265073645923	22.234335685561547
O	-2.8873827494246553	1.094342234012404	22.137946063896344
O	-2.9394904435435487	1.368330731996188	20.757025121896962
O	-2.297978993892748	0.5676445644390964	19.730357442787554
O	-2.5099461946849044	-0.8711712944307417	19.842719808236573
O	-2.5628899286551987	-2.4483531566183725	24.65550279512082
O	-2.236504454139948	2.026487997579359	23.01227993554383
O	-2.5188687763454425	2.6495547354523317	20.652878304119362
O	-2.9654091823028743	1.0566510162973002	18.505091875509112
O	-1.9676375557893322	0.9098072366849465	17.445090414454437
O	-2.271699681787212	1.9278581802878576	16.369095742761402
O	-3.747010256065196	1.8517736561284028	16.137630311840535
O	-4.4279935493625455	0.6518301117502755	16.73002771822954
O	-4.1777304977260545	0.2992913595091392	18.207104168838335
O	-4.229796098902234	-1.184795702326057	18.293922897374912
O	-2.0481564940575816	3.238101072577824	17.16742665083119
O	-2.1080855765435436	4.005052008696653	15.978065584031219
O	-0.8548268824129934	3.545618676434198	17.701151574195116
O	0.14278995440043118	3.497236353602761	18.55513194340251
O	0.4894846327941087	3.6355603236333294	20.1546184595039
O	0.40911339103857625	2.3359075690681377	19.7759726578756
O	-2.360785637362992	-1.6973399105591696	25.8786790386146
O	-2.2745543316170056	-2.626074394435856	27.002918689540248
O	-1.0926292684914363	-2.379111101697126	27.83738774076479
O	-0.8236366242820998	-1.1024182072626134	28.24835833561761
O	-0.6973598512185184	-0.485774090199085	27.03066332227637
O	-0.9775173784234386	-1.2823790481734594	25.822553497192857
