98

O	-3.0869455232419356	-1.2048106779387087	1.8705708211774195
O	-1.0223823632419358	-1.6683068879387088	4.099167621177419
O	0.7629659167580644	-0.8102042779387089	-7.611561178822581
O	-0.09024189924193571	-0.3858123079387088	0.21894361117741923
O	-0.8667569685419357	0.32615995806129117	-1.0625264739225808
O	-0.21387931024193574	0.3120096360612912	-2.2026965588225806
O	1.1238373067580643	0.1491741820612913	-1.9199608678225806
O	3.4686753267580643	1.3044208110612912	-0.49892817282258073
O	3.0478124067580645	0.23986936006129123	1.3513269311774192
O	-0.5699356102419357	1.1912649951312912	-3.2712789288225803
O	1.4118766867580645	-0.05023320793870889	-0.5735897778225807
O	-0.18770475224193572	2.355657792061291	-3.254231118822581
O	-2.2912502432419357	0.2844156260612912	-0.9186311298225807
O	-2.3988328032419357	1.2123777870612913	0.1322101511774192
O	2.6985097867580645	0.0734953920612913	0.0020821211774193493
O	-2.447222263241936	2.318259722061291	-0.5018835788225807
O	-3.007075693241936	1.6083225100612912	1.2103394211774192
O	-2.2516802632419357	1.3192923930612912	2.3428800911774195
O	-2.602155883241936	2.187771617061291	3.2701967311774194
O	-2.0976946932419356	0.5446116170612912	4.911496641177419
O	-1.9215759832419357	-0.27796207793870886	3.9044304611774194
O	3.827840496758064	-0.8749021579387086	-0.4599984198225807
O	-2.428434273241936	1.8029988120612912	4.597396181177419
O	-2.226528763241936	0.01848700206129128	2.662973141177419
O	-2.602360393241936	0.1827363220612912	-3.539091888822581
O	-1.1870226042419358	0.39588969406129126	-5.964921978822581
O	-1.7536399392419357	1.3456501260612912	-3.8875912788225806
O	-1.7388373932419356	-0.906823627938709	-3.8669261288225805
O	-0.8185534565419357	-0.43330655793870876	-4.837502978822581
O	-2.4494712732419357	1.2263828518612911	-6.131991288822581
O	-0.2626863772419358	1.2067096351412911	-6.066353218822581
O	-2.0573349432419357	2.1782874430612913	-4.9849229588225805
O	0.4194809167580643	-1.0413080179387089	-5.098549028822581
O	0.24021161675806424	-1.4818467079387088	-6.517132068822581
O	1.5683750067580644	-1.8820775179387088	-8.18307923882258
O	0.046563640758064295	-0.3063944579387088	-8.722445448822581
O	-7.879797513241936	4.563212992061291	-0.022912528822580658
O	-5.898809613241935	3.447099472061291	-2.904881538822581
O	-8.189580833241935	1.4288845240612913	-5.517791128822581
O	-10.772462053241936	1.1597422110612912	-2.7092435188225807
O	-12.886431063241936	2.709082362061291	0.12010221117741926
O	-11.805101363241937	3.036952202061291	3.781170071177419
O	-13.616672263241936	2.882592472061291	7.029991351177419
O	-8.691611813241936	1.1506915192612912	9.33098146117742
O	-10.376998503241936	-1.267862767938709	6.937380391177419
O	-9.905265273241936	-0.8060507079387087	3.151108401177419
O	-10.973365663241937	-3.0866024079387087	-2.762036918822581
O	-13.018183263241937	-1.5888735079387086	-5.674757618822581
O	-10.544769343241937	-6.210982397938708	-7.648758608822581
O	-7.074647673241936	-4.916307167938709	-11.46394313882258
O	-6.455498553241935	-8.50165362793871	-10.65365204882258
O	-2.697152903241936	-8.31591195793871	-10.791114128822581
O	-2.8203684032419356	-4.983773637938708	-8.82371393882258
O	-4.9296232132419355	-6.675860187938708	-6.134359188822581
O	-2.3682538932419357	-9.383020347938709	-5.729359838822581
O	0.4797791567580644	-6.974175997938709	-5.786617818822581
O	-1.0687308252419356	-5.145347487938708	-2.8238292088225805
O	-1.8329712032419359	-7.7890291679387085	-0.7523159118225807
O	1.6579853667580644	-9.09635894793871	-1.2731737878225806
O	3.3373453867580647	-5.9287767179387085	-0.39015845782258074
O	1.1467212167580643	-5.223405227938708	2.696386781177419
O	1.9347562967580645	-8.79060645793871	3.862521351177419
O	5.631613436758064	-8.33173207793871	3.6441805711774187
O	6.0018660667580646	-4.953888537938709	5.483612721177419
O	5.359250136758065	1.6216164130612913	7.073689111177419
O	1.6744555167580644	0.5656770780612912	6.759347111177419
O	1.3681009767580643	-3.177424077938708	7.039759421177418
O	-1.3966821362419357	-5.784830617938709	7.5769388511774185
O	-7.3800146232419355	-5.049772027938708	4.145359391177419
O	-6.953307393241936	-4.073391197938709	7.861466811177419
O	-4.253854763241936	-1.8189227179387089	9.22838486117742
O	9.813421536758064	9.029190562061292	6.554578611177419
O	10.558720336758064	3.9475408920612916	6.563568971177419
O	12.031062936758063	4.496469152061291	3.042289481177419
O	13.338945736758063	-0.21269224793870878	4.807278571177419
O	11.054952136758063	-0.0912838279387087	1.7228700811774191
O	13.945032836758063	0.5713471180612912	-0.6568324978225808
O	15.972748536758065	-2.3523768079387084	0.8054705411774192
O	10.342878636758064	-1.4735286379387087	-3.6994019588225804
O	9.824664436758063	2.074700361061291	-4.755125848822581
O	7.073278696758065	4.443717492061292	-3.5448070188225804
O	6.986694866758064	6.511195202061291	-6.685486628822581
O	4.341658156758064	8.99318867206129	-5.439759278822581
O	5.3465347267580645	10.00137572206129	-2.0003649788225806
O	3.3234007467580646	13.116691752061291	-0.9967229668225808
O	1.8669158367580643	14.648210652061291	2.1508816711774195
O	-0.0399531302419357	9.38968108206129	1.8451556911774192
O	1.9119920267580643	9.94341046206129	4.934367421177419
O	-0.4519877402419357	8.905349592061292	7.75359384117742
O	3.6761646767580647	5.622618752061292	8.54069791117742
O	4.121684816758064	5.550946152061291	4.763833481177419
O	0.9442264467580642	4.564579172061292	2.9395136111774187
O	0.37134197675806424	3.5224471020612915	-0.5397011808225807
O	3.8575545967580647	2.979558242061291	-1.8074842418225807
O	4.708494606758064	0.14430348206129118	-4.514143008822581
O	2.1917464567580645	1.0340091640612912	-6.428518898822581
O	2.2175418867580645	3.7811733220612913	-8.94984498882258
O	-4.131436193241936	-13.83281384793871	-10.26566792882258
