34

O	-2.787985677161817	3.27330764656328	17.117602496695945
O	-5.766215622918496	0.973797656084219	17.363450203112862
O	-1.9212510049906157	-0.21244970371500677	23.66513778171412
O	-1.9424074983306354	-1.5694397470813122	24.03705518680928
O	-2.388944758471556	-2.434796453567159	23.00427945245749
O	-2.474795320611017	-2.0922732574187854	21.62868885123788
O	-2.7035957774474535	-0.7081932623135903	21.271662807202084
O	-2.085215316035997	0.12191886240642164	22.307296892993104
O	-2.336046489528725	1.45533334912776	21.885173242877066
O	-2.824624484429954	1.9568617036888811	20.70009011757087
O	-3.3499299602597272	1.1652516815969745	19.65539764242052
O	-3.0151352357488124	-0.185079886742406	19.955353286942564
O	-3.8105099411440446	1.6555075456971886	18.512778943590657
O	-4.085678180662533	1.204790894612038	17.21934005155865
O	-4.046460213524032	1.7618216395155237	15.8721637915547
O	-4.997968569404596	2.7654460359176003	15.536807962447128
O	-5.188106699475325	3.2457109881827644	16.970910866653963
O	-4.213879439544719	2.877129756675608	18.022232204089814
O	-2.0355595156170296	-1.2633174863748742	26.4546813816077
O	-2.8812933212657743	-1.1076236429661515	27.6674063240235
O	-2.4199021593300216	0.07259304338705536	28.463562285029866
O	-2.26845374870355	1.3454051340800244	27.627710742164826
O	-1.4066331447175755	1.207602752687625	26.43426206881996
O	-0.9974978485483303	-0.22260281461979398	26.43847640753571
O	-1.9019217481524573	2.3088088205365405	28.528697128418777
O	-1.9248363533995354	1.95311355149148	29.897329508444187
O	-2.379300799439579	2.6535761350543057	31.02572089383265
O	-2.8192604066213987	1.6292979856845127	32.00289162268041
O	-1.5051707803596663	3.466179207068456	31.81903718515666
O	-2.184172502370484	3.8297732677697685	33.106372467265516
O	-1.8839117747000809	1.4746918376585743	33.16170625712941
O	-2.124471141082113	2.963470647758624	20.06697379187199
O	-1.186148570360563	2.18143137384095	22.4540096250136
O	-2.659565281373858	-1.7072794484917593	25.27237534914419
