105

O	-0.6374161365229516	-3.3034728662459014	3.7252294711236065
O	0.2355044334770482	-3.851858076245901	2.7476999811236062
O	0.2779970634770481	-2.7497776762459014	4.592982371123606
O	1.1227462334770482	-2.989505856245901	2.0681971411236066
O	1.095910413477048	-1.9223131862459013	3.808065321123606
O	-0.38309347652295167	-2.3631440062459013	-0.5842852868763936
O	1.0000707534770483	1.2517236577540989	-1.6074191798763935
O	-1.2480167085229517	-3.1921156162459012	0.061890211123606376
O	-3.908642826522952	-0.030347774245901293	-1.0540873608763937
O	-3.2433938265229516	1.2277474757540987	-0.8050885198763936
O	0.7901689334770481	1.5694038277540987	-3.0017060288763937
O	-0.8319284165229517	2.2658750837540986	-1.2025018471063935
O	-1.6215785725229517	-0.6122451162459013	0.20958553112360634
O	-2.877043548522952	-0.18675123324590126	-2.9092743788763933
O	-5.771955586522951	2.586751083754099	-5.133385478876393
O	-7.0811540365229515	4.572052263754099	-9.433409238876393
O	-4.948428276522952	4.4859397237540986	-9.753806228876394
O	-3.263962796522952	3.2830085837540985	-2.3697420688763935
O	-2.0228924469229517	3.781996713754099	-2.9517032988763936
O	-5.760384596522952	2.705706233754099	-6.5534377488763935
O	-7.069343106522951	3.4507135437540986	-8.474930828876394
O	-4.975080946522952	3.2898408737540987	-8.870310188876394
O	-5.891680306522952	1.4467499517540987	-2.4302900888763936
O	0.3005334934770483	-0.010966079245901317	1.2533495711236065
O	-0.9986124465229518	0.27615154175409873	-4.563623648876393
O	-5.153903246522951	0.8771996997540987	-3.2126198088763935
O	0.010103673477048325	-0.6148052562459012	2.2299273611236066
O	-1.4284853005229516	1.2885388437540988	-4.084665798876394
O	-0.2565507865229517	1.0321646967540987	-1.1815036227763935
O	-0.9900839965229518	-1.2184363562459013	-0.8797864308763936
O	-2.142003903722952	-2.6316982962459012	0.9482754211236062
O	1.0031092734770484	-1.7345203962459013	2.4761371511236066
O	-4.046679086522952	0.04591866575409875	-2.3510349888763935
O	-3.0826694685229517	1.8765096337540987	-2.0896602898763934
O	-0.9889243365229516	2.8603184637540986	-2.4778396188763936
O	-2.0437955261229517	-1.3505548062459012	1.2735110411236066
O	-0.38629384652295173	2.145405823754099	-3.5000140888763935
O	-2.5876714115229515	1.1377879647540987	-3.2699559688763937
O	-5.079428246522951	1.5649423767540989	-4.4782816388763935
O	-1.4007897025229517	-0.8742494162459014	2.429993401123606
O	-0.4606453965229518	-0.29440853624590124	-1.5857923018763935
O	-5.880055166522952	3.358190073754099	-7.721931358876394
O	-6.145103566522952	4.544454623754099	-10.444205928876395
O	-2.761028347522952	-3.443165646245901	1.7825140011236063
O	-2.3204047345229517	-5.617225986245901	-12.789671608876393
O	-5.178662716522952	-5.594413846245901	-10.257867158876394
O	-5.742515266522952	-2.4132002362459013	-8.578952088876393
O	-6.575744176522952	-3.9241041162459016	0.45240285112360645
O	-7.306046886522951	-4.559717446245902	4.352265661123607
O	-6.897289266522952	-9.048193046245903	0.8785711111236065
O	-6.536894436522951	-8.2908496962459	-2.8291506788763936
O	-3.9311973465229517	-6.013282676245901	-4.527035698876394
O	-2.0936200403229517	-5.822026286245901	-7.764290958876394
O	0.36628881347704834	-3.3458206762459013	-9.182799098876393
O	3.538365363477048	-5.000101346245901	-10.562116848876395
O	6.788763113477048	-0.011901771245901305	-9.463148998876393
O	5.339814183477048	-2.0228966162459012	-6.613756968876394
O	2.1056766734770482	-2.991110206245901	-5.081735268876393
O	1.5449600434770483	-6.637069536245901	-4.092998388876394
O	-1.3065629985229517	-7.721975186245902	-1.6596063018763936
O	-2.434102522522952	-11.2914469662459	-1.1762083911763936
O	-3.9634003665229516	-11.8605130662459	2.2624992611236063
O	-2.137322780822952	-11.8220087662459	9.789841991123605
O	-0.03348738652295191	-6.923795396245901	10.106687291123606
O	4.744199893477048	-3.6781788962459014	8.430872611123606
O	9.693535933477047	5.931228423754098	7.549202651123606
O	9.112755633477049	7.913546343754099	4.407934881123606
O	5.467816273477048	8.7498207437541	5.267409731123606
O	4.439964113477048	5.3309177737540985	6.534142731123606
O	3.8062036734770484	2.2995109637540985	4.220975421123606
O	6.476477603477049	-0.37528618624590127	5.047895201123606
O	7.2655093134770485	-3.723530596245901	3.5341232211236058
O	9.396495733477048	-4.053222346245901	0.47665210112360645
O	9.112004233477048	-7.823025176245902	0.3496263311236063
O	6.9582041134770485	-10.5676506662459	1.8021574511236065
O	0.9946582234770482	-14.5563000662459	2.6057635811236066
O	1.8349104534770482	-11.884245266245902	-0.06647791887639354
O	3.0907016934770484	-8.5067426862459	0.9831270711236064
O	4.895469083477049	-5.908033776245901	-1.1985736051163935
O	5.292060643477049	-2.2143413462459014	-0.9475520518763936
O	5.5916022034770485	0.9459822247540988	-2.8155015588763934
O	2.893448633477048	1.7815807737540987	-5.597661968876394
O	1.6689631934770484	5.2699924637540985	-4.626241598876393
O	-0.9758285965229516	5.111645363754099	-6.847664268876394
O	-3.799590936522952	7.434946413754099	-5.3915716288763935
O	-5.649103616522952	8.228289843754098	-2.2752490488763937
O	-6.153450326522952	11.642107633754097	-0.7067967978763936
O	-9.686205646522952	11.9585144337541	-2.0229950388763935
O	-8.094527696522952	11.6286990337541	-5.4662333388763935
O	-5.823850466522952	14.539068233754097	-4.812494338876394
O	-8.883521746522952	6.804777253754099	1.7511877411236065
O	-5.925834936522952	5.330240723754098	3.5852254411236064
O	-3.5169025565229517	8.104845003754098	2.893329981123606
O	-1.6037277995229517	6.987052403754099	-0.18732303887639357
O	-0.3042614465229516	9.759235203754098	-2.3420606388763936
O	1.8568278334770483	9.642727203754099	-5.5149149588763935
O	4.414276583477048	12.467445233754098	-1.5271205638763936
O	2.265521383477048	10.7918419337541	1.1575414711236063
O	2.299563893477048	7.4910499037540985	3.158424011123606
O	-0.10511389652295167	6.423448623754099	5.922550461123606
O	-1.8470232365229518	3.1641116237540987	5.342338981123606
O	-3.8591242765229516	0.4033872287540987	7.368455911123606
O	-2.6063701685229517	1.6767279937540986	10.690618591123606
O	-2.641348769522952	-0.6693715562459013	13.717947791123606
O	-5.322001486522952	-2.941159566245901	12.285999291123606
