87

O	5.0025149500942305	0.019177383209614707	0.09100025286538449
O	7.73678520009423	-1.6541511117903853	1.3266723168653844
O	-1.731566709905769	1.7504492522096147	2.7093508568653846
O	-2.9169428599057694	1.7365074352096146	3.4678483668653843
O	-2.617623559905769	1.4869776982096146	4.758080586865384
O	-1.640928459905769	0.5999843572096146	4.9812946468653845
O	-0.9370329399057691	0.17502325020961462	3.892471266865384
O	4.678742060094231	-2.2350568217903852	-0.36356261003461554
O	5.2290988000942304	-3.483990281790385	0.016722956865384442
O	6.564338710094231	-3.9243432717903852	-0.2952810526346155
O	7.440567350094231	-2.9660904817903857	-0.8335397571346156
O	6.590435000094231	-2.6420415917903854	-1.9301127431346154
O	5.285639040094231	-2.1220184317903854	-1.6348806731346155
O	5.154746970094231	-0.9550576417903853	-2.429821203134616
O	5.01583197009423	-1.6372104817903852	-3.8210208931346155
O	3.668732810094231	-2.194962901790385	-3.4564690731346155
O	5.248184000094231	2.0251027682096145	2.587915196865384
O	-0.8916232999057692	0.6449636912096146	2.5551773368653845
O	0.4476377623942308	1.1266111452096146	2.0786348768653844
O	2.311926250094231	1.4006188312096146	3.173066156865384
O	1.1516767220942308	1.9122204652096146	2.9297804968653844
O	8.204345920094232	-2.3899929517903855	0.17030124186538448
O	4.409209480094231	-1.2225469817903851	0.5182973778653844
O	3.5099631200942305	-3.097236181790386	-2.6275044831346155
O	3.6918437500942307	2.6921346082096145	3.3192837968653843
O	1.389534991094231	0.5793541992096147	1.2441402268653845
O	0.2665612110942308	1.1725243122096147	-0.8452054821346155
O	1.1771520620942308	0.3572152632096147	-0.15995579313461555
O	2.020323860094231	-0.30035552179038527	-1.0613269341346157
O	1.7571762500942307	-0.7077618217903854	-2.3657717131346154
O	-0.22168199890576912	0.5738569502096147	-1.9599442431346157
O	2.497438480094231	0.6221252252096147	2.0354766668653843
O	2.686732820094231	-1.1355410817903853	-3.3255014431346157
O	0.7696495040942308	0.10267825920961471	-2.7663514131346156
O	-3.5190127199057697	1.8335298552096146	5.667668386865385
O	4.971233660094231	-14.784089741790385	7.260671466865385
O	-3.251683369905769	-12.316487841790385	-0.8405150321346155
O	0.44572191619423085	-12.004955141790385	-1.4822403031346156
O	2.7907951200942307	-10.284805341790385	1.0015859268653844
O	4.5041074700942305	-7.513774601790385	-0.6283297871346155
O	3.7782856300942305	-0.6991476917903854	6.0704110468653845
O	3.5037522100942304	2.2857812982096144	8.549461756865385
O	2.771813160094231	0.4238149672096147	11.815206906865384
O	1.715331530094231	-2.7460483617903853	9.980930006865385
O	2.2106048500942306	-5.322258161790385	7.196058296865385
O	0.9494010450942308	-5.282636881790386	3.6852275468653843
O	-0.3002852139057691	-7.723730451790385	1.1767266368653844
O	-1.4240021999057693	-7.424363081790385	-2.393102533134616
O	-4.782211129905769	-8.785086631790385	-3.1754411931346156
O	-7.370646149905769	-9.116598941790384	-5.881447983134615
O	-10.571819939905769	-7.318453061790385	-5.119003663134615
O	-5.561218369905769	-4.891385461790385	-7.653174483134615
O	-5.423765089905769	-3.621049101790385	-4.0570460631346155
O	-2.9094385799057694	-3.3269345217903856	-1.2669715771346155
O	-4.215156889905769	-4.351975831790385	2.171053986865384
O	-2.376441799905769	-3.4315981617903857	5.3855828268653845
O	-2.9193207499057694	-4.9733595017903856	8.725565426865385
O	-2.1512791099057695	-2.6684077817903855	11.594671206865385
O	-5.705684789905769	11.262758958209615	-7.121957693134616
O	-2.1515046099057695	11.802406058209616	-5.813552703134615
O	-2.845883759905769	10.883352878209616	-2.1401135631346153
O	-3.315879649905769	7.301849148209614	-0.7266612601346155
O	-7.765167019905769	-3.0982320317903858	11.763387206865385
O	-7.0267662099057695	-3.6755069717903854	8.005265446865385
O	-6.738030219905769	-0.7051881117903853	5.6638555968653845
O	-7.28797518990577	-1.0916816117903851	1.8704095968653842
O	-5.684627639905769	1.1108615822096146	-0.6608525781346155
O	-4.795119749905769	1.0899171942096146	-4.470099673134615
O	-1.9081690399057691	-1.1588064417903852	-5.509125783134615
O	0.8400949060942309	0.9383766293096146	-7.159362373134615
O	3.470203600094231	-1.5988615917903852	-7.083334893134615
O	6.77938916009423	0.39075825720961466	-6.881262003134615
O	8.42580019009423	3.3627240082096144	-5.220347963134615
O	12.355970660094231	1.4461584622096146	-8.024601363134616
O	10.23017458009423	5.692662928209614	-0.6078333001346156
O	6.775739150094231	6.8103740482096145	0.3212808658653845
O	5.8441608000942304	7.893768938209615	-3.0957881131346157
O	4.002200720094231	4.995977518209615	-4.693927813134615
O	4.296720940094231	4.946711038209615	-8.515929633134615
O	2.589191400094231	2.5472419282096146	-10.977182793134615
O	2.0024712400942306	8.794959048209614	-8.315317463134615
O	0.34165203209423084	8.795305748209614	-4.810745343134615
O	1.761867260094231	10.151433878209616	-1.5127702531346157
O	1.8564221800942309	7.524305348209614	1.2619975668653844
O	1.9802153500942308	7.283734578209614	5.083057006865385
O	1.6827339300942308	11.110629358209616	5.527359346865385
O	5.60602178009423	11.069559258209615	11.728273506865385
