30

O	-2.502780665498614	-1.3738465495288628	20.102312287122675
O	-2.3530533791486836	-0.4386622984477748	21.137897171008678
O	-2.435845313224359	0.8458030306364588	20.566421570373087
O	-2.4118131243476064	1.3863070822590917	19.425149758333497
O	-3.2497781378542436	0.5416241086059025	18.761664112053545
O	-2.9899375123765326	-0.777443469049742	19.005726402253845
O	-2.6390584616120316	-2.864110533887055	21.930181490570934
O	-3.031833135223641	-1.9020244133805495	22.79428596753386
O	-3.0536003858525635	-0.7130186245775826	22.231091748437333
O	-3.1224320490263517	-2.496647770061322	20.619377461925183
O	-3.589661984850742	1.0873675662268518	17.49605795338098
O	-2.5358077332044138	1.5195762682581562	16.671470723849982
O	-2.820836947560254	2.2616164425391294	15.511847870170238
O	-4.122818502016463	2.052222045003273	15.146705317705107
O	-5.180202096775732	1.7060887403590936	16.025931032123264
O	-4.891942379534743	1.1059765805368171	17.169725330122315
O	-5.904787222005639	0.06709119434138787	17.571518027155825
O	-1.6939606223919854	2.4503706837758075	14.620842392081514
O	-0.9108181689285018	1.457500650358153	14.47334564760004
O	0.1112358040034005	3.720732354980009	13.4074136889523
O	0.7124475122304705	3.7094189328492675	12.086546745917808
O	0.7403542993699799	4.92276497643266	12.912850079691712
O	-3.681892514270547	0.541146916947419	22.648701110658664
O	-2.87727853863402	1.1215287737551134	23.664444394627456
O	-2.0182817915413467	2.1968296087263712	23.317139365059234
O	-2.7692469324566353	3.020238327737515	22.417767353859013
O	-4.095119443253548	2.69725461746347	21.935678798855946
O	-4.363433707342023	1.3714161287870297	21.738325469618204
O	-5.27698736266527	0.8647823838956684	20.640083485852994
O	-1.2270622434301828	3.616377545791733	13.924853870937646
