98

O	0.16345803507462658	-0.15079948698507373	-3.028612528350746
O	-0.6527420949253734	0.16076819701492628	-1.9993457283507463
O	-0.35938072802537335	1.3413294120149262	-1.4165322883507463
O	1.3901068560746266	0.20256648901492635	-2.8868833883507463
O	1.7463314560746268	0.6517763280149262	-1.7228361583507463
O	0.9031103560746268	1.3961563820149263	-1.1844310963507463
O	1.2294563360746267	2.336551463014926	-0.2718910873507463
O	1.7267757060746265	1.4953455080149263	0.5360005416492537
O	2.8049159760746263	1.7024443220149263	0.8841558216492537
O	0.9208938560746267	1.8545828010149263	1.7003066916492537
O	0.15318209807462663	0.7276325330149263	1.6220059716492536
O	-0.6895034479253734	-0.22862121698507365	1.1347206916492536
O	-1.1108026129253734	-0.7815731169850737	2.302589491649254
O	-1.8100648239253734	-2.0281813669850735	2.120813101649254
O	-2.8280559539253733	-2.0540069769850735	3.0820245916492537
O	-0.9921239229253733	-3.1604703369850737	2.5214079316492537
O	-1.8539496639253734	-2.422554406985074	0.7579077216492537
O	-0.023270291925373388	-0.6287489869850738	2.993040651649254
O	0.9742012560746267	-0.017297011985073718	2.3540276916492537
O	1.9118074260746265	-0.5019998369850738	1.3886600716492539
O	1.2720874660746266	-1.5218662269850738	0.7886631316492537
O	3.1102009560746264	-0.6843509769850737	1.0527752416492535
O	3.3466125560746263	-1.0319886069850737	-0.19802491635074626
O	2.4656376060746266	-1.5025670069850736	-0.9987674343507463
O	2.7225242060746266	-2.4981661569850733	-1.9792511083507462
O	1.2415612660746267	-1.631048666985074	-0.4919600581507463
O	1.5050312160746266	-2.5682215669850734	-2.501097648350746
O	2.9188016460746264	1.1246434240149263	-1.4889585483507464
O	3.8050183660746266	0.7729987550149263	-2.520336248350746
O	3.3791077660746263	-0.09172683698507367	-3.4128650783507464
O	2.1754039060746266	-0.1641537069850738	-3.847089548350746
O	7.585130986074627	2.119298683014926	0.7367678216492538
O	5.636850176074627	2.945550593014926	3.7789489016492537
O	5.816025716074627	6.8460239230149265	4.335446681649254
O	7.191390616074627	7.207502773014927	0.8075615916492537
O	9.653223096074626	6.274295643014926	-1.9358606283507465
O	8.969651536074625	3.446165273014926	-4.415495208350746
O	10.019384896074627	3.216374293014926	-8.008206018350746
O	9.518792736074627	0.4182477900149263	-10.416644948350747
O	4.361213236074627	-1.8079062769850738	-11.665848928350748
O	5.545694786074627	-0.27600075698507376	-8.542190098350748
O	4.753875586074627	3.3019136730149263	-7.836487208350746
O	4.939799196074627	4.7536225230149265	-4.316738988350746
O	5.155920006074627	8.567245643014926	-3.929718168350746
O	3.950562636074627	9.518236083014926	-0.5222213728507463
O	6.5615177260746265	11.780854253014926	1.2763042916492537
O	4.963511906074627	15.146744253014926	2.476865061649254
O	1.4751139660746266	13.677136653014927	2.7190096816492537
O	-4.987993483925373	11.393531453014926	8.312610941649252
O	-2.3556252039253733	8.600956523014926	7.635153731649253
O	-2.4283911339253734	9.490548413014926	3.8787439516492537
O	-6.2016379139253734	9.130718653014927	3.897353271649254
O	-6.072799713925373	5.918551763014927	5.866135291649254
O	-3.6866202239253734	4.3889333330149265	3.391885591649254
O	-5.413970533925373	5.394118293014927	0.2667106746492537
O	-8.788724743925375	4.121480473014926	1.7803010016492538
O	-7.127915953925373	0.7946496430149264	2.626504041649254
O	-5.399480503925373	0.30043165801492633	-0.6876102613507463
O	-8.693430213925375	1.0644437190149263	-2.4439591483507463
O	-10.655302003925375	-1.5161617469850739	-0.5926977783507463
O	-8.196156643925374	-4.496940506985074	-0.9491335793507463
O	-9.007832093925375	-6.841308516985073	-3.747042278350746
O	-2.7369833839253737	-8.505192376985073	-0.6566085843507463
O	-1.2633296949253734	-5.249611256985074	-2.1096542783507464
O	-3.9990729139253736	-3.2662008569850736	-3.6686957583507462
O	-4.2888618939253735	-0.32816190698507364	-5.9428323583507465
O	-3.7219176839253736	-0.4388303469850736	-9.605802868350747
O	-3.8370499539253737	3.3486607630149265	-9.984000648350747
O	0.07936132907462662	4.794130793014927	-5.360372648350746
O	0.44085793807462664	2.1556540930149266	-8.044500268350747
O	0.4359624390746267	-1.5004793969850738	-7.372783568350746
O	1.9915178160746267	-4.695758266985074	-8.677235368350747
O	5.756280466074627	-4.978968096985073	-8.680940938350748
O	6.740152076074627	-8.151198096985073	-6.981158028350746
O	-4.121256883925374	-13.020255346985074	2.596314821649254
O	-9.091516583925374	-11.708247646985074	3.8803688216492542
O	-7.584072503925373	-8.762485976985074	5.716631851649254
O	-8.154186353925374	-4.841463586985073	9.663541371649252
O	-5.038115773925373	-6.028444686985074	11.522523571649254
O	-1.4054879159253735	-5.848993126985073	10.106531071649252
O	3.9155912060746263	-5.244745476985074	11.898429171649253
O	9.681113796074627	-10.712301046985074	6.107235651649254
O	10.343881996074627	-7.216004586985074	4.670981591649253
O	6.7485519660746265	-6.426757936985074	3.942271591649254
O	5.917604116074627	-9.620294346985073	2.277113091649254
O	6.469891366074627	-8.858199076985073	-1.4034093993507462
O	7.389376046074627	-12.077553146985073	-3.303437298350746
O	1.3637154760746266	-10.348754246985074	-1.3323879453507463
O	1.1839084360746266	-8.610442566985073	1.9819216716492538
O	2.3717704860746265	-4.844117196985073	1.811132351649254
O	2.0332921560746264	-2.1007087969850735	4.680078191649254
O	-0.7608658859253734	-3.6887760369850735	6.713248941649254
O	-3.3526025239253734	-1.4207867369850737	8.713873051649253
O	-0.7706199139253733	1.3596521520149263	9.058544831649252
O	1.1825662760746267	0.7045749340149263	12.303824071649252
O	-8.164731453925373	12.188474653014927	0.19103832064925375
O	-10.802209803925374	5.871767333014927	-8.032902668350747
O	-12.034292703925374	3.191559283014926	-10.455329328350746
