88

O	-5.167670518886775	0.8922081567145164	-0.3222905944193545
O	-3.7700030988867748	-1.0047268692854838	-0.9272237674193544
O	-2.5711892988867753	0.25003500071451623	0.3031729275806456
O	-3.7561133988867748	0.26391162071451624	-0.31005051541935447
O	-2.493526678886775	-0.5244750592854837	-1.4150101044193544
O	-2.907956228886775	2.6479348507145164	-1.0889558401193544
O	-1.692869848886775	-0.44023597928548375	-0.2748585174193544
O	-1.3457252842867748	4.204304480714516	-0.8408208134193544
O	-0.9348976578867749	-1.7229453292854835	-0.5180883554193545
O	-0.959833923886775	-2.5037994292854835	-1.5980819374193544
O	-0.023592718886775055	-3.094262699285484	-2.4583258624193545
O	0.9487590111132249	-2.1859588592854835	-2.4921018324193547
O	1.586808671113225	-1.6441395292854835	-3.7590513324193546
O	0.947025231113225	-1.2130142192854838	-1.4835025724193545
O	0.2771261011132251	-1.1973137392854838	-0.32857225041935445
O	1.1565906511132251	0.20104813071451622	-1.8416536274193545
O	0.21499642111322514	0.3758565497145163	-2.8332708024193547
O	-0.938275555886775	1.0511611137145163	-2.8072381124193546
O	-1.0625741788867749	1.5955132697145162	-1.5924264744193546
O	0.17323446111322505	1.8872773057145165	-1.2283671434193544
O	1.0651873211132252	1.0413813267145162	-0.8082176504193544
O	-1.752318269886775	2.839202980714516	-1.0700918456193544
O	-1.508704279886775	5.216366960714517	0.13260410758064545
O	-1.529658488886775	6.6541031707145155	-0.013792092419354418
O	-2.258548843886775	7.4612821007145165	-0.9992930023193545
O	-0.722212400886775	7.587114280714516	-0.7862663514193544
O	7.998174201113224	9.512278760714517	-7.315380442419354
O	4.173267291113225	9.448662060714517	-7.650080332419354
O	2.132478381113225	9.576686620714517	-4.451438922419355
O	-3.967963958886775	2.7708080507145163	-5.235035382419354
O	-6.940838418886775	0.24264509071451634	-5.458734342419354
O	-7.151565518886775	-0.5675502192854838	-9.121781552419355
O	-3.793329008886775	1.1029080987145163	-9.898028952419354
O	-1.1975882464867749	4.000356700714516	-9.723696472419354
O	1.4525903811132252	4.271525280714517	-6.929647582419355
O	4.894058931113225	5.593590300714517	-6.7067911424193545
O	7.338279691113225	5.858040180714516	-3.8775284424193543
O	10.750518501113225	4.437806330714516	-4.6147033724193545
O	11.749467801113225	3.1223817307145163	1.1757980075806456
O	8.972253001113225	1.3676374464145162	-0.7046986724193545
O	5.700668151113225	1.8737219967145164	-2.3813294424193545
O	5.230597731113225	0.37239815371451634	-5.838978162419354
O	1.654602541113225	-0.041595409285483775	-7.288210762419355
O	1.1244639111132249	-0.7099807092854835	-11.019281132419355
O	-2.201930531886775	-2.4275117992854836	-11.574395912419353
O	-5.937501298886774	-8.933418449285483	-9.893834642419355
O	-5.3014127888867755	-8.940144049285482	-4.647925632419354
O	-1.2150740868867749	-9.768204649285483	-0.4133288324193545
O	1.706297411113225	-9.190049049285482	9.973891387580645
O	3.1494786211132246	-5.951051919285483	11.204436787580645
O	-0.1478161788867749	-4.037273599285484	11.007940287580645
O	-1.274201364386775	-5.422631489285484	7.611093567580646
O	0.11075568111322509	-4.380603789285484	4.184428107580646
O	1.802642551113225	-7.3539399692854825	2.6187404175806455
O	4.040581471113224	-7.864878149285483	-0.3557473104193545
O	7.725381971113224	-7.0538792192854824	-0.4217438974193545
O	8.067626761113225	-7.917853779285483	-4.1147054124193545
O	5.849422801113224	-8.421657859285483	-7.140866782419354
O	1.5286155411132252	-6.4950856692854835	-12.537227212419355
O	3.587047811113225	-4.313057339285484	-10.142800822419355
O	3.171403451113225	-4.812208809285483	-6.352558912419354
O	5.844788061113226	-3.6084435792854834	-3.803101192419354
O	5.212436311113224	-2.9502351292854834	-0.13008998941935446
O	6.323575131113225	-0.6888117092854835	2.7092575575806457
O	5.908976381113225	3.0291354807145163	2.2494435875806458
O	4.244714041113225	4.4504654807145165	5.303083407580646
O	3.780972681113225	7.9169948507145165	3.891020787580646
O	0.502588791113225	9.288578520714516	5.415195237580646
O	-3.064699258886775	8.274094480714517	6.207415227580646
O	-4.942409698886775	8.512506900714516	9.435962187580646
O	-6.639374818886775	11.711143650714517	8.265310457580647
O	-2.275976335886775	12.339417550714517	11.398701887580646
O	-12.114517198886775	-5.736262379285483	5.0725573975806455
O	-7.850227668886776	6.695776180714516	4.2333794775806455
O	-6.823541088886776	3.0648963207145163	4.151373427580646
O	-4.881597518886775	3.0616945907145166	7.335725657580646
O	-1.282939138806775	3.8668687607145165	6.424277507580646
O	0.633398611113225	5.470557280714516	9.225018587580646
O	4.352422891113225	6.380209070714516	9.352733787580645
O	0.02339638111322495	1.5890245037145163	11.340357687580646
O	-0.7735767468867749	-0.9284401492854837	8.507969657580645
O	-4.253135508886775	-1.8419635392854836	7.267243187580645
O	-4.5462597888867755	-1.6125427192854835	3.6165817575806454
O	-7.061002578886775	-2.8139284692854836	0.7055089775806456
O	-8.718839728886776	-5.384188849285483	2.801208777580645
O	-10.560846078886776	-8.241867659285484	1.0099267175806454
O	-11.202894708886776	-6.245430739285483	-2.1695625324193544
O	-14.616884598886775	-4.548119579285483	-1.7823473124193545
