91

O	0.33979401882258076	-0.7005423461935485	1.6049230701145163
O	-0.1877824951774193	-2.0100101761935485	1.5001909601145162
O	0.9358927088225806	-0.4729698161935483	0.40979395011451636
O	-0.08217346117741942	-2.9785000661935483	0.4880874801145162
O	0.9127192588225808	-1.3790203561935486	-0.6279105428854836
O	-3.0276844511774192	-1.9246075061935484	0.5765396101145163
O	-2.3582616011774196	-0.7521214261935483	0.5916508201145162
O	-2.2946162811774196	1.6001819938064517	0.6943636001145163
O	-2.7837829111774193	2.9533518638064518	0.5041418001145163
O	-0.23200369217741934	2.5139258638064517	1.0303401001145165
O	-1.6671102371774194	-1.2557958861935483	-1.5017291608854837
O	-1.2565954451774193	6.960478443806451	1.242199020114516
O	-1.4450945411774194	5.829391323806451	2.211679240114516
O	-1.5858769281774192	6.5251726038064515	-0.14966929388548367
O	-0.1801535731774193	4.9510090938064515	2.0296451401145164
O	-2.126020228177419	5.184427403806452	-0.27244999788548374
O	0.06217984882258065	-3.1084402061935488	-1.9378070798854838
O	-2.8521180811774194	-2.9826451061935484	-0.3296481178854837
O	-1.0138467531774193	1.6232809218064517	0.3482406201145164
O	-1.8322320421774192	-0.4045942561935483	-0.5077286768854836
O	0.6722557488225807	-2.7794542161935483	-0.6724327548854837
O	-1.2826319301774194	-3.6377174861935484	-2.0036669398854836
O	-1.2487017391774193	0.8308770818064516	-0.7694727997854837
O	-2.9812872411774194	4.899781883806451	-1.2019460498854837
O	0.2633007288225806	-2.4562496661935485	-3.022419289885484
O	-0.7226359491774192	3.8010091638064516	1.2338233901145164
O	-2.0166573911774193	-2.5948361061935485	-1.2968420078854836
O	-1.8741589981774194	4.019353753806452	0.5328726701145162
O	-2.906041431177419	-4.271872766193548	0.01026410311451631
O	-7.907744601177419	7.865388423806452	9.814167840114516
O	-8.85308966117742	7.581131353806452	6.088422820114516
O	-6.26875922117742	8.501441203806452	3.4476045201145165
O	-5.935513731177419	1.6751461388064517	-2.548255929885484
O	-5.94633862117742	-1.0313130361935485	-5.328180819885484
O	-9.32033627117742	-2.9013415061935484	-4.912882739885483
O	-9.919396501177419	-1.3765257061935485	-1.4445813148854838
O	-9.98175351117742	1.5539961398064517	1.0051133301145163
O	-7.162244601177419	2.7765013038064517	3.179849690114516
O	-6.64635222117742	4.219857773806451	6.525811000114516
O	-3.663303921177419	5.411120733806452	8.450992440114517
O	-3.299659661177419	4.002569683806452	11.901944240114517
O	0.9375510988225808	2.1784870238064515	9.444835140114517
O	-1.3499773021774193	1.9882236188064515	6.509215380114517
O	-4.263877511177419	-0.4597259561935483	6.737095950114517
O	-6.107590041177419	-1.4472050561935483	3.442302860114516
O	-9.49186560117742	-3.2078521561935482	3.613204930114516
O	-10.138023381177419	-5.180008786193548	0.45436523011451635
O	-13.543308391177419	-4.238598086193548	-1.0959634068854838
O	-7.025423371177419	-11.135221426193548	-7.298039729885484
O	-7.29356110117742	-11.175857526193548	-3.4859051798854837
O	-2.2095162311774192	-9.581796526193548	-3.8147045498854837
O	-1.8415721281774193	-11.489798026193547	-0.5765998528854837
O	2.7723579088225807	-8.931719126193547	-0.5898270398854837
O	13.00793470882258	-5.075792266193549	0.055784983114516296
O	11.95480550882258	0.05938441380645165	-1.9598764398854835
O	8.994439608822582	-2.3714516461935484	-2.3854351698854837
O	5.771569858822581	-2.4260459061935484	-0.2912085788854837
O	5.61966062882258	-5.688786546193548	1.8203626701145161
O	3.3716494888225803	-6.978078596193548	4.6750917301145165
O	3.590883538822581	-5.952238186193549	8.318505310114517
O	0.36576325882258076	-7.816994946193548	9.243760240114517
O	-2.728812271177419	-9.282663026193548	7.594350580114517
O	-7.157066151177419	-6.280001486193548	5.852463110114517
O	-3.5413847511774192	-5.741735706193548	4.787159180114517
O	-1.0291506971774194	-3.6895830661935487	6.929273850114517
O	2.151333258822581	-1.9772735961935486	5.787045070114517
O	4.382982658822581	1.1646842958064516	6.337684050114516
O	2.726506108822581	4.487810753806452	5.956680580114517
O	4.8447742488225805	6.619058623806451	3.647084960114516
O	2.3460935988225806	9.447151353806452	3.4500717201145163
O	2.6693029388225806	11.009194923806453	-0.06074256088548369
O	2.970917268822581	10.080767743806453	-3.6884795198854836
O	5.586186538822581	11.221232393806453	-6.176929599885483
O	3.264850278822581	13.851831873806452	-7.596060699885483
O	13.000579408822581	-1.8644631561935485	-6.296142739885483
O	4.473370278822581	-3.911084316193548	-12.363191259885483
O	0.7940925788225808	7.799110993806451	-8.047547319885483
O	1.8912751988225809	4.387354553806452	-6.926461499885483
O	5.250271968822581	5.397564193806451	-5.7364945198854835
O	4.86454739882258	6.065992433806452	-2.0174626498854837
O	7.42820835882258	8.563318283806451	-0.7214100649854837
O	7.9756658388225805	9.680817363806453	2.9054335901145163
O	10.53927030882258	5.548131393806452	-1.7993966898854836
O	8.594510158822581	2.241056930806452	-2.1114844998854836
O	6.862780998822581	0.7895212528064516	-5.214565879885483
O	3.1310280588225803	0.04835797380645168	-4.780819009885484
O	0.3645695788225807	-2.0308406261935485	-6.498098069885484
O	2.8440388788225808	-4.034847916193549	-8.574714389885484
O	1.8143287388225806	-7.445170286193548	-10.091640139885483
O	-1.8699580341774193	-6.520844326193549	-10.054661469885483
O	-2.6625207711774195	-4.971346626193549	-13.487913659885484
