95

O	-2.839488401455073	-0.825569504804347	-0.766601337811594
O	3.006486908544927	-2.412154924804347	0.627762918188406
O	1.666012798544927	-2.231229124804347	1.073525668188406
O	1.5023829685449273	-2.338713184804347	2.526287838188406
O	0.5869959285449272	-3.111432554804347	0.7814830581884061
O	1.280366848544927	-0.919467244804347	0.6299315481884061
O	0.24714396854492715	-0.19462322480434713	1.2267672681884059
O	0.6005857485449272	0.9769156481956528	0.540654078188406
O	0.39725728854492715	2.333289895195653	0.755343298188406
O	-1.0176894882550729	2.457437295195653	0.9235432881884059
O	-1.6095829834550728	1.4306035781956528	1.181918648188406
O	-1.8364745524550727	3.5687580751956527	0.6765095181884061
O	-3.052156481455073	3.262952305195653	0.16873067618840598
O	-3.747377261455073	2.416378635195653	0.938690608188406
O	-4.295197671455073	1.2012261901956527	0.732548408188406
O	-3.736962811455073	0.5486432401956528	-0.323609226811594
O	-3.9099150814550727	1.556735527195653	-1.227445238811594
O	-3.606157891455073	2.860203635195653	-0.925227403811594
O	0.3864471185449273	0.5392621951956528	-0.658702786811594
O	1.3197246685449269	-0.36388721480434727	-0.5666575411115939
O	-0.4063655154550728	1.5277949901956527	-1.3283878508115938
O	-0.2361276494550728	2.984698915195653	-1.176623522811594
O	-0.5607923784550728	3.886381735195653	-2.039510041811594
O	0.04506136854492715	2.9136083451956525	-2.964250951811594
O	-1.3840947534550727	2.472098485195653	-3.0784222318115937
O	-1.4715370204550728	1.5559885941956528	-2.121279121811594
O	0.2926774185449271	8.207986785195653	0.7300859381884061
O	3.7593986185449273	6.625735905195652	0.34470870018840605
O	5.350449248544927	8.129471235195652	-2.854590021811594
O	2.0570302785449273	9.684175775195653	-3.928868941811594
O	-1.1881129654550728	11.549875285195652	-3.209233911811594
O	-4.382473681455073	9.890408725195654	-1.946760171811594
O	-7.977461201455073	10.720210095195652	-2.601197281811594
O	-11.136551831455073	9.188990985195652	-1.321297952811594
O	-12.301226231455072	3.5839563451956526	-1.761183781811594
O	-8.937572681455073	5.199414655195653	-1.488037358811594
O	-7.1072651414550725	5.935736925195653	-4.660264501811594
O	-3.379656701455073	6.667014365195652	-4.547325541811594
O	-1.676805609455073	8.352306425195653	-7.581961501811594
O	2.006939298544927	7.557666765195653	-7.618746191811594
O	4.103480788544927	10.801255255195652	-7.9169410818115935
O	6.7574953685449275	6.818133355195653	-10.893153831811595
O	12.026325768544927	-0.059772254804347114	-9.175499261811595
O	10.078917768544928	1.2809799645956528	-6.083222011811594
O	6.968589988544927	1.5636029681956527	-8.324172741811594
O	7.3223701885449275	-2.0417660448043473	-9.313644481811595
O	8.064872758544928	-3.1711642748043474	-5.812638061811594
O	4.879606308544927	-1.5319370848043472	-4.471650571811594
O	2.652788248544927	-2.826154424804347	-7.1903156018115935
O	4.026393228544927	-6.347290204804347	-6.7205599918115935
O	3.528158588544927	-6.197030164804347	-2.939352961811594
O	0.014665498544927158	-4.773561404804347	-3.084239271811594
O	-0.9287793290550728	-7.449453554804347	-5.619067721811594
O	0.24475738854492712	-10.337558714804347	-3.505352981811594
O	-1.358459802455073	-9.290158614804348	-0.13468785481159395
O	-4.692456131455073	-10.901710614804347	0.5269523781884061
O	-3.223065771455073	-5.839616974804347	5.412570408188406
O	-3.920704531455073	-3.2407029248043475	2.717559518188406
O	-4.247469851455072	-4.963944604804348	-0.645854437811594
O	-5.294301991455073	-3.9043796348043474	-4.107375581811594
O	-8.829725531455072	-3.3881754848043473	-5.160179771811594
O	-7.860390411455073	-1.9971783548043471	-8.565075921811594
O	-3.6858885914550727	2.157741633195653	-6.826252271811594
O	-7.047567441455073	1.4738182731956528	-5.2677494918115935
O	-7.773895331455073	-0.014656164804347283	-1.9253535818115939
O	-10.304828491455073	0.14086728519565272	0.934831048188406
O	-10.769838071455071	3.552902155195653	2.528801648188406
O	-10.314832671455072	3.2521011351956526	6.187437858188406
O	-1.4800098024550727	-8.867993914804348	9.899411268188405
O	0.8933025285449273	-12.878814214804347	7.402026928188406
O	3.357756668544927	-10.324533014804347	6.0838929481884065
O	8.359062698544928	-9.275549014804348	3.912936258188406
O	9.260993468544928	-6.897555344804347	6.729800338188406
O	7.4635771285449275	-3.541498444804347	7.398935438188406
O	10.461350668544927	-1.7620543748043471	8.830415778188405
O	8.586467038544928	1.5033099821956528	9.576201368188405
O	5.538830318544927	0.4458468131956528	11.469445568188405
O	4.008859158544927	3.4551132151956527	13.289224468188404
O	0.5670188685449272	4.730186555195653	14.317042268188406
O	0.2997405385449271	6.753757405195652	11.084784468188404
O	0.3806904985449272	3.752015885195653	8.833022088188406
O	-2.167856211455073	1.7507415321956528	10.626100268188406
O	-5.421635481455073	2.5937722551956526	8.807131588188405
O	-8.417275551455072	2.184912706195653	11.147217668188405
O	-5.1221230414550725	-2.682616264804347	8.168876248188406
O	-1.3683462644550728	-2.333212244804347	8.007915268188405
O	-0.3539262364550728	0.20246536519565272	5.3294782681884065
O	2.961162038544927	1.0382867121956527	3.474255908188406
O	4.914595248544927	-2.0850380248043474	4.525248528188406
O	7.835225688544926	-3.5023314948043476	2.416101238188406
O	8.655396398544928	-0.014699454804347312	1.1280428681884058
O	11.254731568544928	1.4161644982956527	3.6119420081884064
O	5.220741498544927	-2.644812864804347	-14.046719131811594
O	-4.241506701455073	-7.468099234804347	-12.587791231811595
O	-7.2424094914550725	-9.605905814804347	-11.616079531811595
