86

O	-5.992616937699999	-1.4984587044999997	0.5926371067125005
O	-7.147307877699999	-1.0532658744999999	1.1960178047125005
O	-8.0448357977	-0.6530867244999998	-0.018485604287499513
O	-4.8424183477	-0.6687587044999999	0.41752890971250045
O	-3.8107897876999997	-1.2794249444999999	1.1888560947125004
O	-2.7308122776999997	-0.6224077644999999	-0.9479715002874995
O	-4.1297407776999995	-0.4080800444999997	-0.7770583352874996
O	-1.7726209246999995	-0.6371931645	0.15764748371250048
O	-2.6134843476999996	-0.5484786744999997	1.3358703947125004
O	-1.9825527786999997	-1.0311125945	2.4765080247125004
O	-0.6429701316999996	-0.7747996444999996	2.4788307647125007
O	0.1430128123000003	-0.09385995449999984	1.4440007247125006
O	-0.3520659816999997	-0.6763838844999996	0.15351443471250048
O	0.05816096230000034	-1.5883065744999996	3.3017941447125008
O	1.4045075523000001	-0.6528698344999999	1.5133313347125004
O	2.4545286323	0.1606280455000002	1.2354540247125003
O	3.4474093723000006	-0.32148896449999986	2.2451865847125005
O	4.7889878523	-0.1114857444999997	1.5472511447125004
O	4.8187546823	1.3699246538000003	1.3831217747125004
O	3.6328292123000003	2.1314513785000004	1.8278937447125005
O	2.2995504023000004	1.6269566235000004	1.3763751247125007
O	-2.5421860276999997	-2.2571678844999994	2.9056918347125005
O	-8.8702036977	0.3971952145000003	0.4213533407125004
O	-9.3447916177	0.4456142095000002	1.6768924847125004
O	-10.6716927777	0.33475219550000035	1.4461111547125003
O	-10.8701932977	1.2494228635000002	0.31819045371250043
O	-9.8464281477	0.6193505625000002	-0.5424975222874995
O	-8.2155272877	-1.4097722144999996	2.1369173947125004
O	1.2267880923000005	1.7517657745000004	2.2141409647125005
O	5.566874332300001	1.8104333845000002	0.3624865757125004
O	-8.2173834077	10.0223269355	1.7075510647125007
O	-7.6750030677000005	7.6189089455	4.623511224712501
O	-7.7252226777	3.9870556155	4.126016554712501
O	-0.6312883266999997	-0.2332109044999997	7.391549794712501
O	2.3263751123000005	-2.0635920245	9.1375829547125
O	3.5708114523000005	0.36895811550000035	11.8302495147125
O	1.6314926823000002	3.2755162555000004	10.3136381147125
O	-1.5157059196999998	4.8241595055	8.7873082247125
O	-2.3966828076999995	4.8150318855	5.0934941247125005
O	-4.089835987699999	7.3202018855	2.8243381747125005
O	-4.928660347699999	7.106540065500001	-0.8153252612874995
O	-3.8621287276999996	10.0428560255	-2.9131411652874992
O	-3.5844202676999997	11.419966135500001	-6.4210801952875
O	-3.3236847476999998	6.690150265500001	-7.894146075287499
O	-1.0789611601999998	6.040164545500001	-4.926575255287499
O	-1.0827344619999997	4.8346278155	-1.4029373052874994
O	0.9110787523000003	6.8292352755	1.1194496647125005
O	1.8531978223000003	5.3433184955	4.535529474712501
O	2.9922253923000004	7.5696543055	7.4211911047125
O	5.1461598923	5.6326224055	9.8397104147125
O	5.5053773123	-6.6350224145	-10.3292362252875
O	3.9949127523000008	-8.8119835645	-7.559491395287499
O	5.809714852300001	-7.1563416045	-4.6238354952875
O	5.0325094123	-3.7326898644999993	-3.1166542552874996
O	7.9391912623	-1.4139649744999996	-3.7016868752874994
O	8.6482258823	2.2945277165	-3.4340022852874994
O	7.3241881523	4.9641902055000005	-5.694286055287499
O	8.5564770323	7.7908377555	-3.4386429052874994
O	9.6603443623	8.4034019555	0.13946114571250046
O	8.8354214023	9.0554196955	7.307353104712501
O	6.1709242923000005	8.7673303255	4.541727644712501
O	6.3493527723	5.9294874655	2.0395428147125005
O	4.5547462823	5.902546555500001	-1.3791910352874996
O	3.5158530623	2.9113912855	-3.3937658352874993
O	0.8531264623000003	1.7388669905000003	-5.8350992952875
O	-2.7029822976999998	1.7908712315000002	-4.643764495287499
O	-4.1647290677	-1.6025234444999998	-5.3930523752875
O	-7.378775367699999	-0.9353394644999999	-3.7705190652874996
O	-8.6270876677	-4.280524594499999	-2.1462753052874994
O	-7.3388615877	-7.2956177745	-0.28239980818749955
O	-7.7208924877000005	-10.9640088645	-1.1351100422874996
O	-12.3594829377	-8.626212664499999	-0.6655147832874995
O	-11.9117756377	-10.5471375645	-3.8937344052874994
O	-5.152587497699999	-9.1866725645	4.2336870147125
O	-1.6718899736999997	-8.456694754499999	3.0324317747125007
O	-2.1465671577	-9.4444006645	-0.5077258962874995
O	-3.1978170376999997	-6.260623874499999	-2.3142706152874997
O	-5.2462130077	-6.9621216045	-5.444963115287499
O	-6.4927411477	-4.4128056545	-8.0404367652875
O	-1.6163715826999998	-8.9326841645	-7.0391976652874995
O	1.2400656823000005	-7.5147003245	-4.891515025287499
O	2.6390034423000004	-8.9606240645	-1.6596784852874995
O	2.6748609523000004	-6.443319174499999	1.1927895147125005
O	4.348736582300001	-6.240445384499999	4.646662284712501
O	6.961526322299999	-8.8969264645	3.9270926047125005
O	8.7945869823	-7.2799772444999995	8.895386454712499
