101

O	-0.46692061963043485	1.8961786289318838	3.1107364236536235
O	0.4490375253695652	-1.1718973750681159	2.8467283836536232
O	1.626241665369565	-0.499813805068116	2.8983719936536234
O	2.109747675369565	0.30930370893188397	3.855517273653623
O	1.0662297053695653	0.578819770931884	4.801649303653623
O	-0.17662781463043487	0.41463084893188396	4.115469423653623
O	-0.5056594456304349	-0.8492526950681161	3.7905595036536237
O	-1.7500065046304347	-1.287971695068116	3.314837113653623
O	2.296467745369565	-0.11100058506811616	1.7180793236536234
O	1.256897255369565	0.3265893859318839	0.9212818436536233
O	1.415303825369565	1.697689234931884	0.8253273836536233
O	0.5211375653695652	-0.43243288506811606	0.3487422836536235
O	1.6805597453695649	2.100384174931884	-0.5684699663463766
O	2.986410505369565	1.8351961199318838	-0.7327934833463766
O	3.4906318653695654	1.003456463531884	-1.6922958763463765
O	2.724782465369565	0.931447431031884	-2.7614888063463767
O	1.4102364753695649	1.0643049649318839	-2.5851321363463766
O	0.8726996153695651	1.582562352931884	-1.4706822073463766
O	3.3024182753695652	1.282195046931884	-3.9554285263463766
O	2.445082895369565	1.456237778931884	-5.013137066346377
O	1.0970596253695652	1.334319376931884	-4.904744156346377
O	0.4043557453695651	0.9840827238318839	-6.024588376346377
O	0.9086020253695651	0.6905796819318839	-7.256986346346377
O	2.208454195369565	0.645004753931884	-7.1954646763463765
O	2.975278915369565	0.8218044869318839	-6.085927526346377
O	2.664940845369565	-0.343117775068116	-8.138413926346376
O	2.701604555369565	-0.404068485068116	-9.494570476346375
O	4.077422005369566	-0.994746715068116	-9.720966976346375
O	2.958419975369565	-1.225800855068116	-7.257220606346377
O	-2.907068004630435	-1.543116215068116	3.8844492436536235
O	-1.935232614630435	-1.0074299450681161	2.0294826136536233
O	-1.6200185146304347	-2.660306155068116	3.255518373653623
O	10.880024915369566	5.614511654931884	-9.423940686346375
O	9.079959855369566	2.221517584931884	-9.473622876346376
O	7.7082402553695655	-0.3135035750681161	-1.0156940450463767
O	7.4078128153695655	-1.646496495068116	2.464713113653623
O	9.781965515369565	0.39813960793188397	4.670725933653623
O	10.324853015369566	2.993229264931884	1.9551747836536233
O	10.860495015369565	3.971006354931884	-1.6953302313463765
O	8.083072115369566	4.449101074931884	-4.2350490563463765
O	7.714245415369566	6.757181794931884	-7.196283436346377
O	4.977433685369565	7.104374604931884	-9.746235896346375
O	-0.5029341546304349	7.917354544931884	-8.252474846346376
O	2.095094915369565	6.000652504931884	-6.410137046346377
O	3.9227178853695652	7.995694394931884	-3.7015455163463766
O	5.939788635369565	6.191444894931884	-0.9760102875463766
O	8.585616205369565	8.029684764931885	1.1537948836536231
O	9.119984525369565	6.223205684931884	4.442659543653623
O	12.853613415369566	5.408387814931884	4.972895033653623
O	5.829072055369566	0.7995315259318839	12.542259383653624
O	5.416329195369565	4.303200244931884	11.003181283653625
O	2.414578465369565	4.946890004931884	13.171271183653625
O	1.015772295369565	1.514024175931884	12.587479483653624
O	1.1130911953695652	1.9613719749318839	8.786228123653624
O	-0.34268408963043484	5.532053094931884	8.869009343653625
O	-3.9451338346304348	1.234045816931884	8.990768963653624
O	-3.949985584630435	3.266820224931884	5.703201313653623
O	-6.193889084630435	5.753545904931884	7.001655553653623
O	-8.782784214630434	0.977736697631884	4.814098793653623
O	-11.571783084630434	2.024256384931884	2.494316653653623
O	-12.271095284630434	-0.8058660050681161	-0.04022528334637665
O	-9.490367854630435	-4.254266055068116	-3.455188156346377
O	-7.302469644630435	-2.824916845068116	-0.5844679963463766
O	-4.6462817946304344	-0.05020707506811606	-0.9228899955463766
O	-5.800605944630434	3.0081870349318836	1.0725804936536232
O	-4.775111704630435	6.680291504931884	1.3548336536536234
O	-5.216882534630434	9.265239504931884	-1.2640847703463767
O	-3.036073534630435	11.819267424931883	0.5797022736536234
O	2.027835405369565	8.473151054931884	1.6814760636536232
O	-0.0712841706304349	8.574960134931883	-1.6327588493463767
O	-2.114269124630435	5.760294224931884	-3.110983156346377
O	-3.381496264630435	4.536472924931884	-6.530524136346377
O	-0.7935698136304349	3.475260984931884	-9.172981596346375
O	-1.835447064630435	0.06753384493188397	-10.407741796346375
O	1.2420954253695653	-0.424174185068116	-12.340963416346376
O	2.103054465369565	-4.2212762650681155	-12.143138916346375
O	2.189618535369565	-7.1189242750681165	-9.742085876346376
O	0.5588593353695651	-10.503315075068116	-10.101232206346376
O	-10.340950864630434	-7.624942325068116	-0.060196628346376624
O	-12.740134384630435	-6.685169245068116	4.560984033653623
O	-9.267620494630435	-6.666288805068116	6.093694553653624
O	-6.259715534630435	-7.267037845068116	10.719345383653625
O	-4.278532574630435	-10.118979875068117	9.201791283653623
O	-1.9578079246304347	-9.806464175068117	6.136171503653623
O	2.699088685369565	-12.221328075068117	4.0456812536536235
O	2.076055165369565	-12.276499375068116	-5.802348076346377
O	4.410947515369566	-9.252673075068117	-5.391713726346377
O	2.094502115369565	-7.397385215068115	-3.1496187963463766
O	-0.9746060646304349	-7.754927085068116	-5.188129456346377
O	-1.0373918516304348	-4.642779365068116	-7.386250006346376
O	-2.980782484630435	-5.260128805068116	-10.608233016346375
O	-6.574525144630434	-5.882340265068116	-8.049758906346376
O	-5.642184734630434	-4.2343488750681155	-4.697928446346377
O	-3.904161344630435	-5.870866345068116	-1.7189108583463766
O	-0.6774588631304349	-4.101081225068116	-0.6734433463463766
O	1.7071926053695652	-4.561951395068116	2.4009501636536235
O	-0.9803995076304348	-6.024532025068116	4.838586383653623
O	-0.8774392166304349	-5.5990705150681155	8.712532283653625
O	2.817802665369565	-4.891414595068116	8.681382633653625
O	4.630558325369566	-8.266100105068118	8.962227623653623
O	-9.163511864630435	13.319633224931883	1.6367483836536234
