82

O	-7.620838067998303	-0.6537112743792455	-0.0651302783207548
O	-1.1260226379983025	-0.7480869543792452	0.08601814167924515
O	-5.6799511479983025	1.1922224206207548	-0.44550565832075484
O	-2.4156564605983024	1.1952304126207547	-3.585518928320755
O	-0.8306363579983025	3.9010423956207547	1.287830941679245
O	-1.7566241509983023	3.062363455620755	1.5072713816792451
O	-0.7213322679983023	3.8881671356207548	-0.009749318320754874
O	-2.8861485529983026	3.118838425620755	0.6231493316792451
O	-1.9238887509983025	3.7612790156207545	-0.7597463283207548
O	-6.422196257998302	-1.3704360643792453	0.4502075116792452
O	-1.6110620359983026	0.4039180306207547	-0.7224585733207548
O	-7.092164407998302	2.779279355620755	-2.305994518320755
O	-6.176120427998303	3.5343538456207546	-3.779574168320755
O	-7.799031787998302	1.8872574726207547	-3.268305238320755
O	-6.709843547998302	2.6850541956207548	-4.8908094783207545
O	-4.441798587998303	3.037321445620755	-1.8521843533207547
O	-3.996347657998302	-0.45152535437924524	0.6847690016792451
O	-5.334502777998303	1.0737552916207547	-3.7090338983207545
O	-3.2645324069983026	3.253501505620755	-0.7557978123207548
O	-4.914669177998302	0.20812168562075462	-1.4527563573207547
O	-3.2656347009983024	0.13484788562075467	-2.8531990283207547
O	-4.590013807998302	0.29869106562075465	-2.758154878320755
O	-3.8343380079983023	-0.3160394343792452	-0.8118641153207549
O	-3.5906135979983027	-1.6565940443792453	0.8732605216792451
O	-4.7741933479983025	0.9625722486207546	-4.907411088320755
O	-5.380360757998302	-0.6584389443792453	1.145532321679245
O	-5.6228743479983025	2.995201045620755	-2.536425938320755
O	-6.7009993579983025	1.4145308726207546	-4.086807188320755
O	-2.8353574099983025	-0.026766944379245317	-1.557011325320755
O	-1.4214111579983024	12.888752225620756	-4.900604148320755
O	-3.8748567879983025	11.711241225620753	-2.140117298320755
O	-5.258376447998303	8.300214895620755	-2.8116192783207548
O	-3.879537217998302	3.2463967556207547	5.731149921679245
O	-3.5700735579983025	1.2977818797207548	8.997137891679245
O	-2.8786934029983025	6.915746175620755	9.034277791679244
O	-3.5145297579983024	8.705614145620753	5.651372711679245
O	-1.8603494559983025	8.106091545620755	2.268647591679245
O	-0.4638128779983024	9.919087545620755	-0.9000768753207549
O	1.0223685020016977	8.517611145620755	-4.2391578683207545
O	4.274941192001698	10.073873845620756	-5.1220557083207545
O	5.979595342001698	5.173602825620755	-8.110117188320755
O	5.692596842001699	5.1022454356207545	-4.350777008320755
O	3.0309554620016974	5.309624345620755	-1.7515550533207547
O	3.5794621320016975	7.5830297056207545	1.3293220016792453
O	1.4714738320016978	7.082664975620755	4.657764611679245
O	1.4376256220016974	9.739166635620755	7.459278551679246
O	0.7441278420016975	8.064213115620754	10.777142391679245
O	8.637556052001697	-9.505082274379244	-2.842840538320755
O	5.1085411120016975	-10.371565174379246	-1.6899045303207547
O	5.212386992001697	-8.430628734379244	1.603474341679245
O	4.913829672001697	-4.597768984379245	1.974760111679245
O	10.753651652001698	2.1919405306207547	1.3121264016792453
O	6.156758162001697	9.380350985620755	10.927893591679245
O	5.658106092001699	8.809174865620754	7.172557681679246
O	5.478724592001697	5.319391145620754	5.689463921679245
O	6.429442812001698	4.737797245620754	2.2095260316792453
O	6.081757922001698	1.7159245346207548	0.29398301167924523
O	5.652451692001698	0.4424403556207547	-3.2962035183207545
O	2.5965396020016978	1.6882773046207546	-5.025827308320755
O	0.5576137020016976	-1.3352372643792454	-6.3510779283207555
O	-2.4508292190883023	0.47495740062075475	-7.474775058320755
O	-5.380254007998302	-2.1190075743792454	-6.823934178320755
O	-6.764232747998303	-4.7407207943792455	-4.294469218320755
O	-7.826959017998302	-8.139227454379245	-4.901712718320755
O	-11.499194227998302	-7.127568924379246	-5.002161758320755
O	-10.598987057998302	-4.6493501443792455	-7.833788638320755
O	-9.002615057998302	-7.4580742843792445	-9.777655158320755
O	-1.3379200979983024	-11.358764174379246	9.976195291679245
O	-8.602393787998302	-5.939234914379245	0.7971521316792451
O	-5.1047196179983025	-6.215234784379246	2.314548921679245
O	-3.655890267998302	-7.742273454379245	-0.7164512113207548
O	-2.1259797799983025	-5.165642334379245	-2.970384898320755
O	-2.0257682179983023	-6.112929974379245	-6.631860548320755
O	-0.4272993279983024	-4.219810614379245	-9.578001178320754
O	2.0582539020016974	-9.086720674379244	-8.783745718320755
O	0.8737951420016974	-9.156793774379246	-5.156375978320755
O	2.0348463820016973	-7.8210505243792445	-1.717268050320755
O	0.5496219320016977	-8.559857364379244	1.7261536316792452
O	-0.3052995079983023	-5.4276487943792455	3.688552681679245
O	-1.2799912179983024	-4.457519404379245	7.280023291679244
O	0.13100357200169777	-7.689027894379245	8.793628561679245
O	-1.0080539279983025	-5.070472504379246	13.528385491679245
