36

O	-2.0835141137986315	1.91044074229462	25.503206483375294
O	0.1584512026400815	2.4723719898402705	23.906332012889507
O	-0.19189711508822827	0.3381288222475609	31.675999900097477
O	0.5965564386790283	2.1606473019795063	30.267885846354197
O	-3.2325139031692807	-2.9991314371492033	27.741375211227854
O	-6.245818069441371	0.7625265018827476	19.09968914774088
O	-4.5474746013703715	2.0275638877230895	18.3105749401172
O	-5.764090188462728	0.9981932098125932	20.332926151296185
O	-4.446162935999608	2.0957809272368384	19.630412575172052
O	-2.944563484324676	-1.7280340013995472	24.4735467131011
O	-0.5624050872989113	-0.6605588364379014	24.611884203983735
O	-1.3288698617722805	-1.8350268343679705	27.736206994978325
O	-3.524986755694985	0.9335153520787216	22.031110910580114
O	-1.8962245600950838	2.3968799624303556	23.164703918560452
O	-2.3187327285142088	0.3189728864950334	23.551938026078098
O	0.17880147705708094	0.06740457182756487	27.766161053388984
O	0.011878118143014316	-0.16926497700901244	29.294393831171032
O	-0.5388191812346956	-0.4154927909926134	22.397567535166797
O	-5.831865983796954	1.605494523952161	18.13262748077905
O	-1.992196948989825	-1.9939934380809299	23.439304808460356
O	-4.442735677693537	1.3270338132009782	20.81359800156731
O	1.2103209160865904	0.4911466292565585	27.2519088901586
O	-1.3267868699235308	-0.23505383864646778	29.230209980655907
O	-0.6521318957044759	-1.1107934271378923	21.395801109023235
O	-0.681657034919857	-1.4886844213316022	23.481427859659735
O	-0.42497481560826733	-1.0853871410885174	27.01896489658362
O	-0.892742001161243	-1.2328202194881515	25.751039069496777
O	-2.133016407749195	-1.879411445039286	25.674773726705926
O	-2.902855052875269	1.1447464966597516	24.553850808358256
O	-0.781565717941868	1.4216098111766633	23.747855771874583
O	0.25094426046479734	0.741138244209286	30.335692336530606
O	-3.212936111667881	1.7035648361428564	23.20677022455686
O	-1.3941385155376216	0.7945307683491443	22.451899039692407
O	-2.189852808255417	-2.490278211193811	26.89265393101082
O	-2.902928010928965	-1.7837924666698113	21.80267570906737
O	-6.403300259163343	1.8267554357725722	16.94043089362031
