83

O	-0.7877783246666672	-0.7652405399814819	-1.3945739788703708
O	-1.420211521666667	-0.862744519981482	-2.525860501870371
O	-1.1146621847666671	-0.394400111981482	-3.6549639918703707
O	-0.41093447666666716	0.997483916018518	-2.839123951870371
O	-0.02130317966666717	0.256928639018518	-1.3798442398703707
O	0.7751624603333329	1.237641703018518	-0.7615387938703707
O	0.6716207503333329	2.6110597100185178	-1.1701283238703706
O	0.7243283903333328	3.723061170018518	-0.3179544348703707
O	1.183139380333333	3.2111682600185176	0.8513673181296294
O	1.8390239903333327	1.980594360018518	0.9607206681296293
O	1.9819733803333328	1.186426998018518	-0.1783524688703707
O	-0.6284601146666672	-1.8862067399814821	-0.5659980868703707
O	-1.7054529886666672	-2.7870640799814823	-0.4769920928703707
O	-1.6635513576666672	-4.1305183399814815	-0.7842499848703707
O	-0.3821655956666672	-4.690735399981482	-0.8477491588703707
O	0.5085813703333328	-3.740399999981482	-1.3929413618703708
O	0.5313053703333328	-2.5842415099814824	-0.6200575448703707
O	-2.678999219666667	-4.807976269981482	-1.5931557788703707
O	-0.6310109496666672	4.279210030018518	-0.17778063587037074
O	-1.8479382366666672	0.530822005318518	-4.659520061870371
O	-2.312841159666667	1.8549840600185181	-4.700481071870371
O	-1.7611266906666672	4.031727910018518	-0.9807477875703707
O	-2.660537239666667	2.851972810018518	-0.8814439288703707
O	-1.4494683726666673	4.307624760018518	-2.179578281870371
O	-2.248164819666667	1.9427197000185181	0.045533178129629204
O	-2.607520159666667	0.549678149118518	0.1394558681296293
O	-3.493694289666667	0.012341104018517957	-0.7457572048703707
O	-3.566826279666667	0.762643209018518	-1.8166462418703708
O	-3.2299945596666673	2.197095530018518	-1.8956343998703709
O	-14.171776179666667	5.7633631500185185	6.898968348129629
O	-3.6133200796666674	3.530008090018518	11.67758991812963
O	-4.333777719666667	6.342553060018518	9.26484401812963
O	-6.180687519666667	5.956658260018518	5.889682728129629
O	-4.322005669666668	6.920405640018518	2.8170566581296295
O	-6.163498089666668	-0.19999699198148208	-3.020117091870371
O	-6.656817969666667	-2.8910513799814823	-5.6666973018703715
O	-9.738982679666668	-4.6645497299814815	-4.248688451870371
O	-9.472747369666667	-3.0811337799814824	-0.7721995328703707
O	-8.802354539666666	-0.13464329498148203	1.5943496681296292
O	-5.455053339666667	0.991360017018518	3.0543543881296293
O	-4.0627893696666675	2.558741330018518	6.083370838129629
O	-0.6501190606666671	3.692595240018518	7.085582238129629
O	0.5234291803333329	2.304014780018518	10.34112951812963
O	3.453887600333333	2.1143716800185177	12.69275341812963
O	4.9035095303333325	-1.346025409981482	13.12418711812963
O	6.3224121303333325	2.614859540018518	8.71852929812963
O	3.9677087003333327	0.26379632101851797	6.904854828129629
O	1.0004464403333326	0.16731935901851797	4.691746208129629
O	-1.8048594486666671	-2.212969499981482	5.596142328129629
O	-4.601698469666667	-3.0821951499814824	3.1004330081296296
O	-7.835616509666667	-4.761290599981482	4.051594798129629
O	-9.337990349666667	-6.808121019981482	1.2507147681296296
O	-12.908412379666666	-5.727994319981482	0.4740677181296292
O	11.692557220333333	-2.3124723099814823	-6.791759031870371
O	8.640518770333333	-4.6512599499814815	-6.370679921870371
O	5.966426200333333	-4.493781169981482	-3.5687943618703706
O	5.796106440333332	-7.863150839981481	5.040444448129629
O	-7.560822949666667	-10.723046189981481	4.930452858129629
O	-5.106044979666667	-7.839732449981481	5.678845108129629
O	-1.8849384326666672	-7.4167898199814815	3.80292005812963
O	1.195531130333333	-5.454212089981482	4.980611958129629
O	4.043628750333333	-3.9341969299814825	3.0416701481296298
O	6.378080990333332	-0.946519039981482	2.9400773981296293
O	4.965084820333333	2.5394111900185177	3.1182180281296294
O	6.285885540333333	4.590105590018518	0.2189863781296294
O	4.086483720333333	7.608985790018518	0.6525726381296294
O	3.548656280333333	9.007083030018519	-2.9186534218703706
O	2.9954645603333327	8.068020230018519	-6.541119581870371
O	3.0418444403333327	13.231257210018518	-6.905984381870371
O	-0.2733868556666672	5.758670190018519	-10.21558306187037
O	0.9817081303333328	2.270293190018518	-9.42007803187037
O	4.506998990333333	3.1979157500185176	-8.96253153187037
O	4.929783310333333	3.9201356100185176	-5.247526731870371
O	7.839382150333332	6.311292600018518	-4.654769701870371
O	9.372013120333333	7.466802140018518	-1.3243746298703707
O	10.470214620333333	3.1612897200185177	-6.375733171870371
O	8.387754220333333	-0.06681766098148206	-6.067277341870371
O	5.988736270333333	-1.490683009981482	-8.644539571870371
O	2.5490415203333328	-2.1579412599814822	-7.302481411870371
O	-0.6407101486666671	-4.142138059981482	-8.398314041870371
O	1.155578760333333	-6.276473639981481	-10.88345716187037
O	-3.926931309666667	-8.61079209998148	-11.14136378187037
O	-5.483532119666667	-7.061331009981481	-14.27402758187037
