21

O	-3.9994940166255426	0.06417339658365862	14.797613643878506
O	-1.7495330669602813	2.107582421628316	16.859967079408484
O	-1.0221282899671327	1.1143452023806417	16.725842082532637
O	-2.3291144541259174	2.194725589760241	18.137678418122206
O	-2.8853342210526063	0.9994232418315355	18.57818220529588
O	-2.7042550574573223	-0.32595846203922285	18.413878451868854
O	-3.0432569493105572	-1.123317903355113	17.332550836982065
O	-3.7317533744556077	-0.3605012820304516	16.395697038192303
O	-4.731087933875459	0.05314202358194842	17.30426792359637
O	-4.239385565697029	0.7984331696947993	18.321120135807583
O	-2.0491599231127626	2.592867458341834	15.569302129142375
O	-0.9710048725784528	3.0697874607919546	14.933893073547631
O	-0.3344706880706669	4.111478145751107	15.53291893300541
O	0.38618367348108384	4.360443316807132	14.28065265928663
O	0.7523371230976587	3.1890980081971625	13.690447368670927
O	0.105581369782208	2.2607136430484402	14.517218599392356
O	-1.4969347292935078	4.86744861546194	16.27982697728709
O	1.7529603627526158	2.699431939367042	12.777256983692183
O	2.960453516148782	2.0280199031011614	13.318708624239127
O	1.4982794182545618	1.5905071660957293	11.868318814212206
O	2.1138231369380116	3.6696632997742653	11.734655114687412
