81

O	1.149628436847368	-2.2627667258421056	-2.0098665135263154
O	-0.009170869152631878	-2.5928776158421054	-1.3782448085263155
O	4.286633266847368	-3.0467959058421052	-2.1278166935263156
O	3.3785571068473677	-1.9832283258421053	-2.0285446035263153
O	4.452434036847368	-3.962942125842105	-1.1290626705263156
O	0.7651400568473682	0.9605822541578946	-4.018005013526316
O	1.730738116847368	0.46273924115789455	-3.2328831035263152
O	-0.49789334815263186	1.0644002411578946	-3.4375816735263154
O	2.300955916847368	-2.0196105958421056	-1.1039384585263154
O	3.831173876847368	-3.5642970958421056	0.061499980473684546
O	-0.41040936015263185	-1.2082421258421054	0.37493365847368454
O	0.5934283668473682	-0.9351056958421053	2.2105755364736845
O	1.5597553268473678	0.8049550431578946	-1.8844941235263155
O	0.16122471184736809	-2.3984216958421056	0.05587220347368449
O	1.038885166847368	-2.2620751558421053	2.340152756473685
O	1.8995459768473681	-3.776271515842106	0.8092954964736846
O	-0.5333559631526319	0.4714128851578946	-2.1549272635263157
O	0.588891756847368	-0.42450284484210543	1.0295082264736846
O	2.763493166847368	-2.7279255658421055	0.03194334947368449
O	0.839209726847368	-2.8855779958421053	1.1077963964736846
O	0.3611546268473681	0.7529044161578945	-1.2722111175263153
O	-1.7467610531526319	0.04951017715789455	-1.6847050535263155
O	0.41379589684736817	0.6828974591578946	0.11403592847368449
O	2.478601236847368	-4.170276255842106	1.9796559764736847
O	-6.662196743152632	-11.217387835842105	2.2621578864736844
O	-3.351655613152632	-11.443913635842106	0.29567114647368453
O	-0.3171172061526319	-9.490415665842105	1.5133597864736847
O	3.093646966847368	-5.030602025842105	-5.614044233526315
O	5.0202418668473685	-3.2704316058421052	-8.435511783526316
O	0.6947202568473682	-6.739725715842106	-9.673761613526315
O	-0.6473115054526318	-8.515375815842106	-6.549792213526316
O	-1.9707327431526318	-6.959126175842105	-3.3590397235263154
O	-4.757233163152631	-7.8758479258421055	-0.9735835765263154
O	-5.868608423152631	-6.243200625842105	2.2478794364736845
O	-9.557322283152631	-5.476537425842105	2.4674192764736844
O	-12.180648473152631	-3.7706944358421057	4.564223276473684
O	-8.511589443152632	-0.8276242558421054	6.164060436473684
O	-7.292521493152631	-0.6588597638421054	2.610249506473685
O	-4.994765443152631	-2.2610530458421056	0.3114420374736845
O	-6.210232693152632	-3.2476907458421054	-3.206607883526315
O	-3.609667623152632	-4.006489395842106	-6.027001063526316
O	-4.562376823152632	-5.754059625842105	-9.185661993526315
O	-2.3187397531526317	-4.9791584358421055	-12.117762863526314
O	0.550780576847368	12.296952264157895	4.0963740364736845
O	3.922361456847368	10.575582064157894	3.548736606473685
O	3.324313486847368	9.556775134157894	-0.0790917195263155
O	1.0067038268473683	6.776587944157894	-1.1957418125263155
O	-1.8528815231526319	8.025004854157894	-3.3031630635263154
O	-5.184278283152632	6.798592084157894	-4.636410983526316
O	-8.227381143152632	6.138061334157895	-2.565703173526315
O	-10.054592233152631	4.484270194157894	-5.470853113526315
O	-9.490185233152632	2.8835824741578944	-8.848249083526316
O	-7.042144643152631	-2.2020958158421053	-13.391729563526315
O	-7.427452143152632	-2.3417568158421056	-9.559173793526314
O	-5.8809586131526315	0.45825245615789456	-7.458700613526315
O	-6.9679153031526315	1.2468743241578946	-3.7973349835263153
O	-5.105763953152631	3.1181516141578944	-1.0258939585263156
O	-4.221704743152632	3.0217753941578946	2.6796788864736847
O	-3.044773393152632	-0.22847464284210545	4.233272726473684
O	0.0004074618473681735	0.5729008651578946	6.384045076473684
O	0.8037162268473682	-3.0413658758421054	7.074675066473684
O	4.626464086847369	-3.3030439258421054	7.346896676473684
O	7.848541416847368	-2.1912836358421055	5.743836116473684
O	10.799933226847369	-0.49732849284210545	7.329452616473684
O	9.710617326847368	-5.132134195842106	9.644844736473685
O	10.090120126847369	-2.1973031358421053	12.030283436473685
O	11.025926126847368	-2.3211092558421056	1.4056850164736847
O	9.285811456847368	0.6096119761578945	-0.2061521295263155
O	8.642785346847369	2.5374637341578947	2.8362223664736845
O	5.331315056847369	1.4917683141578946	4.2753305264736845
O	5.009843426847368	2.0345994341578946	7.987038896473684
O	1.960517916847368	1.5194890041578946	10.261951036473684
O	5.321698396847369	4.525462514157894	13.031106636473686
O	3.662142446847368	6.820952384157895	10.425308936473686
O	5.411296266847368	6.401523894157895	7.052128476473684
O	4.433476786847368	6.597894254157895	3.3061805664736847
O	6.775884676847369	6.362714914157895	0.3231934554736845
O	5.917093926847368	3.8268124441578943	-2.2147207235263155
O	6.662952726847369	2.7316982141578947	-5.932495963526316
O	8.09217366684737	6.1128192941578945	-6.7779900935263155
O	8.287264096847368	3.6979165741578948	-11.846532963526315
