30

O	1.2793307339559339	1.1576095060412879	11.588096806726917
O	2.499258097808686	1.932132618111597	13.14768170554696
O	1.697145567168748	3.4727605558491685	11.294162031906938
O	-4.926846783415168	0.6664473805839763	14.975551111078166
O	-5.30835626753959	1.7398726039495922	15.722242273817235
O	-3.2699343489374053	4.777998636799921	16.66700240156221
O	-2.759680448979105	-0.31478937780666616	18.675421781891075
O	-2.473451152790007	4.56911128963794	17.72658219639021
O	-2.5774376645267987	4.7136261520958715	15.551563804706571
O	-2.5434217054039525	1.0159352327648286	18.79426783882972
O	-4.741002581930796	-0.2940137701793182	15.893843101160387
O	-3.573913020638429	-0.780412028787933	17.720901020274436
O	-4.079740862518858	2.2116618056268162	15.968642981431358
O	-0.6500944443568356	4.194737479385751	16.566323216590785
O	-0.1898277988530752	1.90824188760622	13.816489239006792
O	-1.8267143551861322	1.8385729468606067	15.800174072822166
O	-1.1368528365219328	4.219749291622786	17.718339345014144
O	-1.2480097723168637	4.44294825037315	15.429793748184686
O	-2.8510139655442357	1.731312318855244	17.821159291132066
O	0.4586562191175345	2.86494023604679	13.033585944331602
O	-1.2889136565626877	2.7269664025813585	14.048488880356235
O	-0.8524653220193645	3.5784664603248286	18.998772891977104
O	0.3116276637650419	4.020871961081893	13.615880043759532
O	-1.6557730453658626	2.0390353407088133	17.091688805187975
O	-2.344295345537913	2.6367855917725946	14.833858870883304
O	-1.7729032674819831	0.6696936108112843	15.694337451250346
O	-4.174776516479078	0.14555245999989763	17.034908556473763
O	-3.607072440716287	1.3535959497816825	16.891624561502663
O	1.5061832606353176	2.4098938480713814	12.21146665819476
O	-0.7842915705119532	3.9310273732758705	14.257220409546903
