39

O	-1.4417762217138774	1.9248454160274278	16.229988629804627
O	-0.4121365333132554	1.4768439840604677	16.70848618180698
O	-2.494440240380915	1.194307330221138	16.651571290695887
O	-3.1804026007863344	0.8843859419328646	17.64754341867372
O	-3.619636210193079	0.25343373348645803	18.77565946161701
O	-3.589412486095079	0.9699712259599562	19.935659507379498
O	-2.8880961426745246	2.090368016630812	19.651232080899398
O	-3.6049736347119907	2.8103023258936144	18.681857787071777
O	-3.9258968102732146	2.0322434439541066	17.627090333762954
O	-1.494013286552324	3.115106645271837	15.628592385924824
O	-0.3273871120556948	3.308484608571474	14.904994537839544
O	-0.3890327388636965	4.3113988574508335	14.077477587700397
O	0.5351626255721202	4.166727375517251	13.229815866506755
O	1.0637801277174195	2.9542935913983093	13.277829170763788
O	0.40712997947849905	2.337418710367079	14.296397756528442
O	-1.6140739209386725	4.954667080152362	13.887030823387281
O	2.136233554341451	2.3665885097300485	12.612519053709452
O	2.4301933129262006	2.2384778316000733	11.191721747404463
O	2.2450023576361433	0.9205331709730404	12.864190899669937
O	3.574809158750562	2.4419572959058953	13.005794895028066
O	-2.090390073022499	5.573294903989315	15.089587412363304
O	-3.309077618648746	6.1734006264949635	14.719248239333051
O	-3.4439198109919618	6.044080138190501	13.313884374571593
O	-3.802716807412261	4.626185981473659	13.286326098433545
O	-2.668661129136188	3.9691137178893245	13.65482619711853
O	-4.605383998051081	6.67315610567567	12.87722541455236
O	-3.4106524640339533	-0.9774806110254759	19.07042720255744
O	-3.5283149171790074	-1.5282390255144693	20.407763117418746
O	-3.770427535416494	-0.7668120547795465	21.504298296539705
O	-3.5763663886466217	0.5554551542945059	21.207228730036853
O	-1.5825101913487871	2.2002895104577016	19.91665867493714
O	-0.9482740720294169	3.207312057233474	19.074675870870973
O	0.4188086754455176	3.4472382771262406	18.968405605590075
O	1.3664402627007501	4.286107319677583	18.404236405086795
O	2.110202328741919	4.108511022202327	17.11699948169787
O	3.521475865629718	4.4999216093997685	17.33282321539886
O	4.073077924001211	5.606375980360039	17.93229653110348
O	3.307948152638315	5.772629838384176	19.116372014453052
O	1.9169797001915734	5.604349120286447	18.497442515555328
