104

O	-3.215079207628246	0.7427308500362318	4.7198595834637675
O	-2.0561992976282455	-1.0805359294637682	-0.267020128536232
O	-0.08634299962824571	-0.12383314446376814	-1.150509503536232
O	-2.8296779876282456	0.7000963293362319	3.3044861534637677
O	1.3828020923717543	-2.662571899463768	-1.509781836536232
O	2.375062152371754	-1.7356493194637683	-4.5120055565362325
O	-3.858004057628246	0.24964181253623186	2.417650443463768
O	0.16351981837175428	-2.338875679463768	-4.173451606536232
O	1.3952730623717542	-0.8494562294637682	0.5745780634637678
O	-3.339360717628246	-0.09893753246376813	1.172075333463768
O	1.4881206023717541	-0.5565247594637681	2.640726423463768
O	-2.0386943576282457	0.07396944853623189	0.6413523234637679
O	-0.9111895006282458	-0.9450395594637682	-0.8753106455362321
O	-1.0042933626282458	-2.344883619463768	-1.386690614536232
O	-0.5444082766282456	-3.437833919463768	-0.713847154536232
O	0.6854112023717542	-3.8629069094637685	-0.969342399536232
O	0.5791162663717544	-2.745135059463768	-2.863029956536232
O	-0.7420635976282457	-2.439967309463768	-2.629445566536232
O	0.16481612337175428	-0.8609798094637682	-4.5738901465362325
O	1.6456054323717542	-0.6387246994637681	-4.0739833965362315
O	1.7925604423717543	-1.8423145594637682	-5.799327986536232
O	0.5208056053717542	-2.739102299463768	-5.425726996536232
O	-1.2493022836282457	0.6378980067362319	1.6669449834637677
O	-1.5292983776282458	0.32232757653623184	2.938709653463768
O	-1.1882395796282457	-0.7704006694637682	3.868997163463768
O	-2.0343372176282455	-1.734030329463768	3.143892853463768
O	-1.6197050976282457	-2.338526909463768	1.9366636534637678
O	-0.4543765205282457	-1.990688379463768	1.128627913463768
O	-0.4060953784282457	-2.294626659463768	2.484221263463768
O	-0.25426910962824567	-1.6655379194637683	3.7622117734637683
O	0.8841634823717544	-1.2899008994637682	1.4704928434637679
O	2.3315762523717543	-0.24632007446376813	3.7973072034637676
O	1.5975748023717542	0.16933828953623187	5.080100353463768
O	2.272808482371754	1.5477598115362319	5.485997943463768
O	2.7679651023717544	0.3914838635362319	6.097879133463768
O	-1.9419298476282458	-1.4227974794637683	14.814649273463768
O	1.2490892923717543	-1.5761849894637683	12.85217127346377
O	-0.6604644646282457	-5.694549519463768	5.036317303463768
O	-1.0444467196282456	-7.781054459463768	2.060153873463768
O	-4.196079137628246	-9.965339779463768	2.556524763463768
O	-5.245212307628245	-7.825559299463768	5.582173213463768
O	-4.373652217628245	-5.992899479463768	8.826765123463769
O	-3.2074083076282456	-2.425062359463768	9.154799323463768
O	-3.524522727628246	0.35949581453623186	11.559461073463769
O	-2.1649457976282456	3.8489663905362317	11.761228473463769
O	-2.8083461976282456	7.634389980536232	7.439978523463768
O	-2.6017541476282458	3.989260480536232	7.231955403463768
O	-5.863018277628245	2.041509310536232	7.087972733463768
O	-6.003696887628245	-1.6359459694637684	5.865905813463768
O	-8.921591107628245	-3.958255529463768	6.500482473463768
O	-9.045178407628246	-6.762169439463769	3.957649123463768
O	-9.190468607628246	-10.206115679463768	5.677954963463768
O	-7.4884956576282455	-10.513325079463767	-5.589001546536232
O	-9.728479957628245	-7.982970389463768	-3.7163506665362323
O	-10.747996067628245	-6.498015379463768	-6.995043546536232
O	-7.250875207628245	-6.537371509463767	-8.304363056536232
O	-5.7394018876282455	-4.589895099463767	-5.1596157465362325
O	-8.683958587628245	-2.105066919463768	-5.3208968465362325
O	-4.453696047628245	-1.2258225294637681	-8.74845508653623
O	-4.602819387628245	1.1648769575362319	-5.849875686536232
O	-7.294417607628246	3.306455490536232	-7.697071856536232
O	-1.8553624076282458	4.651778060536232	-9.232430156536232
O	-1.1878190456282456	8.327237070536231	-9.05937013653623
O	2.5791157923717543	9.036203670536233	-8.509700976536232
O	6.816008022371754	7.272851980536231	-5.250627676536232
O	3.9266467423717546	4.853195350536232	-5.562041026536232
O	1.2705033923717544	3.9527241005362317	-2.8993277665362323
O	-2.1579861676282457	5.021991650536231	-4.072187726536232
O	-5.614527127628246	5.483985140536232	-2.534087956536232
O	-6.605248557628245	8.320342540536231	-0.23869921953623202
O	-9.987313447628246	6.735164610536232	0.5777605434637678
O	-11.835151067628246	3.419865390536232	0.422413562463768
O	-8.427042397628245	0.9927480845362319	2.127419803463768
O	-6.6859446276282455	4.294958830536232	3.227494663463768
O	-3.333345997628246	5.540389380536231	2.133305563463768
O	-0.3591235552792457	7.527040920536232	3.349316083463768
O	1.4711745523717543	6.428810090536231	6.451233263463768
O	5.201763682371754	6.399598250536231	5.831653623463768
O	6.012111142371754	4.4433462905362315	8.958499463463768
O	8.986614272371755	2.212067980536232	8.148547963463768
O	10.497563932371754	-0.01248665646376812	5.633210283463768
O	13.966071232371755	0.19110478053623187	3.9854486334637675
O	15.320704832371755	-2.396057539463768	6.390935963463768
O	8.323572332371755	5.004857010536233	-9.29373970653623
O	5.597031652371754	4.788729420536232	-13.880675526536232
O	4.372046262371755	1.304822713536232	-12.794850226536232
O	6.072792252371754	-5.902594369463769	-9.130409996536232
O	8.392754732371754	-9.474512879463768	-5.1872577665362325
O	13.296927032371755	-3.8415905294637684	1.246529543463768
O	10.116378632371754	-4.709228429463769	3.255175883463768
O	7.8226574723717555	-3.228064319463768	0.7389687634637678
O	9.580642742371754	0.0530596055362319	0.14322527046376793
O	7.8091657323717545	2.430168700536232	2.6252056634637677
O	10.070262632371755	5.217266870536232	3.7167482034637676
O	10.012105832371756	6.614887420536231	-0.571219018536232
O	6.819194512371754	4.883504300536233	-1.997816806536232
O	6.879014642371755	1.553466037536232	-3.600163106536232
O	4.381071722371755	-0.8112152794637681	-1.721568176536232
O	2.6137151523717543	-4.644883869463769	-2.424548026536232
O	3.3565844723717544	-4.509797689463769	-6.351269776536232
O	0.9473058823717542	-6.210740799463768	-8.910015276536232
O	-0.2309092866282457	-8.645739469463768	-6.242187756536232
O	2.2072133423717544	-11.647394379463767	-6.375401216536232
O	-10.905174667628245	11.431586420536233	-3.708966406536232
