24

O	-3.3671194791062353	2.6016174101764262	17.227266218969756
O	-4.235019220958879	1.7463165357702728	16.44490236913988
O	-2.5003907247345185	0.7248203907562711	17.921678318393766
O	-2.664598553969587	-2.4337393857867866	21.598915112820357
O	-2.353466832436029	2.089859910237038	17.938837011400118
O	-4.643101966934703	0.6314069930117112	17.173187807911454
O	-3.733453563992866	0.15529160792432173	18.069775198571705
O	-2.8889254588802076	-1.1169664529086267	21.406939871281303
O	-2.3399868967529835	-1.9412859429592948	23.752587287260724
O	-1.5488494779713404	2.4939449346095715	19.125025176779946
O	-2.7861949775716934	-0.7650470072453277	20.0587481884204
O	-6.008340862280086	0.13482526162733155	17.273948031352273
O	-1.2486025068289213	1.545130496917304	24.520168509912118
O	-1.562948500505788	-0.510655417612029	26.844607551976843
O	-0.44637667329940856	1.3005732971801711	21.446262664557462
O	-0.6485653178795006	0.18901839187335212	24.724575483997853
O	-1.147908569344453	-0.8772458073554273	25.534207062213255
O	-2.315430130931916	-2.8574107616644087	22.808637060242017
O	-3.8481136949161163	-0.8030622485954055	19.146201562090045
O	-1.9429767431164116	-2.002640022874359	25.049605838662213
O	-1.2513237552040741	1.9272411472666588	20.452460533530683
O	-0.41735996635686945	2.321960605789706	18.569253784954387
O	-1.6936198668716371	-0.8757853522554968	19.403344287328775
O	-2.700197052459126	-0.5036204066425842	22.95028285765955
