26

O	-3.311949302120449	1.1574672473717529	18.877809483944123
O	-3.1511913316542617	-0.0027231540909773908	19.708813502145382
O	-2.474229033897724	1.632037939572854	17.912616090721734
O	-4.646857609656079	1.1947494604150124	18.44306780115223
O	-2.2384797026914574	-0.9371803143791019	19.341229545125326
O	-4.088613861831304	-0.5694403118062483	20.525805451825253
O	-2.795889112456222	1.8482961557834174	16.57650447904961
O	-5.061215863130768	1.5577771249990386	17.164993281456933
O	-5.733957779762076	0.7301010227285453	19.362416631149024
O	-3.4739797991467283	-1.0197461010807114	21.695035872435476
O	-1.549647934294015	-1.2991850745810585	20.547719301604793
O	-1.9224891700407243	2.5855459266394707	15.66183095787499
O	-4.10586818848649	1.8359906473585044	16.235858753832744
O	-2.1104035855138066	-1.3028313423192264	21.79351260411635
O	-2.0128100009702274	2.6622614497825525	14.266788597455793
O	-0.9168689197338913	3.0587097857973986	16.199819424051423
O	-1.5371957366438052	-0.608378994720803	22.97766874382558
O	-1.1732581821872408	3.614366843484944	13.515173953285496
O	-1.7600395513864904	-1.0387360100498841	24.291324906015667
O	-1.5877215798215594	0.6756754509110652	22.64662802620481
O	-0.054191706144615104	3.2167094346477545	12.655778233020776
O	-1.2862980970420816	3.7177214218628474	12.049766962204178
O	-0.9374920382815253	-0.32622883271374475	25.26651883892764
O	-1.781099731879222	0.6669253262041664	25.934889464496038
O	-1.4775357633317636	1.963130446836343	26.51574826039685
O	-1.791273602430674	0.7205980973117992	27.396518054177637
