86

O	3.726459288339286	-4.404527275767856	6.395246869678571
O	2.984980558339286	-0.2627316357678564	-1.7903312013214283
O	3.845020578339286	0.38894998423214355	-0.6082076633214284
O	0.19464473350928613	0.1529653242321436	-4.389771840321428
O	2.943426538339286	-1.5158860657678563	-1.0003687916214283
O	2.702151708339286	0.6487447922321435	0.3117651196785717
O	0.014212112339286126	0.44074300723214355	-2.9699884003214283
O	-1.6816023016607138	-1.1694949257678566	-3.8773847403214283
O	3.593880628339286	-2.8592284357678563	4.023071189678571
O	-1.1334901916607139	-0.2758756657678565	-4.934552970321429
O	-0.7039126206607138	-1.6089032357678563	-2.8561355903214283
O	3.507364218339286	-1.5912768157678563	0.5760852496785717
O	0.24567492383928613	-1.4166274057678565	0.30334729967857166
O	-0.2787433456607139	-0.44715561576785645	-1.8963908443214283
O	2.698804738339286	-0.5299394657678564	1.1456519596785717
O	1.995517058339286	-1.9823931457678563	2.1118165496785717
O	1.213858038339286	0.9052990902321436	2.2962717596785716
O	1.1705361203392861	-1.9208490357678565	1.1149067996785718
O	-0.07858159866071388	-0.14871052576785648	0.8739832996785716
O	3.003412758339286	-2.2578425857678566	2.943748449678572
O	-0.05383133166071388	0.6032523682321436	2.853370709678572
O	5.420144568339286	-3.6814847757678564	5.775012399678571
O	0.37356281533928615	-1.0950080257678565	-0.9918143470214283
O	2.221932588339286	-0.08554698576785635	2.4877007296785716
O	0.04917642933928612	-0.6239737957678566	2.255652209678572
O	1.2541317983392861	-1.0797605157678565	2.9727100396785717
O	4.098300368339286	-3.469819835767857	5.240071269678571
O	5.027045378339286	-1.1410514057678565	0.7140612296785717
O	-1.957962931660714	0.7041318172321436	-5.384874200321429
O	0.6256444073392862	-1.8703516657678565	-3.212863600321428
O	-1.2173141916607138	-12.778553685767855	3.9214217896785715
O	2.138297508339286	-11.590342785767856	2.4673052396785717
O	3.474785608339286	-8.438810045767855	3.8426508296785715
O	6.071330688339287	-3.1155463357678563	-3.366380730321428
O	7.132377698339287	-0.7254565757678566	-6.317524880321429
O	7.623468638339286	-3.207359995767857	-9.189227560321427
O	5.657486938339287	-5.975044955767856	-7.414179890321429
O	4.756718568339286	-8.116638415767856	-4.322320550321429
O	2.1028932683392862	-7.301665625767856	-1.7235842313214285
O	-0.3578525406607138	-9.207141685767855	0.40801081967857156
O	-2.860846851660714	-8.074262795767856	3.0273129996785717
O	-6.333057261660714	-9.328174485767855	2.504892419678572
O	-8.785279871660714	-4.552136875767856	5.218986409678571
O	-6.909284081660713	-4.128163285767856	1.971257929678572
O	-3.508667221660714	-4.350650625767857	0.5273379396785717
O	-3.1172697716607143	-6.076013455767857	-2.8573771503214282
O	-0.016041870660713886	-5.623924895767857	-5.086452300321429
O	0.7486400973392862	-7.970658055767857	-7.979267620321429
O	2.881564718339286	-6.294036435767857	-10.610163290321427
O	-7.285519631660714	11.025357584232145	1.6445663896785718
O	-3.500322811660714	11.361436084232144	1.996431169678572
O	-2.550285801660714	9.650031714232144	-1.2895095553214284
O	-2.6499816416607143	5.8831274542321434	-2.0228132803214285
O	-5.171030211660714	5.406898064232143	-4.769576000321428
O	-6.7705105216607135	2.4232111042321436	-6.255623420321428
O	-9.627116501660714	0.5628497412321436	-4.599726040321428
O	-9.725861311660715	-2.096276555767856	-7.280099270321429
O	-7.657351581660714	-3.3957821057678563	-10.136049660321428
O	-2.123774361660714	-6.8232062457678575	-13.152681060321427
O	-3.179472931660714	-6.616498955767857	-9.450085680321427
O	-3.703758201660714	-3.2955185157678564	-7.718057660321429
O	-5.752521141660714	-2.9032522857678567	-4.4868506203214285
O	-5.554813841660714	-0.1411945257678564	-2.0157272603214285
O	-6.069089941660714	0.5967377782321436	1.6682359596785719
O	-4.073673681660714	-1.3031983457678564	4.193071649678571
O	-2.474661581660714	1.2839390722321435	6.4889067796785715
O	-0.36449173366071386	-1.1667218357678564	8.321274589678572
O	2.964919278339286	0.7802515042321435	9.215298539678573
O	5.5556015083392865	3.2236876442321436	7.833979759678571
O	6.759305208339287	6.462309454232144	9.320028139678572
O	9.902750768339285	4.745556114232143	10.595871839678573
O	7.589455128339286	2.2867196682321436	12.499215039678573
O	5.8417735883392865	5.261413264232144	14.141393239678573
O	9.334230648339286	4.236317674232144	4.078723039678572
O	6.822348458339286	5.505435214232143	1.5977849596785716
O	4.587381208339286	7.298499854232143	3.9630470296785716
O	1.934914318339286	4.796947874232144	5.126943779678571
O	0.4539861523392861	5.505461014232143	8.515798379678571
O	-2.416759731660714	3.668300414232143	10.307570439678573
O	-1.1331412116607138	9.133615794232144	6.562415789678571
O	-1.0509463616607138	8.259926304232144	2.806542999678572
O	1.7638295583392862	8.981657084232143	0.3207426296785717
O	2.847111928339286	5.9346586942321435	-1.6508718963214284
O	4.929516118339286	5.169830154232144	-4.825861120321428
O	4.768564498339287	8.714530794232143	-6.099426880321428
O	7.2974462983392865	6.437523274232143	-10.467580910321427
