48

O	-4.152410625875911	-1.1486605563794408	17.470436558177834
O	2.4319978969215685	0.8025735591183641	11.897089160206036
O	2.1621911607982183	1.922494995287499	12.77959547058553
O	2.714668986847467	2.9303746052866937	11.929940646197203
O	3.402788147713149	1.4225148294920613	13.513858150683912
O	1.0349574352423199	2.3033681930729775	13.535835899208461
O	-0.19933338145263035	2.3607477384381497	13.195154989204529
O	-1.1798637308981752	2.618616535065939	14.048953930045961
O	-1.7750481228418231	3.773114877306996	14.615605915195365
O	-1.4448801397078948	3.5987008202130912	16.013113872087732
O	-0.4357639012407776	2.985779526168735	16.261237176091836
O	-2.6639812684759345	3.8605091100322952	16.412033903437788
O	-3.175545730421388	3.1831909309438187	17.513914432126995
O	-4.423545491892622	2.53736821593477	17.090438388355935
O	-5.200803207969345	3.3423559723194862	16.25542706086019
O	-6.524883497104646	3.038444252258865	16.132329387264644
O	-7.109045788076944	2.1568607641354665	17.033739246872344
O	-6.175251636983472	1.34915807736569	17.694100271511946
O	-4.974357672665382	1.9115425881503452	18.21519469966974
O	-4.456422152709203	1.1002499662381127	19.483776513223418
O	-3.7509109704502497	-0.028037876589456556	20.316800427840672
O	-3.6549543849924544	-1.3581822772208803	20.271810936087746
O	-3.1920149504764823	-2.371003933923072	21.050792832053904
O	-2.5915034919665647	-2.0037267577391686	22.255793136007433
O	-1.8260342352002157	-1.988467975120423	23.30536225614848
O	-1.4047291754640368	-0.7338868546875664	23.599891447366172
O	-1.4744969625602535	0.038549923129838404	22.481583660913472
O	-2.1310930050193164	1.2484481374545018	22.797547650101148
O	-3.248528249112148	1.7543623647801878	23.38299333013314
O	-4.333973508128162	2.288986330602054	22.765724910850224
O	-4.490259596192052	2.7211490663058577	21.4130454469492
O	-3.2189271326886497	2.681775903907583	20.96238356756588
O	-2.1058580686757558	1.9427066437990028	21.523039802517317
O	-0.819158571431436	2.8238276765102985	20.56253786680822
O	-0.4927729439029309	3.6766006290366313	18.871325769830175
O	0.28887565759732303	4.131777105509546	17.87174351311598
O	0.9644087350884303	5.25083545955139	18.499117840859476
O	-2.565227830539341	-0.7237052555819902	22.153742620424687
O	-3.5873700902842747	-0.12163134809439968	21.60095581013638
O	-0.6623118408755002	2.208770413475216	15.122112356672366
O	0.546475698087312	2.7861657843825687	14.641556477399611
O	-1.2552439894407421	1.6501436343117803	16.25164274050944
O	-1.008873481114957	1.2923904719105153	17.736583455530248
O	-1.1724506391745106	0.5447573773543501	19.027595942796324
O	-1.610522677691992	-0.555481648493935	18.37388058168576
O	-1.3858622706053338	-1.5753049495442473	19.39624819669654
O	-2.775202754283444	-0.18177883475312817	17.70550289037325
O	-2.014853069896576	0.8422644063230731	17.48540644111156
