29

O	-3.109937456279902	1.3663482526556125	19.9236529704674
O	-2.321981926391538	2.3976239910652777	19.853764443577358
O	-1.0869709526882434	2.476985975920148	20.09047342757969
O	-1.293688635066987	1.261972610955163	21.34712736887173
O	-2.640399806060352	0.47825478623391005	20.71318152190598
O	-2.7193725985648007	-0.6656181904902755	21.527905502968487
O	-2.0986334803546622	-0.670238908904102	22.82351536236762
O	-2.626766379026261	-1.2605974552739836	23.980268623663502
O	-3.637139516681958	-2.035933280730829	23.513518456701586
O	-3.7599755882311263	-2.438315100274273	22.179556286705918
O	-2.8350768803452633	-1.9714320823779106	21.244031532274757
O	-4.041692176368216	1.108706648557429	18.906824829720648
O	-4.690529616193133	2.213009801807314	18.32467005043047
O	-4.673930990693327	2.548075290077778	16.987326372915042
O	-4.278920129746495	1.524172552975895	16.118180599664456
O	-3.26961047325488	0.7571015163898377	16.740031152680956
O	-3.7268744869694195	0.2165272250404186	17.93721839202546
O	-4.4357035792364	3.906898536591534	16.496144862583705
O	-3.118712622896891	-0.19937783455347627	24.87340735012005
O	-0.23828202115984576	3.3572846490776813	21.043187432905142
O	-0.09087923956879296	3.543279862387167	22.42698506257021
O	-2.8373329162522385	1.1796143657979106	24.824712313992173
O	-3.490564049063969	2.172342157406145	23.93117814739565
O	-1.5764536846555384	1.3169554246875526	24.866730523774134
O	-4.378683663462477	1.6084585611063595	23.06552369666598
O	-4.880203876792401	2.1569828716505963	21.830160976255208
O	-4.497608649668428	3.4029645406033526	21.431678296400964
O	-3.3911872357058153	3.747587427888678	22.041736971103386
O	-2.9026716221991524	3.2057155319554065	23.324341953817303
