89

O	4.0039531566101685	-1.0572704929830512	0.1298837972693221
O	-1.4551880323898319	0.8442090256169487	2.036361192659322
O	-2.957669403389832	4.409202387016949	0.6639263246593221
O	2.365641356610168	-2.9481313429830514	2.738456772659322
O	-0.7174220793898318	0.9524611000169487	3.095930252659322
O	-0.9998602513898318	2.272139167016949	3.445918722659322
O	1.5946530266101682	-2.1328012829830514	4.458897242659322
O	-3.974712583389832	6.249311617016948	2.166907312659322
O	-3.7233988133898315	6.666581107016948	3.552169532659322
O	2.5929953266101684	-2.9278309429830514	3.9867656426593223
O	0.8000545866101683	-1.880785512983051	3.4542653226593223
O	1.892095876610168	0.7457593015169487	3.183446082659322
O	1.1062929766101681	2.0457972470169485	1.744648882659322
O	1.0586283666101681	-2.738035872983051	2.5320536126593223
O	2.020683666610168	0.14115924401694868	0.9973640956593222
O	0.16472437961016817	-1.1376977829830515	0.5059162796593221
O	-1.9624749333898317	3.182836887016949	2.804328232659322
O	1.4610863866101684	1.2772414890169488	0.5964706916593221
O	0.4773046766101683	-2.2086434729830513	1.257272542659322
O	-2.966590683389832	5.175351097016948	1.8329471226593221
O	-1.2899345583898318	2.897190587016949	1.5206196826593221
O	1.1962741366101681	-2.816700972983051	0.31772361165932206
O	3.9970883766101686	-2.5045963929830513	4.356160492659322
O	-2.645495843389832	4.345654387016949	2.906868322659322
O	2.555799696610168	-1.3022280529830512	-0.2028991383406779
O	0.6583903666101683	0.9992507790169487	2.6795653726593223
O	2.4052638066101686	-2.6471540529830513	-0.36483440134067796
O	2.6110372266101685	0.07887154401694874	2.1648905126593223
O	1.3415114966101682	-0.5792612329830512	-0.027064016340677927
O	-2.0526186833898317	3.2438402470169487	0.553678708659322
O	4.870186176610169	17.10354662701695	2.9086810526593223
O	0.8205830866101682	12.309453927016948	-5.042941037340678
O	0.4428871566101682	11.717981727016948	-1.2706139573406778
O	-2.490597853389832	9.630992697016948	-0.16540607934067791
O	1.1481042666101682	3.345468117016949	5.705289182659322
O	2.080388506610168	1.1464800890169486	8.626869852659322
O	5.502244366610168	2.637495707016949	9.722888882659321
O	5.733914556610168	4.935278027016948	6.6605378426593225
O	4.178285676610169	7.441737487016948	4.219538102659322
O	2.629468396610168	6.606214907016948	0.9054963806593221
O	2.0931280266101684	8.158272647016949	-2.342344927340678
O	0.2184441856101682	7.3114079370169485	-5.484112057340678
O	2.274040836610168	7.233551857016948	-8.631971467340678
O	2.1951839266101683	6.402146987016948	-12.305660127340678
O	-1.2864250403898319	3.078081587016949	-11.189330027340679
O	0.7358867566101683	2.2280841570169487	-8.096514047340678
O	1.1338412166101681	2.998131777016949	-4.507560847340678
O	4.619302776610168	3.656548487016949	-3.160645037340678
O	5.512687466610169	3.575741777016949	0.590742671659322
O	8.672597876610167	5.143695017016948	2.094938242659322
O	9.464245326610168	3.4363630470169486	5.4013302526593225
O	11.391919126610167	-3.446682692983051	8.32107395265932
O	7.395498906610168	-6.346213522983052	6.321147932659322
O	-5.148266193389832	-11.652582472983052	-5.721249237340678
O	-6.716869243389832	-10.595279072983052	-2.398304297340678
O	-3.444921363389832	-9.820177672983052	-0.528859160340678
O	-1.1900930913898318	-6.753729092983051	-0.9536213373406779
O	2.1102986566101682	-7.9747989429830515	-2.3473256973406778
O	5.1876399966101685	-6.388032682983051	-3.896583887340678
O	5.353371106610169	-4.875714212983052	-7.310302497340678
O	8.783448666610168	-3.3539383529830515	-6.652099517340678
O	11.057071726610168	-2.430275442983051	-3.774357107340678
O	13.246946126610167	1.3660315690169487	1.897154082659322
O	10.483458126610168	2.1310326470169487	-0.640989373340678
O	7.795430166610168	-0.5417427829830513	-1.2256018873406778
O	5.541822946610169	-0.5641735529830513	-4.389320057340678
O	2.185266886610168	-2.262927782983051	-4.709203247340678
O	-1.1753279083898318	-1.8652715729830511	-6.473998527340678
O	-3.1231096633898314	1.2979844130169487	-5.840326147340678
O	-6.629126763389832	0.3302383340169487	-4.886648057340678
O	-7.738938053389831	3.8180353970169487	-3.9957074773406775
O	-10.336880913389832	3.412939977016949	-1.174071777340678
O	-11.050757373389832	1.5094758400169486	2.008586352659322
O	-15.210583973389832	4.615873177016948	1.780995172659322
O	-9.579156243389832	0.5131112630169488	7.104859612659322
O	-7.063358953389832	-2.1037804029830514	6.030433352659323
O	-9.101332723389833	-3.6662449029830513	3.341353132659322
O	-8.178314213389832	-1.8317042129830514	0.12326935975932207
O	-10.972567273389833	-1.827106482983051	-2.418429957340678
O	-10.896321173389833	-0.4749283829830514	-5.9983471073406776
O	-10.395233953389832	-6.274884212983052	-2.510308827340678
O	-6.870792583389831	-6.822779852983052	-1.044435427340678
O	-5.877792263389831	-7.334189212983052	2.5938135326593224
O	-3.2930992833898314	-4.878400312983052	3.838081482659322
O	-1.0546209493898318	-4.471022562983052	7.027006262659322
O	-1.1174565463898318	-8.101334452983052	7.782498642659323
O	1.6081099566101684	-9.77067107298305	9.881088642659321
O	2.717486496610168	-6.546286092983052	11.466256072659322
O	0.7587541166101681	-6.116525192983052	14.733260172659321
