99

O	-0.7901734039000001	0.8235689044206056	1.4759009335229099
O	0.14756161499999998	4.362794702560605	-1.55844407547709
O	0.10992453699999993	4.1989696525606055	-2.98065112647709
O	1.281052948	-3.9028983874393948	0.06504463552290995
O	-0.606690379	-0.7478798974393945	0.8116444335229099
O	0.4831650679999999	-0.14696499843939448	-0.32479378347709004
O	-0.24726970900000012	0.8888940637606055	-0.7333701219770901
O	-0.5584845710000002	1.6605584715606057	0.36299034352290993
O	-1.095158579	1.4114369115606056	2.73729795352291
O	-1.075240812	0.8912853784606056	4.051033393522911
O	-2.552138132	1.7237653985606056	2.67160130352291
O	-0.521995634	2.7744686425606053	2.91956465352291
O	0.2087385879999999	1.5770172215606055	-1.84528631647709
O	-0.6764382710000001	-5.316895507439395	0.43989883352291004
O	1.476933338	1.6055351495606056	-1.91833863647709
O	0.336333918	-5.981654147439395	-0.31633552247709
O	1.043892128	-0.8772982174393944	-1.31006595647709
O	0.13410567099999993	-1.1859816874393945	-2.26985685647709
O	1.4867199779999998	-5.195089777439395	-0.26810555747709003
O	1.149966638	-1.3497350174393945	-2.9521532464770903
O	-0.8109637260477001	-1.7409525774393944	-3.06892419647709
O	-1.1183384950000002	-3.020409997439394	-2.60599563647709
O	-2.0089032820000003	-2.7054226874393947	-1.5303671104770902
O	-1.979844242	-3.991706827439395	-0.94252453647709
O	-0.8590081759000001	-4.041724457439394	-0.10250278347708996
O	0.1973462079999999	-3.4557583974393946	-0.65315012067709
O	0.1274534879999999	-3.399023257439395	-2.09056114647709
O	-0.37777732900000005	1.3723435685606056	-2.99195535647709
O	0.6862833979999998	1.6528145585606056	-3.9825675364770903
O	1.1020679279999999	3.0291538125606055	-3.58459821647709
O	-1.412915748	3.4045906125606056	-2.89052862647709
O	-1.428059845	2.0935033825606055	-3.45084555647709
O	-0.24375991600000002	5.165510642560605	-3.98754294647709
O	-2.650399112	-1.6581094474393943	-7.52192346647709
O	-2.003358172	1.8746389125606056	-6.798124056477089
O	0.971294578	3.1615612225606053	-9.10864647647709
O	1.7082897179999998	-0.39858640743939433	-10.18952263647709
O	0.528602848	-3.900670097439395	-11.18653452647709
O	-0.3778777550000001	-6.669291627439395	-8.64950500647709
O	0.09899362299999992	-10.378736627439395	-8.97980324647709
O	-0.8367298460000001	-13.111216027439394	-6.64035597647709
O	0.8710497979999998	-13.301417127439393	-1.20962862747709
O	0.23194984799999996	-10.292278227439393	-3.26938267647709
O	3.110064598	-8.656712617439394	-5.00821033647709
O	2.8535470380000003	-5.125421477439395	-6.40545503647709
O	5.481239688	-4.002850927439395	-8.93182467647709
O	5.849832837999999	-0.23469757743939446	-9.02260859647709
O	5.363925628	1.2747534605606057	-12.51562632647709
O	9.190856118000001	4.492746662560606	-9.80164386647709
O	10.301088818	9.196055642560607	-6.864337236477089
O	9.027937218	10.919478672560606	-3.72981619647709
O	5.735855588	8.931354802560607	-3.97673120647709
O	7.868526728	5.679544602560606	-4.19260272647709
O	9.524978118	6.640505142560605	-0.9947069594770901
O	6.354650628	7.701709482560605	0.72405645352291
O	4.769888057999999	4.453853112560606	0.043156406522909974
O	7.5474392880000005	2.2390172125606056	1.0098785535229098
O	7.869104998	4.193909212560605	4.244377053522911
O	4.180573507999999	3.8859906425606052	5.063720623522911
O	3.9312449779999996	0.16827894956060552	4.24951113352291
O	7.0212478879999995	-0.4090679174393945	6.37162658352291
O	5.641605148	1.2965698335606055	9.391787973522911
O	2.157144978	-0.33199678743939454	9.49733517352291
O	-4.012133402	-2.5031377374393946	7.77827445352291
O	-1.9216971120000002	-3.6768990274393945	4.72062788352291
O	1.7117427979999997	-3.8890759974393942	5.729688523522911
O	4.8699952479999995	-5.248841907439394	4.16058209352291
O	5.872759338	-8.882775397439394	4.10816888352291
O	8.834467938000001	-8.241908997439394	1.7768958435229099
O	6.016433868	-4.770168807439394	-2.49360786647709
O	4.807107338	-7.960318777439395	-0.91492679747709
O	1.931625518	-8.316107597439395	1.43434038352291
O	-3.313609512	-11.643304127439393	-0.45613225947709
O	-7.699058142	-0.03153302243939449	11.35106457352291
O	-4.3626880020000005	2.906281882560606	14.20638707352291
O	-3.670036102	4.8275174125606055	11.022805273522911
O	-1.7925204750000001	9.468298232560606	8.643021693522911
O	-5.073253822	10.038908492560607	6.81013844352291
O	-6.484704022000001	7.696709212560605	4.086731243522911
O	-8.257211122	10.364051192560606	2.11709464352291
O	-9.724525532	7.987973292560605	-0.49607908547709
O	-11.287461982	5.231246402560605	1.4829478135229097
O	-13.769786882	3.2828924325606055	-0.68875632008909
O	-15.063102081999999	-0.29050688743939435	-1.02479091947709
O	-12.399512382	-1.0690287574393944	-3.64199864647709
O	-9.499786032	-0.5489141374393944	-1.30391678847709
O	-10.795043161999999	-2.5734207074393947	1.5187062435229097
O	-9.205847852	-6.029769547439395	0.9403691835229099
O	-11.390098382	-8.798649477439394	2.40492947352291
O	-7.408013942	-4.775130367439394	5.76412466352291
O	-7.271655122	-1.1603356174393944	4.6315365835229105
O	-5.203384022000001	-0.8427443774393943	1.4069770135229098
O	-3.709992702	2.248591642560606	-0.29370906847709
O	-4.024370872	4.887672212560605	2.44552959352291
O	-1.6249606010000002	7.875501012560606	2.91426822352291
O	-1.1517658860000002	8.249720622560606	-0.78845636737709
O	-3.918439212	10.498019672560606	-2.14173799647709
O	14.219802818	4.430739842560605	-1.09782772347709
O	13.448156118	-6.380466957439395	8.288269943522911
