94

O	1.1323392106848476	-4.4902834272121215	-1.2023104019848478
O	0.5604339706848476	3.2013996027878786	1.6445346410151522
O	-0.2085242263151523	1.9611158127878787	1.4948234510151521
O	-1.3124256583151523	2.7685989127878785	2.014283421015152
O	0.48403252368484767	2.0296235427878786	2.778353961015152
O	-0.07325958531515231	0.9247723999878786	0.488333931015152
O	-0.1385035763151523	-0.6246009772121214	-0.15591077198484793
O	0.6795238206848477	-0.5951719272121213	-1.4724596919848478
O	1.9452154706848475	0.09738762978787863	-1.0668745031848479
O	2.0449603106848477	0.9085427155878786	0.207499341015152
O	1.9580746406848475	1.7800584237878785	-0.608972447984848
O	2.667091440684848	0.31617693178787865	1.2640865110151522
O	2.724247360684848	-0.8776452372121214	0.613958511015152
O	2.304392500684848	-1.837598207212121	1.4055422010151521
O	2.501018290684848	-3.0810182472121213	0.8071654810151521
O	2.0651543206848477	-3.1280398172121213	-0.5869376249848479
O	2.575285850684848	-2.2948365672121214	-1.581859733984848
O	2.3872063506848478	-2.376547957212121	-3.0873623689848477
O	2.0664782406848476	-1.5252170672121212	-3.984964448984848
O	1.6506724206848478	-1.3747332372121215	-5.252390578984848
O	2.444023430684848	-1.1561185272121213	-6.330520778984848
O	1.9648096106848476	-1.0656709172121213	-7.663221298984848
O	0.7945036406848476	-1.7062833972121214	-7.947920548984848
O	-0.0681505373151523	-1.680997027212121	-6.934392438984848
O	0.38666586268484765	-1.7113805672121214	-5.578353308984848
O	2.8655244806848477	-1.1241000972121213	-0.8064209669848479
O	0.11484372368484769	0.06395344578787865	-2.132207918984848
O	-0.2816846123151523	0.6198667777878786	-0.813247013984848
O	7.685201900684849	-0.5740503472121213	-2.412897788984848
O	8.296925490684847	1.3600548497878786	0.8738888510151521
O	10.812414350684849	-0.7291952472121214	2.995942291015152
O	10.493511750684847	-3.7596954072121216	0.666807751015152
O	10.189257850684848	-5.268422557212121	-2.856259638984848
O	6.9421434306848475	-5.716406437212122	-4.8233591489848475
O	5.792764790684848	-8.305337377212123	-7.236670998984848
O	2.6232016506848477	-8.583374637212122	-9.15803044898485
O	-2.523124769315152	-8.585491527212122	-6.745906598984848
O	0.5048141746848478	-6.809505217212121	-5.513257368984848
O	2.5941540206848477	-8.787822537212122	-2.9936879189848478
O	5.353484330684848	-6.982566477212122	-0.944687508984848
O	8.150640890684848	-8.675448307212122	0.9838623510151518
O	9.421150190684848	-6.471793947212121	3.839121141015152
O	13.234155750684847	-6.034408527212121	3.655127981015152
O	7.963877190684848	0.5573786367878786	11.35206863101515
O	6.9631409406848475	-3.0482036372121213	10.467136731015152
O	4.305532500684848	-2.9863683672121213	13.111620931015153
O	3.183546130684848	0.4593206437878786	12.114636531015151
O	2.668381730684848	-0.5508180672121213	8.411601031015152
O	0.8471039706848476	-3.7563654272121214	9.377653331015154
O	-2.102131239315152	0.9552277434878786	9.137126631015153
O	-2.8979475493151523	-1.4512094972121212	6.397555581015152
O	-5.172221059315152	-3.498941447212121	8.56890849101515
O	-7.736018819315152	1.1240376197878785	6.110053351015152
O	-11.009799049315152	0.08776286478787865	4.476668421015152
O	-11.884364249315151	2.585919232787879	1.6308032010151519
O	-9.447323569315152	5.195185442787879	-2.737820328984848
O	-6.984158179315152	3.959277602787879	-0.04081277898484803
O	-4.710038839315152	0.8105808470878786	-0.37472234398484794
O	-5.648781299315152	-1.8009061072121213	2.325961521015152
O	-4.913737109315152	-5.507641987212121	3.0497468810151522
O	-6.153985229315152	-8.411848067212123	0.9882597810151519
O	-3.919779569315152	-10.906590787212123	2.856540171015152
O	-0.8234815953151523	-11.031465687212123	5.093879551015152
O	1.6238970406848476	-8.242869847212122	2.606523631015152
O	-1.0812376923151523	-8.557936957212123	-0.27691712598484797
O	-3.132188989315152	-5.762734067212121	-1.859202446984848
O	-4.787266829315152	-4.7491883372121215	-5.175259308984848
O	-2.5332599593151524	-4.2636080972121215	-8.141430478984848
O	-3.400480699315152	-1.0146669872121215	-9.87976820898485
O	-0.4746936855151523	-1.1347599272121212	-12.230930668984847
O	0.6584701206848476	2.4526066027878786	-12.869213268984847
O	1.3668820106848476	5.685608182787878	-11.105970468984847
O	0.030071807684847685	9.140355622787878	-11.81796616898485
O	-9.346313529315152	9.098460842787878	0.2321872210151521
O	-10.964288149315152	9.110586192787878	5.286095301015152
O	-7.285671339315152	8.895451742787877	6.238713011015152
O	0.26080916968484774	11.000575212787878	4.675621451015152
O	4.720519230684848	12.583430012787877	1.556325311015152
O	2.412862500684848	11.386865812787878	-8.136526358984849
O	4.505376650684848	8.212606232787879	-7.572918388984848
O	2.408725240684848	7.0995866227878786	-4.743365158984847
O	-0.9844101213151524	7.520118492787879	-6.323016328984848
O	-1.7474658493151523	4.125700772787878	-7.907524908984848
O	-4.041709149315152	4.310942282787878	-10.870431788984849
O	-7.1466873993151525	5.770079462787879	-7.953084468984848
O	-5.8691793893151525	4.600299572787878	-4.526553968984848
O	-3.5681353393151523	6.6013472127878785	-2.176967018984848
O	-0.2669600203151523	4.788248692787879	-1.397998445984848
O	2.6586585806848477	4.929648912787878	1.4865996110151523
O	0.49812834368484765	6.9884414127878784	3.8669784010151522
O	1.3254406106848475	7.009599752787879	7.537613351015152
O	4.902588830684848	5.909043382787878	7.081369011015153
O	7.0464537006848476	9.065589822787878	6.615398611015152
O	-9.887446609315152	-11.420296487212122	5.134761811015152
