33

O	-5.050213928551395	0.6731001239586591	16.913512069289272
O	-3.847568393518019	0.07676895248459903	17.17422648735714
O	-3.801719793432212	-0.29984998477148445	18.45565527236724
O	-4.0203040331256465	0.15784358998838766	19.70280624066513
O	-5.261313539107212	0.3869158118303824	19.178744587757972
O	-5.824938223955439	0.5901108601611922	17.962598391937348
O	-3.4128566424839994	-0.30097364193723763	21.092054903010165
O	-2.0149990418726	-0.10196030558019326	21.359695497687735
O	-2.5954336621417315	1.3004048832237618	21.3866051109954
O	-2.558110940154207	0.5489217491142899	23.49645477118901
O	-3.467032824741419	-0.2309835467732878	22.558719356845053
O	-1.0012178613528673	0.22566249149157735	20.578015175247568
O	-0.2767724132319267	1.3835831145197215	21.605955970816446
O	-2.5527511531350524	1.8229453887571585	20.23990577965637
O	-2.9438566894841744	2.756503693245711	19.39032911862964
O	-4.261955521096891	3.0215115515549895	19.035255515643318
O	-4.59184809613226	3.6667667768070222	17.9195903847905
O	-3.5996865829770637	4.029571870353865	17.08476988454199
O	-2.553693806172378	3.161356980741078	17.026501833795596
O	-2.43786836869594	2.341259193783509	18.093031965253
O	-2.920964559418681	1.6434990225444992	22.5650480874069
O	-1.1956898729520427	2.5031471496983784	20.74562531278969
O	-1.8885790568300245	0.9281435648907492	24.68217940758251
O	-0.5656129136951158	1.0895889429981256	25.314048311786884
O	-0.21734912698832742	1.578069806154968	26.682376060711647
O	-1.5612992431335555	0.2212018211690594	27.304800788353653
O	-2.2846093959897043	0.5457236015459221	26.064863945686003
O	-0.774170147065117	1.2657555351239296	28.01837488546955
O	-0.8829855453185869	3.4520163344105477	21.86033348473566
O	-1.0161979579012055	1.352067603833852	17.883594353650103
O	-4.727926546269719	3.3124780732700474	20.77441697011687
O	-5.087256715203113	1.4477885698036355	15.822237393387866
O	-6.063799321638228	0.7024009060067764	20.157966515940572
