28

O	-6.182613967588022	1.1512115331911836	15.111486555005746
O	-2.80640824544046	0.7803875851501806	20.320414684095653
O	-1.5575825869083895	0.38275639341380796	20.454416102282366
O	-0.8843681613150514	1.0754462210911928	21.492774385162893
O	-1.6469411504198344	1.452902611352671	22.442497820337707
O	-2.815352709962802	0.8658541203873541	21.802611580968637
O	-3.608369559749009	0.7058424153246622	19.075680825213762
O	-2.3762830751651034	-0.4025007394767221	22.48047708275766
O	-1.3174040806733527	1.8335387151705276	23.80427867700411
O	-4.797650890762986	0.020295628957280987	18.795055388810745
O	-5.700940826854389	0.1804505384833074	17.719517037652054
O	-5.503320285210865	0.9584705898468061	16.661251448451395
O	-4.3995048667940075	1.6663137968200967	16.845869166495152
O	-3.536739871436066	1.543475078542901	17.94739935648056
O	-1.0332262731531638	-0.9449707011448107	22.259845754799887
O	-1.5076279152795682	-2.2971711818914784	22.02185373602008
O	-2.2335616168018912	-2.6445170202234856	23.124448471926662
O	-2.5608166172251963	-1.859247534205089	24.144828740651523
O	-2.3482864971062947	-0.5741692564359909	23.870648049997463
O	-0.4137747763519961	1.0738226657807166	24.659095351676765
O	-0.5640476440788964	0.8447027385078324	26.134974052558988
O	-0.4758559959483226	1.9933434498175093	27.06730849875403
O	-1.190190914698709	2.9376355348689596	26.109408045418462
O	-2.0180521169371426	2.4512265955877477	24.91504614469838
O	-0.4405848492132085	2.012294096946898	28.457323947066165
O	-0.9358135772171079	1.1096924311560903	29.22844360276114
O	0.5959239555454237	2.7456936973330834	29.29922169943295
O	-0.006783397413835157	3.837405682417297	29.90087171281937
