91

O	-1.0514995022272728	1.5249727715621213	3.028394119015151
O	0.3922160887727272	3.250617873562121	2.4364486090151516
O	1.3543871787727273	1.4362975645621212	2.2761983990151515
O	1.968187488772727	-0.7739063464378789	-0.20490277098484855
O	0.6690785587727271	-2.292883936437879	-0.6299594499848487
O	1.6190177587727272	-0.2749636644378789	-1.4286561059848486
O	0.050364725772727215	-1.8011201564378791	-1.7731161499848485
O	4.152427238772727	-1.264234396437879	-4.759758980984849
O	0.21986773377272717	1.9415672135621214	-0.3592952269848486
O	0.18165231077272725	-1.263744106437879	1.5285701790151516
O	2.074579158772727	-0.9387288064378788	-5.5575316109848485
O	-1.5069281562272727	0.9751315635621212	0.07090407901515139
O	-0.4709365142272728	1.0641403415621211	-2.8269664809848485
O	0.2941198457727272	-0.9115341864378789	-4.247576580984848
O	1.1533557587727272	1.093891887562121	-4.127751710984849
O	0.3356910387727271	0.34268421056212117	-3.6499861909848486
O	0.6663257887727273	-1.193280546437879	0.28223649901515135
O	3.3751020587727267	-0.8225058164378788	-5.768766290984849
O	0.12906899377272718	-0.5286487664378788	-1.5747232719848485
O	-0.6339764053272728	1.7243827335621211	0.7396387090151515
O	-0.26212428122727277	1.3381990305621212	-1.5163264949848485
O	1.641405708772727	-1.4266458164378788	-4.4262563809848485
O	-0.03265491622727279	1.8768928335621213	2.0663834590151513
O	-0.9721381492272728	0.34925643556212116	-0.9752037720848485
O	3.0010710487727272	-1.940503996437879	-3.6820310409848487
O	-1.5931107032272727	1.4126925315621213	-8.435080590984848
O	-4.318899561227273	1.9263117435621213	-5.719867040984849
O	-7.222391541227273	-0.40452114643787895	-6.713302620984849
O	-5.075339011227272	-2.343784246437879	-9.201425950984849
O	-2.4213443212272727	-2.518765896437879	-11.969239100984849
O	1.352246538772727	-2.611198316437879	-11.489934500984848
O	4.198078238772728	-4.317286966437879	-13.231210000984849
O	10.345461478772727	-5.568283006437879	-7.526404650984849
O	7.044319418772727	-4.151098726437879	-8.213211300984849
O	4.012677278772728	-6.407710606437879	-8.316829730984848
O	0.38280692877272726	-5.123726726437879	-8.040743970984849
O	-5.759055941227272	-6.073874696437879	-7.213854550984848
O	-8.623816761227273	-5.259438296437879	-9.650363090984849
O	-10.867553621227273	-7.597243206437878	-5.036216000984848
O	-13.510646821227274	-6.878128746437879	-0.1859943089848486
O	-13.032659221227274	-4.957977936437879	3.0069578090151516
O	-10.545687291227273	-2.551177676437879	1.1681716090151515
O	-8.562285961227273	-5.593336286437879	-0.0197008009848485
O	-8.283763311227274	-6.821264596437879	3.4829787290151515
O	-7.485594551227273	-3.4300189664378786	4.844138489015151
O	-4.5823932512272725	-3.084281316437879	2.3808864490151516
O	-3.1956822812272727	-6.456695556437879	3.0097489990151516
O	-3.362516701227273	-5.994567106437879	6.816460899015151
O	-1.6891701312272729	-2.540241626437879	6.6259006490151515
O	1.1078452987727272	-3.699568416437879	4.361196429015151
O	1.8323028087727269	-6.695426036437879	6.529199109015151
O	2.259756638772727	-4.494089796437879	9.55795609901515
O	4.584969678772728	-1.7472084264378789	8.075338929015151
O	7.193325208772728	3.200760103562121	4.167033979015152
O	6.244642318772727	0.6689440104621212	1.4560221490151515
O	5.7884389087727275	-2.743381106437879	3.083165219015151
O	5.248676438772727	-6.213267696437879	1.6981996990151516
O	7.934203448772727	-8.314305816437878	0.14731822901515135
O	1.1447070287727272	-7.635257266437878	-3.6121006109848484
O	4.964041768772727	-7.3678825864378785	-3.995868060984849
O	7.080118858772727	-4.539470966437879	-2.7866781909848486
O	10.336965078772726	-2.703209206437879	-3.7004165909848483
O	10.466217578772726	-0.9988703164378788	-7.1012822309848485
O	11.539307878772727	2.581452043562121	-6.592383660984849
O	8.003361998772727	7.665427323562121	7.57090074901515
O	6.097737028772728	5.694443893562121	12.072335199015152
O	2.7435813787727272	5.500295953562121	10.33285009901515
O	2.416310548772727	5.993613043562121	15.788199199015152
O	-2.7817641712272727	5.218611033562121	10.857670199015152
O	-3.276202591227273	8.385921243562121	8.835075229015152
O	-2.332957451227273	8.725793403562122	5.097473089015152
O	-5.038487851227273	11.208668033562121	4.245896829015151
O	-4.004109041227273	11.669376333562122	0.5911966290151514
O	-0.32615497322727277	12.361920933562121	0.7393719590151515
O	0.8679639687727273	13.942166733562122	-2.5560766409848483
O	3.9875795387727275	13.936933333562122	-4.766010490984849
O	2.556490988772727	8.617504063562121	-3.9408595209848487
O	6.000864638772727	9.249462063562122	-2.7347913509848487
O	8.117082828772727	6.622936533562121	-4.499788020984848
O	11.709589278772727	7.752608193562121	-4.9509024809848485
O	9.041798328772726	5.512561833562121	0.6202413990151514
O	5.467123848772728	6.552710963562121	1.3431359890151515
O	2.901461558772727	4.666261543562121	-0.7575230989848486
O	-1.0511971182272728	4.416938013562121	-0.8054084399848486
O	-1.4774872892272728	5.503578003562121	3.024524239015151
O	-4.3935516612272725	4.200581733562121	5.195201759015151
O	-6.475955831227273	3.589687053562121	2.103554789015152
O	-8.392117871227272	6.903520693562121	1.4324016990151514
O	-13.744381021227273	-10.538172466437878	4.348138729015151
O	-7.883032231227272	-12.006199266437878	3.428221629015151
O	-3.662744671227273	-13.300751366437877	5.726404719015151
