35

O	-4.9230422786056565	6.28660057306436	12.95298912591799
O	3.5712096658061756	2.737742186477833	13.069035211423621
O	2.4474584166037148	2.728689749248962	11.250023003395365
O	2.3491064390243466	1.2703766346341367	12.82358553626897
O	-2.1323666924545766	-1.2903318484881976	24.412406882414075
O	-2.5323400474262647	-2.587853363086691	24.08921751128013
O	-0.9316935431538287	-0.7487803292151693	23.815960399990715
O	-3.3774358068103965	5.0132762385427485	12.74872629618352
O	-3.4381744941599766	6.262709501337447	14.694535582506914
O	-2.579388542231303	4.266729389683952	13.569972242330188
O	-2.1485753279016735	5.813106923833255	15.065952445599052
O	-1.3901432358735613	-2.1735297253247357	22.22902186103733
O	-2.3631244943390293	-1.1923105681120627	19.655262729504948
O	0.2741232012420627	2.4241519123429582	14.321482359629224
O	-2.6042197140121894	0.8256790528869525	22.23754415049889
O	-3.609259105587038	0.508109344867933	20.96486227732795
O	-0.9823817630672422	0.4139185082196326	21.553483195292504
O	-1.299139730394448	2.5494501032019077	16.77120423592058
O	-2.4738748288121957	-2.836001949293124	22.75113214244241
O	-1.5640672136693607	0.7811081543159644	19.692953448225868
O	0.5530950760904094	4.372705553808039	13.485206081985988
O	-1.6879824901900387	3.291508987415512	15.69567338333394
O	-1.7743245428117624	2.735842566082108	18.045350149677827
O	-0.354411616109614	1.7707068798201924	16.781730864693966
O	-1.6712288486136837	1.5846948869007225	21.32505011451455
O	-2.0506886003442224	-0.20188286646278364	17.981432955232158
O	-3.4831326001865826	6.338708720702426	13.265976401034894
O	-1.5466680957317729	-0.8075772346966246	22.493445178736643
O	-2.679481540996953	0.05231906334851999	19.995105374385425
O	-1.541478414808557	5.254241980489072	13.913676868237463
O	-0.5999756216934389	3.291816541730627	14.798336036717776
O	1.0700003812353303	3.1639388962622395	13.447984963441273
O	-2.0571664174485864	1.4476123721403868	18.536916371462826
O	2.140362635164608	2.700848727573943	12.682902501007991
O	-0.3977598523110317	4.495191774130371	14.332605912497005
