84

O	-2.8937090036109088	3.1755595880999996	-0.8446632331909097
O	-1.9477453436109091	4.1891720680999995	-0.5078134880909098
O	-0.8599160466109089	4.0488538280999995	-1.4835729440909098
O	-2.341085443610909	1.8989465601	-1.1914348380909097
O	-0.877961020610909	1.7400045847999999	-0.9880608500909098
O	-0.13546153201090894	2.9699406580999996	-0.9326457170909098
O	1.218506966389091	3.1375374381	-1.2038361070909098
O	1.854859936389091	1.9083473341	-1.27128805109091
O	1.162138956389091	0.6714452580999999	-0.7913854024209098
O	-0.23188465661090896	0.5047432780999999	-1.4305531120909096
O	1.875369026389091	-0.27097752190000013	-1.50057043809091
O	1.919694396389091	-1.3942903119	-0.7724070228909098
O	1.5750876763890909	-1.3707095518999999	0.6858770819090901
O	2.1239833063890914	-2.7191629618999995	1.1561429319090903
O	2.1429458663890912	-3.6987981819	-0.02695236409090984
O	3.339586386389091	-3.2789556119	-0.8869174319909098
O	3.369859426389091	-1.7815260819000003	-0.8110909440909098
O	-2.320896933610909	5.5233465781	-0.6701621150909098
O	-1.536864793610909	6.5908484381	-0.19842697509090979
O	-2.342621253610909	7.7608448781	0.29680868190909016
O	-1.5702233936109091	8.9950464681	0.5816024319090901
O	-1.952061533610909	10.2478157381	0.3159090219090902
O	-0.399303254610909	7.1757609181	-0.9685767040909098
O	0.45000275238909104	8.1561593181	-0.16336642709090976
O	0.7895873163890911	9.3372139381	-0.7725106993909098
O	3.1543959263890913	1.800721436	-0.8574287884909098
O	1.425950206389091	4.0717617581	-2.27208092809091
O	2.429888876389091	-4.9695205019	0.3343440519090902
O	2.261364076389091	-0.2685444719000001	1.1087684319090902
O	7.940404306389091	12.2469829281	10.27747203190909
O	-1.170132483610909	7.5934614681	10.12982583190909
O	1.374538176389091	8.5385578481	7.44232017190909
O	0.14702601838909105	8.575391678099999	4.09890508190909
O	5.915249366389091	3.9491041181	-1.3955388040909098
O	8.37883133638909	2.2166247071	-3.6989505080909098
O	11.656554756389092	2.1473451371	-1.6767049350909098
O	9.89546230638909	3.0327168680999996	1.5766479219090903
O	7.363151086389091	5.0702495680999995	3.5953380219090905
O	3.688270116389091	4.2050337181	4.00105791190909
O	1.280979456389091	4.5422299681	6.8894135119090905
O	-2.398454953610909	3.7424315381	7.06966464190909
O	-3.3829453236109086	1.6491639035999999	10.07400833190909
O	-6.232090323610909	-0.19419683190000003	11.71939703190909
O	-8.05134240361091	-0.8217987419000001	7.16515137190909
O	-4.505475053610909	-1.4985705119	6.00295140190909
O	-1.516252863610909	0.1434595380999999	4.48703323190909
O	1.849400996389091	-0.6168282619000001	6.08069206190909
O	5.123529176389091	0.12640038809999998	4.14239081190909
O	8.48529783638909	0.2773973181	5.95540090190909
O	11.32313925638909	-0.44415063190000015	3.57487985190909
O	-8.17895578361091	-9.062041071900001	-6.71998528809091
O	-6.6470642636109085	-6.3598214419	-8.96271931809091
O	-3.0133723336109086	-6.782109191899999	-7.8262715880909095
O	-1.532936863610909	-5.6271209119	-4.50587322809091
O	-0.4753476536109089	-8.614308771900001	-2.46024659809091
O	0.5460654093890911	-9.365205171900001	1.1223312119090902
O	-1.674823453610909	-9.265714071900002	4.10931464190909
O	1.243099016389091	-9.548585371900002	6.56794155190909
O	4.996944336389091	-8.9862504719	6.7309415519090905
O	11.11400775638909	-5.0846780319	6.77438244190909
O	7.452109866389091	-3.9222468818999996	7.0456794419090905
O	4.919566876389092	-5.0316445819	4.44101478190909
O	1.0743979163890909	-4.9274380919	4.95923422190909
O	-1.531134193610909	-4.7338210719	2.2548123319090903
O	-5.034683513610909	-3.3707563619	1.61906510190909
O	-5.490169403610909	0.3700825281	1.94166481190909
O	-7.256537453610909	1.5946274170999999	-1.1482293150909098
O	-6.817711693610909	5.2173732681	-0.3097703830909098
O	-6.485770813610909	7.0896757581	-3.63219010809091
O	-4.846375693610909	6.8867023581	-7.01326350809091
O	-7.458327263610909	11.3561934581	-7.55540096809091
O	-0.11179193101090895	7.027935508100001	-9.55097487809091
O	0.4109734063890911	3.3552058281	-9.03116160809091
O	-3.099474183610909	2.2741034521	-9.64103807809091
O	-4.745871013610909	2.2248991761	-6.20906431809091
O	-8.522208353610909	2.7350484480999997	-6.34421413809091
O	-10.984666143610909	2.6499212481	-3.40182411809091
O	-8.645727523610908	-1.0997467019000002	-8.530750288090909
O	-5.298120293610909	-2.8041291519	-7.66883162809091
O	-1.989642943610909	-2.5200520418999997	-9.53061245809091
O	0.9110618873890911	-1.4172703319	-7.3409570280909096
O	4.760043176389091	-1.4124859619	-7.66639218809091
O	4.899527276389091	-3.9278717019	-10.48475758809091
O	10.347775056389091	-3.3994767719	-9.54320934809091
