24

O	-2.522293634285963	1.4497564089634816	19.600633489865743
O	-2.449950859774985	1.6772229307619244	18.278802605358827
O	-3.3096868651057445	0.38456467122090654	20.256087991538497
O	-1.2090601253211295	1.614600391944963	19.898651821398733
O	-3.5639124138997236	1.1421590554162546	17.457627813863393
O	-1.6911367527479289	2.799673627708144	18.224890199716008
O	-2.948166542730063	0.03321324575625939	21.519138638324122
O	-3.6643135519218335	-0.6844475858374556	19.406593960195117
O	-1.1012562332933733	2.855101783791996	19.45229498518829
O	-3.1980479049989006	0.07179644192852119	16.705333835689437
O	-4.031425702882395	2.1681478928692584	16.701409533398593
O	-2.6361028088642176	-1.2765426633606103	21.75937979159397
O	-2.9586737091680133	-1.9033744109019803	19.5255650467615
O	-3.8493125128330155	-0.11205760825469469	15.516553033159477
O	-4.370135969957423	2.0920265669723253	15.34774863655134
O	-2.062790467520044	-1.800239020615225	20.608603262696455
O	-2.11188842484719	-1.7683392296276494	22.87941804329939
O	-4.149226779560812	0.924429101508983	14.678968024848766
O	-1.4097202062425933	-2.8170055262186042	21.025467797917543
O	-1.3001158066736656	-2.6845732474051847	22.36161014650822
O	-1.6444948776222188	-0.9929665948807077	24.08819151887836
O	-2.181858466845099	-1.719174554255988	25.277270156792465
O	-0.15034035827390735	-0.9654576786437352	24.252188143763423
O	-4.00349579331103	0.9405945094868139	13.345409983327706
