72

O	5.24673010535	1.024945628525	-1.9490369040500002
O	4.17016832535	1.764941524525	-1.8036765140500002
O	6.443076585350001	1.401083484525	-1.7345491540500002
O	2.0490195053500004	0.907458986525	-0.9717650180500002
O	3.9816506953500004	-1.122806965475	-4.07455041405
O	3.0270012153500003	1.0168243165250002	-1.8594576440500001
O	5.565300575349999	-1.153280665475	-1.5864644940500003
O	4.09863850535	-0.07948367047500005	-3.4346799540500004
O	7.72411095535	-1.8292602754749998	3.35654958595
O	0.7785662203500001	1.001608621525	-1.5088185000500003
O	5.1216298153499995	-0.15873660847500004	-2.51811635405
O	6.491579755350001	-1.735719895475	4.98680569595
O	-0.6439889146499997	0.612961985525	-3.33371253405
O	0.6806849113500002	1.0598316195250002	-2.91304363405
O	-5.8705115046500005	-1.587377815475	-3.9797695940500004
O	5.36518346535	-1.290997045475	2.6444133159499996
O	-1.9401066346499998	-1.469080675475	-3.73249887405
O	-5.291553874649999	-0.5849319854749999	-4.67980535405
O	4.658951555350001	-2.110353885475	1.7584458859499996
O	-3.9385675246500003	-0.6038225854749999	-4.651174544050001
O	4.071025485350001	-1.659287495475	0.4512020759499997
O	-3.9756858246499998	-2.836165195475	-4.50876122405
O	4.6321133553500005	0.019464835525	0.5500120059499998
O	-5.21275948465	-2.762947645475	-3.96656732405
O	5.08082807535	-0.13834522547499994	1.9223933759499996
O	-3.21825970465	-1.739531065475	-4.39059450405
O	5.1974115553499995	-1.067092425475	-0.1733942150500002
O	2.94422306535	0.574623083525	-3.13162986405
O	1.7036550753500002	0.401908295525	-3.45613213405
O	6.472671965350001	-1.6573750554750002	3.5763348859499997
O	4.13703847535	2.553625444525	-0.6698007080500002
O	-1.64592049465	-0.09510253947500003	-3.4039763240500003
O	-1.3196476946499998	-6.775142585475	8.78323416595
O	-2.1888427446499996	-0.689842785475	7.90816601595
O	-0.4864518246499998	4.473058614525	8.26334886595
O	-3.40089710465	6.822124564525	8.54338742595
O	0.4874691653500002	-13.070541885475	1.8344380659499997
O	2.56826869535	-11.477183685475	4.45579042595
O	5.50769818535	-11.539669885475	1.94193041595
O	6.34271696535	-10.493849785475	-1.6279624740500003
O	4.6011799053499995	-13.510903485475	-3.0390595740500004
O	-0.26837708164999985	-10.049562385475	-2.85931067405
O	0.7279047093500002	-8.461621295475	0.3002947359499999
O	-2.14506381465	-8.098607515475	2.8156338659499998
O	-0.8987343946499999	-5.136311545475	4.61751140595
O	-0.47683944464999994	-3.127573855475	1.3667743359499998
O	-3.49925756465	-3.8524191254750004	0.3159427859499997
O	-5.17844279465	-3.079171115475	3.47789962595
O	-3.32391688465	0.25470470752499996	3.75942074595
O	-4.74499534465	1.453340734525	0.6397516659499998
O	-8.06296296465	0.05152694152499998	1.42267697595
O	-8.35223906465	1.827236254525	4.64263481595
O	-7.620524904649999	4.921180584525	2.4758952159499996
O	2.36777258535	7.027163524525	-9.70748507405
O	4.21854708535	6.968731834525	-6.42261160405
O	1.0060704623500003	7.323031494525	-4.30859341405
O	-0.6321972146499999	4.707461984525	-2.0650960740500004
O	-3.8134989346499997	5.594347884525	-3.53768127405
O	-2.1905388646499997	4.952776594525	-6.95185035405
O	-4.18286340465	2.479876274525	-8.77392515405
O	-1.11289650465	0.006210963525000002	-9.61321827405
O	0.42244030735000015	-2.579246135475	-7.124344224050001
O	3.58856200535	-2.072211705475	-6.58940739405
O	4.7342266753499995	-4.533286815475	-4.24621065405
O	7.842412435350001	-2.722465375475	-2.87049154405
O	7.729482205350001	3.014328724525	2.1320838159499997
O	6.208942105349999	6.300605104525	3.5633763059499994
O	2.64343808535	7.367250314525	3.01556085595
O	3.30536916535	9.406801824525	-0.1339885150500002
O	2.66827278535	13.075969414525	0.15543029894999982
O	-1.9966129446499998	10.560420714525	0.20062734594999976
O	-1.0749720346499998	12.681461914525	3.23942609595
