64

O	3.4296898714772728	-1.6893633440454543	0.22246146667727212
O	4.209832451477273	-1.1405741040454542	-0.5991985203227278
O	4.405843741477272	0.28828723595454564	-0.6233985803227279
O	2.2415444814772725	-0.8609000640454545	0.30116568767727214
O	2.9661580114772725	0.2252873959545456	1.1211129406772722
O	3.7757018814772727	0.9912427519545457	0.2188221686772721
O	4.125566181477272	2.1418037659545455	0.8772128626772722
O	3.1544929214772726	2.5781097359545457	1.5391182596772723
O	2.6104720014772727	1.2504013729545458	1.8859432596772723
O	3.2309941714772727	3.893566035954546	2.099632009677272
O	2.276135471477273	4.400295225954546	2.828786509677272
O	3.4906604214772727	5.110193065954546	1.3843879516772721
O	3.9983941614772727	6.215001145954545	2.0664731996772723
O	3.0561444214772724	7.378276185954546	1.7641432096772722
O	4.416715031477272	-1.2839168240454544	2.2470484496772722
O	3.6159495614772728	-2.3280161340454546	1.591380269677272
O	4.368816931477273	-3.3954692640454542	1.836817479677272
O	4.410950381477273	-3.122455594045454	3.182678239677272
O	4.986091041477272	-1.8580543540454542	3.272601359677272
O	4.133481601477273	-4.601796514045454	1.072826327677272
O	1.1792280004772726	10.711371345954545	-2.038641060322728
O	-1.575341478522727	11.233800495954545	0.5628283828772721
O	-5.326632488522727	10.638893045954546	0.7577817276772721
O	-6.078077148522728	11.084323155954545	-3.245338590322728
O	5.646020501477272	6.865605495954545	-11.462530720322729
O	5.694628171477272	3.5593026759545454	-13.372007320322728
O	10.686522501477274	4.323940635954545	-9.825240120322729
O	7.449883581477272	4.005141635954546	-7.840963390322727
O	4.7721764414772725	1.5617055119545458	-9.026486420322728
O	1.5416571814772726	3.5765131259545457	-9.357765430322727
O	-0.6717270035227273	0.5630776359545457	-8.727898500322729
O	0.8842684414772727	-0.21969141404545423	-5.379145390322728
O	0.9978662434772727	3.3379355059545457	-4.051716030322728
O	-2.6123476385227273	3.9152089959545453	-5.343179270322728
O	-3.842029218522727	0.7290216909545457	-3.6356921303227283
O	-2.4045636485227275	1.9690501499545456	-0.3291919243227278
O	-3.8853338785227276	5.531160105954545	-0.8239516503227279
O	-7.309544138522727	4.1584546859545455	-1.6725441003227282
O	-7.1278784185227275	2.2393272509545454	1.614455189677272
O	-7.011893008522727	5.670081575954545	3.243382469677272
O	-1.6845582685227272	2.608608665954546	8.865546399677273
O	-1.1436460885227273	-0.8884825540454544	10.124828439677271
O	1.7224748914772725	-2.0337853340454544	12.323447279677271
O	1.7959806614772726	-5.3594147840454545	10.512300189677273
O	4.978865291477272	-5.266941204045454	8.427250319677272
O	3.318395721477273	-7.535776144045455	5.820242049677272
O	0.3057678394772727	-5.2153586440454545	5.255612459677272
O	-0.5787089595227273	-3.062734664045455	2.282371119677272
O	-1.3430701585227274	-0.35419821404545426	4.774404729677272
O	2.1318496114772727	-0.5283864540454541	6.247766589677272
O	3.7880244914772727	2.8043204959545456	6.224356259677272
O	6.877194461477273	1.8760847639545457	3.983593649677272
O	7.205900781477273	1.2304637659545457	0.11118332667727215
O	8.169365621477272	-2.326186954045454	-1.2154926103227277
O	7.533131641477272	-3.599671644045454	-4.757356260322728
O	5.735581531477273	-6.812049984045455	-5.538952350322728
O	0.3421800834772727	-9.414880584045454	-5.260425490322728
O	-2.5369513085227275	-10.534660084045454	-3.079273490322728
O	-4.163087318522727	-8.209119024045455	-0.5456408703227279
O	-2.6868999685227273	-9.165402684045455	2.840567529677272
O	-4.560343918522728	-7.675405334045454	7.802002639677272
O	-5.893994838522727	-5.281012144045454	5.165294849677272
O	-8.768061798522726	-7.638737524045455	4.314467019677272
O	-11.552272998522726	-3.0714970440454543	5.275750499677272
