82

O	4.263725883229412	-4.0705328262078435	-5.820685163062746
O	4.424750513229412	-3.951705806207843	-7.269746453062745
O	2.8563640932294123	-4.395744696207843	-5.417182253062745
O	2.783958123229412	-5.441381246207843	-4.400207833062745
O	1.1430835032294122	-5.696986446207843	-4.042325833062745
O	0.38359715322941224	-5.459133956207843	-5.243592073062746
O	0.7934420432294123	-6.957521266207843	-3.361917003062745
O	0.7411514232294123	-4.389650706207843	-2.896731523062745
O	1.5578301832294121	-4.570478406207843	-1.837554133062745
O	1.297181943229412	-3.8644307262078432	-0.6529482540627451
O	0.03009656322941212	-3.671017506207843	-0.20436212906274515
O	-0.7761423167705879	-3.443194856207843	-1.331245043062745
O	-0.5228196457705878	-4.039782406207843	-2.577667293062745
O	-0.22347974477058774	-3.132800516207843	1.166257036937255
O	0.866095063229412	-2.724122976207843	1.843604556937255
O	0.42517292322941214	-2.113141716207843	3.0488594369372546
O	-0.9933265987705878	-1.833639136207843	3.194914246937255
O	-1.1641430311705878	-1.187982764207843	2.0401507769372547
O	-1.0753831622705878	-2.019950906207843	0.9166742569372549
O	-2.0517419167705877	-2.826473126207843	3.747398636937255
O	-0.6777387737705878	-3.770752886207843	4.560244236937255
O	0.20725056322941215	-2.3387460462078433	5.374467966937255
O	0.5558999632294122	-2.594299036207843	6.587496276937255
O	0.2525393032294123	-1.878139786207843	7.703446226937254
O	-0.2919697287705878	-0.663185418207843	7.520430336937255
O	-0.6402537957705878	-0.27696958220784307	6.2531310869372545
O	-0.5943690377705878	-1.237463848207843	5.350733226937255
O	-1.5286529827705877	0.642489603792157	6.245591956937255
O	-0.5564973427705878	-0.047784921207843056	8.837283566937256
O	-0.8399934367705878	-1.020716733207843	9.668548476937255
O	-0.22915534477058774	-2.220351736207843	9.088228306937255
O	-14.881705596770587	-3.170903476207843	-9.148890693062745
O	-3.702780136770588	-13.141706456207842	-4.496842953062745
O	-0.08952920677058773	-12.393499156207843	-5.388993453062745
O	0.044171883229412234	-8.841417436207843	-6.660941043062746
O	-2.8410994367705875	-6.705775826207843	-5.464786733062745
O	-2.1562236867705877	-3.396328816207843	-7.287843703062745
O	0.6508348032294122	-1.244749089207843	-8.762157373062744
O	1.1947832332294124	2.400466493792157	-9.420231433062744
O	3.4931295532294118	4.472088473792157	-11.674828303062744
O	-4.081877366770588	-0.11962929520784304	-11.230162203062743
O	-5.945891446770588	-2.485281256207843	-8.909178683062745
O	-8.860773846770588	-9.718656216207844	-5.585061083062746
O	-11.825309896770587	-9.210270306207843	-3.2785101630627453
O	-11.902509496770588	-5.466360056207843	-2.434222103062745
O	-8.427906386770587	-6.392225616207843	0.9558630659372549
O	-9.467354766770587	-2.949545236207843	2.2469082369372546
O	-9.467762486770587	-0.6382965132078431	-0.7520081350627451
O	-8.722492436770588	2.495564633792157	1.272491596937255
O	-5.546739616770587	1.104994353792157	2.6829745769372546
O	-4.233260386770588	-0.40146161320784307	-0.5363790660627451
O	-5.101525316770587	2.764093283792157	-2.4073978630627453
O	-3.3196611267705878	4.960017033792157	0.1407843921372549
O	-0.11789989677058776	2.928124923792157	-0.4984982950627451
O	-0.48312934677058783	2.950619073792157	-4.207848233062745
O	-1.0616537234705878	6.726469863792157	-4.220997533062746
O	2.1671412032294124	7.073835393792157	-2.229796223062745
O	3.7849866632294122	5.6113959137921565	-5.356374333062745
O	7.429182733229412	7.450520463792157	-2.7793399630627453
O	9.010148303229412	4.019157443792157	-3.1395059030627452
O	8.931424803229413	1.253446723792157	-0.5172144310627451
O	10.155265103229413	1.8375403437921571	2.997614336937255
O	12.126196403229413	-0.567739572607843	5.192198926937254
O	10.135771403229413	0.47097577379215694	8.257008996937255
O	7.689939153229412	-2.352484536207843	9.013697426937256
O	5.185802653229413	0.12929777179215696	10.472525696937256
O	5.131953673229413	2.400886623792157	7.3826536169372545
O	2.2630173132294122	2.567921243792157	4.847744756937255
O	4.884900013229412	2.267373063792157	2.173303616937255
O	6.114542353229412	-1.037637283207843	3.6497937169372547
O	5.5978073232294125	-3.543196846207843	0.7721417739372549
O	3.337933363229412	-5.968612356207843	2.8806709369372547
O	-0.38423428477058774	-6.0071451562078435	3.291763866937255
O	-2.003925763770588	-5.619140166207843	6.9281512269372545
O	-5.404438746770587	-4.128541226207843	8.125360656937255
O	-6.1457825567705875	-1.243718028207843	10.496556196937256
O	-5.478772906770589	4.9321931737921565	11.080814096937255
O	-0.1817642697705878	8.220619153792157	8.457097806937256
O	5.664175743229412	8.213236483792157	5.318781136937255
O	9.054003003229413	10.860895643792157	2.9514594469372546
O	6.226283953229412	12.761307643792158	1.325091846937255
O	11.562609503229412	5.871280543792157	3.4745579469372547
