28

O	-10.592384016033053	26.548655975696228	47.58652831637079
O	-2.8903058523454743	24.44310079985732	55.21159791616519
O	-2.5068282366456502	25.041340251090677	56.34914084619806
O	-2.64307999973245	26.46914326439592	56.38506226041026
O	-2.2886160898967978	27.015849236593223	55.29686799629214
O	-2.8788178783824345	27.191994790196045	57.6394489394406
O	-3.5064334249536113	28.503628070874967	57.50955356420528
O	-2.9539267233691757	29.687114375950667	56.8395592410959
O	-1.5139683639296013	29.85891823939103	57.236028987656695
O	-1.2660887228791031	29.952830781118855	58.592901200895085
O	-1.8646296276817083	28.872162764159985	59.21267145714018
O	-3.360079238248907	29.09801788736211	58.944386643224746
O	-5.2406281727103465	28.23132176103135	57.35884162566698
O	-5.503063637038613	27.41219553911923	58.55666606637227
O	-5.848518771912109	29.519834647597	57.82594473017282
O	-5.843253480271653	27.579671884879026	55.87440753992886
O	-6.79287542028432	28.233457688450233	55.14554657898561
O	-7.392660624276049	27.720318941568674	53.99026419914358
O	-6.997653185095976	26.53093739201294	53.3977835496806
O	-6.320288755922938	25.830465479794817	54.34507457301525
O	-5.837108487418338	26.241908090964937	55.57511551734718
O	-7.907847529440419	25.825895421971	52.64671651729285
O	-8.302652495835533	26.414604436344398	51.48703439858412
O	-7.776623792877258	26.365210098469294	50.24840383638266
O	-8.66517817539099	25.908741656540595	49.25554844135729
O	-9.623428494516205	26.83194207541182	48.98911486874516
O	-9.947501873801263	27.422317535814457	50.157682546255174
O	-9.350305941098988	27.2675775995586	51.39384537910536
