17

O	-7.894791370753937	27.874831090548653	49.275487366040856
O	-9.1049262175333	27.49826910928799	49.69978350077069
O	-7.245086242513179	27.058498102728237	50.1594771299881
O	-7.89174059025943	29.247547096503805	49.059278643278645
O	-8.950881813629316	27.776429852738506	51.003375215547365
O	-10.095731833820114	27.801542669022368	48.70320931990176
O	-7.738123101280953	27.130927902181003	51.60472305003896
O	-8.902665389589645	29.793666095053233	48.38071936348988
O	-10.048121015228789	29.153775641560078	48.67955995726513
O	-7.026078689331704	27.958566022918262	52.56633421888847
O	-9.187070411754902	30.971499175730806	47.64402285067714
O	-5.894762694730821	27.536064284986196	53.20739199960449
O	-7.789636221133014	28.394964846898624	53.50908027723197
O	-10.24830502642975	30.89676752716776	46.603981123989016
O	-9.444191432768287	31.972899210686332	48.28759670789372
O	-5.754823708659872	27.212030281959642	54.60476879362
O	-5.913306178071466	25.744809241328152	54.87878392391562
