34

O	-2.3184375479310373	27.953782791150395	57.32571384027815
O	-6.105139124150985	27.925093781463495	55.69168335664478
O	-6.864215451155478	29.660670785046463	57.288746359528055
O	-5.839649994383622	28.581870737913633	57.13200421721214
O	-3.56328785928526	28.192980071916633	56.27047408476922
O	-5.49890136016101	27.73089393866608	53.110524479575126
O	-6.107614455132133	27.52766352677195	58.11591318736746
O	-4.152044193827658	29.195884767884625	57.11750073605308
O	-6.507257286538794	27.749108035919615	50.78241141619864
O	-9.605429539809407	26.71347741543549	49.456834566013654
O	-5.5082577387710465	26.768409212494536	55.38692100967129
O	-10.816346769133169	27.214857593153077	43.459916623827176
O	-2.4791138436031512	25.81925852737911	53.99603003506455
O	-5.690300013866054	26.618444178058958	53.93968085617255
O	-7.747969243489752	27.69893104347352	52.5572504641573
O	-2.8309253912581567	30.038402128378433	55.083096950614575
O	-5.5223814055058735	29.01916454469378	53.676783522655796
O	-3.297205342712736	26.814307275110725	56.115012895773106
O	-5.566941816389983	28.985702860748894	55.020664246438045
O	-1.767633024571336	27.811163821753738	54.99622266973249
O	-6.577788664081947	27.99979581859859	52.03231352254623
O	-7.4093781897616875	27.10667577220496	50.04597990806747
O	-8.674837111057016	27.17166202456508	50.39504611287239
O	-10.093999964483618	27.94927813660636	49.06189208936186
O	-9.298600610032125	28.17425962762069	47.82964540013101
O	-9.116632183849479	29.440122074021502	47.268556114441914
O	-8.409473531726851	29.38671312984348	46.13990038604177
O	-8.58556735801736	28.216769874140173	45.37892240238604
O	-9.821042046443733	27.608697418963203	45.61896976678852
O	-10.521118493939696	26.97197751924941	44.562795054725065
O	-9.758523725921187	27.22589934932428	46.95904803489395
O	-8.805602030680674	27.49080008108314	51.71369789490827
O	-2.474489702514322	26.629212280591656	54.98235500812124
O	-2.7329869964424325	28.826526105309746	55.31524587709979
