92

O	-0.3735983478245617	-6.949765378894737	0.9062973404701746
O	-0.4131691858245617	-5.708839428894737	0.9416549704701747
O	0.4863767481754382	-1.510323348894737	-3.8475541395298256
O	-0.3670917798245617	-7.484155828894737	2.1696781304701744
O	-0.05053183782456172	-0.720236934894737	-2.7865848295298257
O	0.6096408981754382	0.467643999105263	-2.6108278825298257
O	1.1982873881754383	0.9324587131052631	-3.7129265295298253
O	2.199279558175438	-0.04838432489473696	-3.9922000695298254
O	1.8063090681754383	-1.4064494888947368	-3.876806509529825
O	0.28977602817543835	1.6660818611052632	-4.698057719529825
O	-0.6133435277245617	-9.946411788894736	-0.12360429952982543
O	1.3059830281754383	1.265776861105263	-6.007493199529826
O	-0.1830710958245617	-2.8182307988947373	-3.5515344695298254
O	0.42593725817543837	-3.648675208894737	-2.6608016605298253
O	-0.18503789282456168	-4.766522698894737	-2.0802073345298253
O	-1.4344107538245616	-5.098841588894737	-2.4505899085298255
O	-2.174723731824562	-3.986101908894737	-2.6571039045298255
O	-1.5628307148245617	-2.9438705388947373	-3.385000679529825
O	-2.9360647918245615	-9.303746528894736	-0.3007951395298254
O	-1.8596528818245617	-6.763430818894737	-2.3610802285298256
O	-0.7663188275245617	-7.549804038894737	-1.3222635995298253
O	-3.200408641824562	-7.019272678894737	-1.8263703795298254
O	-1.8045459918245617	-7.358686528894737	-3.7157412795298255
O	-1.2657459938245617	-7.646504248894737	-0.0370277795298255
O	-1.6829011618245617	-8.991764208894736	0.4183893604701745
O	2.905908988175438	1.8212426011052631	-5.172582019529825
O	4.062068788175438	1.4755331511052632	-5.608242439529826
O	2.863663708175438	2.8978043811052627	-4.405421919529825
O	4.787527868175438	2.4425435011052627	-6.111443949529826
O	4.812474128175438	3.657941021105263	-5.493694609529825
O	3.6439906781754385	3.947961191105263	-4.7818033495298256
O	5.611019148175439	4.832208711105263	-5.881837089529825
O	4.832664558175438	5.911500661105263	-5.306044569529826
O	3.662021978175438	5.4585394511052625	-5.0797035495298255
O	5.770848278175439	2.1416821011052627	-6.764246879529826
O	-17.09059325182456	1.7424848611052632	-1.4249757035298254
O	1.8472192981754385	10.803522811105264	5.006760480470175
O	-14.425261851824562	-2.546906848894737	2.1667664304701746
O	-7.598982211824561	-7.699986408894737	-9.599520209529825
O	-5.174435541824561	-9.950241588894736	-7.720211279529825
O	-5.386926861824561	-8.888001668894736	-4.144721349529826
O	-6.119804021824562	-5.249562998894737	-3.6437759695298255
O	-6.060237421824562	-4.896692098894737	0.15064314047017469
O	-4.4752811818245615	-6.069175528894737	3.400541650470174
O	-3.7239952318245617	-4.713411658894737	6.801206750470175
O	-2.8941725118245616	-6.150656728894737	10.264266990470174
O	-7.110954831824563	-2.420293608894737	7.061439760470174
O	-9.372764471824562	-4.125422018894737	4.521594950470175
O	-9.811467621824562	-3.079782498894737	0.8973098204701744
O	-11.140121751824562	-5.292277938894737	-1.8581842985298254
O	-11.668826051824562	-3.399595208894737	-7.373099489529825
O	-12.522528451824563	-0.019212557894736942	-8.867867049529824
O	-11.297215651824562	2.607897521105263	-6.346559289529825
O	-6.732481331824562	1.9678236711052632	-8.200278929529826
O	-6.097251501824562	5.310101441105263	-6.402780989529825
O	-7.417218071824562	4.840404851105263	-2.8629793795298255
O	-4.942357761824562	7.310859691105263	-1.3640968515298253
O	-1.9049960518245617	5.451099261105263	-2.5712599815298254
O	-3.1495905118245617	1.894106691105263	-1.6403500219298255
O	-4.346424651824561	3.204593551105263	1.7634216404701748
O	-0.9422476468245617	4.897224291105263	2.4032228804701745
O	0.7333738281754383	1.508465821105263	1.9104669904701748
O	-1.7630148118245617	-0.48789527889473694	3.9186610704701748
O	-1.4777101278245617	2.056777611105263	6.797323250470175
O	2.282826378175438	1.5087942911052632	6.735904710470175
O	1.3624969381754384	-2.0621499388947373	7.702248210470174
O	-1.1322450668245616	-0.932560828894737	10.366293390470174
O	4.331200268175438	-1.798551858894737	11.915480690470174
O	6.110992918175437	-1.698023498894737	8.521490990470175
O	6.372579418175439	-4.790166828894737	6.295667400470174
O	7.412898828175438	-4.779973498894737	2.6638651404701745
O	10.596388048175438	-3.182801808894737	1.4465525504701744
O	12.912633548175437	-4.476922558894737	-1.2766581435298254
O	13.406569148175437	-0.962354448894737	-2.6355269155298253
O	11.411639248175439	-0.750627741894737	-5.847043379529826
O	10.873339548175437	2.985900641105263	-5.255301459529825
O	9.440353248175438	2.551868391105263	-1.7327550599298254
O	5.778221198175439	2.982716241105263	-0.8153728125298254
O	6.0591731681754375	-0.29609896989473694	1.0048483104701744
O	7.207593958175439	-2.175413828894737	-2.0973585695298254
O	4.556580718175438	-4.962319798894737	-2.5479399035298256
O	3.5842884381754385	-3.8490783188947373	-6.244918009529825
O	1.1496509781754383	-1.111561128894737	-7.5006059695298255
O	2.2753268081754383	2.208942931105263	-9.438894499529827
O	0.4084029281754382	5.6467501411052625	-9.819782869529826
O	1.8364879081754384	9.123792391105264	-8.936778559529825
O	3.927965018175438	12.547403411105265	-4.085654069529825
O	7.177255728175439	9.699681101105265	1.1259785604701746
O	9.771887448175438	4.430638441105263	4.154739090470175
O	11.498892148175438	2.586792231105263	8.388647890470175
O	8.713834498175437	4.403463621105263	10.164850690470175
O	12.739034848175438	-1.4543862088947368	4.705057580470174
