84

O	-2.917735397799999	3.9466191288080004	-6.02519837446
O	-2.9479267817999992	0.06933513780800038	-4.61958646446
O	-4.547356431799999	-0.6134487811919996	-6.38442797446
O	-3.5002393317999996	0.41280772480800043	-6.08701348446
O	-3.2140358217999996	2.6379129588080006	-5.06608795446
O	-2.955955195799999	0.5219377335080004	-1.9999098834600002
O	-2.3716047487999994	0.21708650580800043	-7.003043964460001
O	-4.1414196318	2.0889741288080006	-6.01925710446
O	-3.1303305687999994	-0.6244101811919996	0.25679203553999974
O	-2.1449645584999995	-3.7838042011919995	1.47155099554
O	-1.8270789447999993	0.6607689121080004	-4.19417738446
O	-3.0701748987999995	-5.358251301192	7.33208250554
O	-1.0339754017999994	3.6122478588080007	-2.5598774544600005
O	-1.7820017597999993	0.3940579448080004	-2.75300901446
O	-2.928026266799999	-1.7557206111919994	-1.5792763774600003
O	-5.154369581799999	3.2754114588080006	-3.9795786944600002
O	-4.198060221799999	0.5169304625080005	-2.6617193744600005
O	-1.8552944377999991	2.9108020988080003	-4.79211690446
O	-4.064174681799999	0.5534756284080004	-3.99957580446
O	-2.9575931837999994	4.358367488808001	-3.6631802644600002
O	-3.286320431799999	-0.6228527811919996	-1.0103855574600002
O	-2.529543403799999	-1.5612688111919995	0.9849564355399996
O	-2.5475255917999995	-2.8042001411919997	0.5580430255399997
O	-3.3984419517999993	-4.310059151192	1.74309140554
O	-3.727402431799999	-3.5927858511919992	2.99967913554
O	-5.034264021799999	-3.460088121192	3.47385792554
O	-5.076491681799999	-2.8213175411919993	4.6430365255399995
O	-3.963533671799999	-3.0286186211919994	5.4780302255399995
O	-3.3189970617999993	-4.240042611192	5.21195311554
O	-2.750983534799999	-4.994485461192	6.269876035539999
O	-2.838837806799999	-4.092633351192	3.91042698554
O	-2.7656679937999993	-2.8594649011919997	-0.7862600594600002
O	-1.7684229807999992	3.6662615988080005	-3.60225583446
O	-3.9303845117999994	3.4017118988080006	-4.11388169446
O	-5.633727961799999	-4.840184461192	-12.90654724446
O	-6.336600181799999	-1.1546208511919995	-12.396949444459999
O	-2.9965453457999995	0.3882801438080004	-11.307626044460001
O	-0.7852720517999994	-2.0142302811919994	-9.40931044446
O	2.0912526182000004	0.26318334680800043	-8.31048051446
O	3.1553683782000004	3.7672471788080006	-7.2996914544600005
O	5.831033978200001	5.455093938808	-5.26775272446
O	7.2754909682000015	9.004364388808	-5.02353370446
O	8.7580906582	2.7645814188080005	-6.21641626446
O	7.4576501582	1.2737005558080003	-9.45087739446
O	5.4063618282000006	-1.9281673711919995	-9.751807144459999
O	0.6377948982000006	-11.296616711192	-11.411847544459999
O	2.9250402182000004	-10.863032011192	-8.36234829446
O	-1.2051351967999993	-9.720109011192	-5.77656311446
O	1.0564935482000006	-10.270642611192	-2.86320982446
O	4.2925107882	-8.384036931192	-3.4714753644600003
O	5.061485628200001	-7.991343071192	0.24077857553999982
O	1.7283354782000009	-6.190649521192	1.0574322055399996
O	1.927045208200001	-4.007394561192	-1.9295070304600004
O	5.561268408200001	-3.1246203711919995	-1.4452897354600003
O	4.845176728200001	-2.3340843011919996	2.21343022554
O	2.4801066282000006	0.1521336708080004	1.4211094655399998
O	4.622546208200001	1.6323542588080002	-1.4373962274600003
O	7.463769468200001	2.0739916888080003	0.8366261555399999
O	5.115656928200001	3.9593676588080005	3.1673641955399994
O	4.793217268200001	6.464612688808	0.3439957055399998
O	6.553406428200001	10.258014888808	3.42501945554
O	3.170958798200001	8.694276278808	4.29977430554
O	0.09684085820000066	9.452473428808	2.30678298554
O	-3.1576095517999994	7.491319218808	2.5664856755399996
O	-5.036155531799999	6.899990468808	5.76104144554
O	-8.8190132818	6.990179038808	6.16662404554
O	-8.6407353618	4.032434698808	8.577537345540001
O	-9.9206596418	0.9581567038080003	6.67613924554
O	-7.596731621799999	-1.3938713511919993	8.490484755539999
O	-4.444157751799999	0.5452172714080004	7.779189295539999
O	-1.7103754937999993	-0.5795864711919997	5.5481517255399995
O	-1.7925929817999993	2.9328125188080003	4.18917576554
O	-5.595399941799999	2.6110894788080006	3.4270480055399997
O	-6.1827104018	2.9077960688080005	-0.18995082446000033
O	-7.754747281799999	-0.7533662411919996	-1.1060930464600003
O	-6.030733071799999	-4.252763091192	-1.3831252994600003
O	-6.540348721799999	-6.767916461192	1.2133094655399996
O	-4.570287921799999	-9.843112411192	1.7652561255399997
O	-3.3734547417999994	-10.944637811191999	5.091543435539999
O	0.4823987682000008	-9.365579201192	9.52540785554
O	0.5767009982000006	3.3665593888080005	10.250898555540001
O	2.1062984082000007	8.017915498808	11.070685755540001
O	5.6222017282	6.869910298808	10.405329355540001
O	-2.971507940799999	8.793508918808	8.901177555539999
