72

O	-3.4520986307727273	-7.244535008045455	3.144378267295454
O	2.062289389227273	3.125268351954545	0.6057697842954539
O	1.2594689792272726	4.190693991954546	0.7167297152954539
O	0.45636980922727277	4.271591431954545	1.875126217295454
O	1.0046672492272728	3.950514301954545	2.945156117295454
O	-0.6479385467727272	5.199014531954545	1.860953297295454
O	-1.8048588187727272	4.985114651954545	2.766071217295454
O	-1.5555554067727273	4.9425503219545455	4.234218617295454
O	-2.3196589807727275	6.037002781954545	5.004836367295455
O	-1.8715010987727272	7.342536061954545	4.747212767295454
O	-1.3965688067727273	7.288124091954545	3.421789067295454
O	-2.405135380772727	6.388621331954545	2.7047700872954543
O	-3.059872720772727	3.918963801954545	2.172232997295454
O	-4.209928820772728	4.043079831954545	3.161994757295454
O	-3.769627580772727	4.573362111954546	1.060262309295454
O	-2.7076283007727273	2.2302486339545453	1.990566137295454
O	-3.0982354007727273	1.324085309954545	2.9354267572954535
O	-2.6198052407727275	0.017457421954545138	2.908012187295454
O	-2.1169175607727273	-0.6237637280454547	1.812774247295454
O	-1.9371162737727272	0.34993570195454526	0.8217254132954539
O	-1.8413897397727272	1.6879484089545451	1.080701310295454
O	-1.7201075097727272	-1.887573228045455	1.667161227295454
O	-2.217231950772727	-3.0569244180454547	2.026041577295454
O	-1.6117294637727273	-4.189149408045455	1.555217197295454
O	-1.8412661857727273	-5.453249018045455	1.9947936972954539
O	-2.700284210772727	-5.688280988045455	2.9907695572954536
O	-3.120478300772727	-4.535390728045455	3.5327156272954543
O	-2.5353653707727273	-3.283088498045455	3.3637636372954542
O	-4.102149510772727	5.355530351954545	-11.844733702704547
O	-11.905723370772728	5.739358161954545	0.5296873622954539
O	-9.246237050772727	7.503780421954545	2.5919145072954537
O	-6.129181230772727	7.344583061954545	0.46584902429545394
O	-5.918140860772727	4.221846021954545	-1.682201182704546
O	-2.3936241407727272	4.680802901954546	-3.099236162704546
O	1.211489459227273	5.892555091954545	-2.559466662704546
O	4.685738839227273	5.077289221954545	-3.893712862704546
O	8.044846159227273	6.854135631954545	-3.949445982704546
O	11.170800729227272	5.2835015419545455	-2.4137948427045464
O	0.16396324922727268	5.818761861954545	-7.929134812704546
O	-3.2405216007727273	4.260599931954546	-7.303105972704546
O	-6.4151756907727275	6.224686481954545	-6.580265952704546
O	-8.869028960772727	5.559425131954545	-9.373867122704548
O	-11.471770770772727	3.4323421119545454	-5.342031012704546
O	-9.764985660772727	-3.188293418045455	-2.664100802704546
O	-7.691785000772727	-6.127825958045455	-3.904362702704546
O	-5.214429510772727	-4.630329198045455	-6.414815862704546
O	-2.6588340207727272	-7.3835162380454555	-5.812697542704546
O	-2.4745628807727273	-6.637370608045455	-1.998305362704546
O	-2.3281955007727273	-2.9500447980454547	-2.335714062704546
O	0.23581737922727286	-3.138470408045455	-5.223428642704546
O	2.431661809227273	-5.582664778045455	-3.243190312704546
O	2.4864527192272727	-3.0220696580454547	-0.333032375704546
O	3.139617249227273	-0.08558878804545489	-2.5922787027045464
O	5.960383489227273	-1.9145861380454547	-4.3668165227045455
O	7.498985399227273	-2.586532018045455	-0.9432799927045461
O	7.790416959227272	1.2217257669545452	-0.812900672704546
O	12.879496429227272	0.9531896409545452	-0.05500659270454605
O	10.619024529227273	-0.36183248804545487	2.7368603972954535
O	8.627456239227273	1.9685666779545452	4.983242377295454
O	5.802145389227273	0.8156931829545452	7.238852207295454
O	6.2324267392272725	-1.8359685480454548	9.850207567295453
O	4.7451804792272725	-1.8576483880454548	13.348714397295453
O	0.1447102492272727	-5.863868468045455	12.421201897295454
O	2.2618780792272726	-6.594603358045456	4.407657347295454
O	3.9845821592272728	-3.282152908045455	5.1383627872954545
O	1.5909656092272728	-2.5921110880454554	7.992248767295454
O	-0.17157082677272728	0.7009065749545452	6.887988297295454
O	-3.744246290772727	-0.7884631280454546	7.077950247295454
O	-5.5981321207727275	-2.945921638045455	4.492748387295454
O	-6.292476940772727	-6.514276128045456	5.136800887295454
O	-7.637503930772727	-8.950525248045455	2.6479136272954538
O	11.560236529227273	-0.07461637804545473	8.722726337295454
