75

O	4.568268444476192	-3.0977554996095247	-2.2366306747142857
O	3.721574084476191	-2.9761958996095244	-1.0656110492142856
O	3.2520077844761914	-4.376159609609524	-0.47267457771428567
O	3.605308124476191	-5.332546319609524	-1.5275618417142858
O	2.7067059744761917	-4.755221469609524	-2.5535255647142856
O	3.2161203444761917	-3.3188296796095242	-3.0154025447142856
O	5.4378790044761915	-2.1169185696095245	-2.9270795447142857
O	5.956161274476192	-1.3506470196095246	-1.8238420417142858
O	5.008601464476191	-0.6894388096095244	-1.2418271217142856
O	5.524860394476192	0.12367545139047564	-0.3117423977142857
O	6.7172373444761915	0.3525765513904756	-0.9243157260142857
O	6.997765414476191	-0.5473205696095244	-1.9203012747142858
O	4.783827754476191	1.4516833513904757	-0.27262724171428565
O	5.585094794476191	2.6284295503904755	-0.43728429871428565
O	5.364969634476191	3.5141665303904754	-1.5281220057142857
O	4.048329274476191	3.7112757503904756	-1.5814034437142857
O	3.2075101944761917	2.7245326003904755	-1.2759137787142856
O	3.474257064476191	1.6149297283904755	-0.5486750557142857
O	6.450315954476191	4.089595330390476	-2.3069516547142856
O	2.3217833444761915	2.3913749303904757	-2.4222298747142856
O	2.6756110744761914	1.8221941103904755	-3.463225374714286
O	1.2502007944761913	3.2924194803904756	-2.4669522347142854
O	0.07895237617619125	2.8788605403904755	-3.0641322347142856
O	-1.2340704555238087	3.5159770003904756	-3.0026595447142856
O	-1.8527319855238087	3.2451744103904754	-1.7596193577142856
O	-3.0628567955238086	3.9587314003904757	-1.6122174067142856
O	-4.0142172955238085	3.4746919703904755	-2.4527933147142855
O	-3.5036475355238084	3.2688447203904754	-3.7174427447142855
O	-2.2042309255238086	2.7446704203904755	-3.7471528247142856
O	3.547552784476191	-6.733484139609525	-1.2373308227142856
O	2.565142824476191	-7.498215569609525	-0.9889574095142857
O	4.2883008744761915	-6.989362379609524	-0.07341289571428566
O	-5.340849745523808	3.6389842303904754	-2.410769884714286
O	-3.7101619655238087	-10.302628719609524	0.28160960528571444
O	-2.022131695523809	-6.1981159996095245	4.779009655285714
O	1.3494812144761912	-4.218275629609525	8.647144445285715
O	-0.6774504275238088	-2.5565847196095244	11.263666465285713
O	-12.89515084552381	-2.3376969096095244	3.0879265652857146
O	-3.351138365523809	-8.347613809609523	-9.060251884714287
O	-1.0634627055238088	-10.155675019609523	-6.947391464714285
O	1.8365944844761912	-8.716253499609524	-9.174499744714286
O	3.079874014476191	-5.367132199609524	-10.555793804714284
O	0.46064012247619124	-5.451703719609524	-13.228579034714286
O	-2.7066772455238084	-3.452223989609524	-12.753515534714285
O	-3.233386365523809	-2.6697023496095245	-9.151516484714286
O	-1.8865077955238088	-4.664943429609525	-6.534416504714286
O	-4.327617865523808	-5.941841339609525	-3.9935965747142856
O	-2.7191021355238085	-6.0669249596095245	-0.8982527297142857
O	-1.4283247455238088	-2.3667734396095246	-1.2630945227142858
O	-4.384561795523808	-1.3836816496095246	-1.7307687957142857
O	-5.540392255523808	-3.2125918096095245	1.1833981752857143
O	-2.676241765523809	-2.0514789896095245	3.4700711952857146
O	-3.539197065523809	1.5473082003904757	2.7880146752857144
O	-7.092556005523808	0.7927003189904757	2.8023294152857146
O	-6.878993845523809	-0.7548923896095244	6.259900005285714
O	-5.181899505523808	2.4000311503904754	7.401605145285715
O	5.149107714476192	11.002549780390476	-0.7788600527142857
O	6.826034074476191	8.420830420390477	1.1448923952857144
O	3.8660268744761916	7.451836980390476	3.3713827852857143
O	1.5472029644761913	4.5381009803904755	2.977901445285714
O	-1.2778296155238087	6.856612110390476	3.6496420752857146
O	-0.10369082952380876	8.975128090390477	0.6666614352857143
O	-3.0121591255238087	9.130519540390477	-1.7264985647142856
O	-0.9651346055238088	7.743021110390475	-4.746087704714286
O	-0.16884504552380875	4.381452510390476	-6.089269994714286
O	3.2114844344761915	3.6279157603904757	-6.139898214714286
O	3.885350994476191	0.1835171683904756	-6.900943424714286
O	7.202002004476191	-0.16440310360952437	-5.326470964714286
O	8.60060971447619	-1.9093078796095244	1.9788087352857144
O	8.46039107447619	-0.9370674996095244	5.724981095285714
O	5.500063234476191	0.9044867513904756	7.093686705285715
O	6.802306334476191	4.518512920390476	6.883067085285714
O	7.351171024476192	6.408270350390476	9.986093365285715
O	2.1196844044761916	5.945756550390476	9.188283265285715
O	3.5945889344761914	4.398962360390476	12.369630265285714
