74

O	-2.789729395132499	0.01388300681818222	4.396120332113636
O	-4.956192355132499	0.9504650808181822	3.1963496321136367
O	-1.892151270132499	-0.7398164761818179	6.220343042113637
O	-3.735065535132499	-0.8137097961818177	3.9398117521136364
O	-2.974191495132499	1.2993683938181824	4.163345892113636
O	-4.487935495132499	-0.7266022061818177	0.7443719761136366
O	-4.475697335132499	-0.29614184818181777	2.9235109421136363
O	-3.293913985132499	0.9680157598181822	1.0123012771136366
O	-1.631506803132499	-2.098760106181818	2.0691759921136366
O	-0.37971718613249894	-0.6412649001818178	4.598168412113637
O	-4.2619473451325	1.6992019138181824	4.0220777621136365
O	3.028452244867501	-2.926739766181818	3.0086027921136367
O	-2.6579002851324987	-3.100536176181818	1.9075834331136365
O	3.9250179048675014	-4.155624056181818	2.9101511821136365
O	-4.015733825132498	-0.10358085818181778	1.5485078401136365
O	-1.952574607132499	1.302899956818182	1.2200749021136366
O	-1.071652187632499	0.2743385103181822	1.8210984961136365
O	-1.629482306132499	-0.40185121918181776	5.051518792113637
O	0.711581234867501	-1.0066070961818179	5.427367922113636
O	1.8331230648675012	-1.341643676181818	4.513901332113637
O	2.244799494867501	-2.6200143461818177	4.1170281821136365
O	3.681243364867501	-1.7887134361818178	2.657857942113637
O	3.149867374867501	-0.5546758801818178	2.7691428421136366
O	2.035889294867501	-0.4623082841818178	3.5261570721136364
O	0.11326529486750103	-0.20221532318181779	1.4203881863136365
O	0.4616844648675009	-1.5501225161818177	1.4284065384136366
O	-0.32165048413249897	-2.368884186181818	2.1806099731136364
O	-1.914445349132499	-0.8610392061818178	1.6974400871136366
O	-0.06437604513249906	-3.517790956181818	2.7630427121136365
O	4.899032994867501	-1.916473676181818	2.171513308113637
O	-1.807869642132499	-4.353486526181818	-10.232741017886363
O	-0.913168340132499	1.3578364238181821	-8.203254907886363
O	-3.335348025132499	6.002550243818182	-6.9176400878863635
O	12.420644944867501	1.5232286438181823	-4.497669277886364
O	11.266818244867501	-0.41870305418181775	-7.910890107886363
O	-1.078248080832499	-12.142979506181819	-5.107698217886363
O	-4.027593645132499	-10.105749606181817	-6.2801305578863635
O	-5.921979255132499	-11.048957406181819	-3.122783827886363
O	-5.381281415132499	-11.225042106181817	0.6208377381136366
O	-3.156034925132499	-14.285910206181818	0.49957976111363656
O	0.595906684867501	-13.846416506181818	0.6086388751136366
O	1.514475094867501	-10.314195606181817	-0.3507735478863634
O	-0.824300019132499	-8.171429706181819	-2.4244743878863635
O	1.134211704867501	-6.804491826181818	-5.4386834778863635
O	-1.1143928500024989	-3.727258856181818	-5.847172167886363
O	-0.669891038132499	-2.517225366181818	-2.5117909978863633
O	3.005374094867501	-3.096586806181818	-2.3281405278863634
O	3.490789934867501	-1.440161956181818	-5.574321487886364
O	1.5227676448675012	1.5973338038181821	-4.501904217886364
O	3.7267397048675006	2.154530273818182	-1.5248116478863634
O	6.964873504867501	1.402369213818182	-3.385344937886363
O	5.881421524867501	3.8714002138181822	-6.127885277886364
O	5.448449344867501	6.452842783818182	-3.4095102978863636
O	1.227277314867501	8.085912313818183	10.564666262113636
O	0.13290470486750094	4.445987063818182	11.103234542113636
O	-2.732018565132499	4.997156553818182	8.765533652113636
O	-0.537797543132499	6.239456563818182	5.845879562113637
O	0.4642650648675011	4.459564083818182	2.7019028421136366
O	3.906329834867501	5.264524393818182	3.3087104921136365
O	3.8495570848675014	3.723636453818182	6.800346142113637
O	6.709728274867501	1.2120334438181821	6.890408132113636
O	4.359090924867501	-1.7569802061818178	8.159597522113636
O	1.756797984867501	-4.121435146181818	6.150552132113637
O	-1.7457330731324991	-3.9611733861818177	6.246731142113637
O	-4.032387675132499	-5.6421177461818175	3.8188320121136368
O	-6.996462945132499	-3.639716536181818	2.6592383621136366
O	-8.7184250151325	1.3997289538181823	-0.2772135378863634
O	-8.510475975132499	5.176259103818182	-0.5900486578863635
O	-5.208502325132499	7.0400971538181825	-0.4975041178863635
O	-4.783511225132499	8.377123803818183	3.0222106421136363
O	-4.707907655132499	12.131710893818182	3.4788981321136365
O	-1.157669489732499	12.108919593818182	4.812632812113637
O	0.06196563486750106	10.615035093818182	1.5289226511136367
O	-2.0793905291324988	12.980780993818183	-0.5249661178863634
