20

O	-9.219174912278426	27.974044760185734	48.31703065359449
O	-10.089608944326658	28.1199527738282	49.214790452601356
O	-9.753348044379635	28.06132922327484	50.616269201689406
O	-8.347230265652321	26.894588426369047	48.73978564776126
O	-7.660578306832954	27.771086250432695	49.80629496121509
O	-8.543641661899283	27.867607636474535	50.93193267160488
O	-7.798341606436585	28.335434317117326	51.98328418537326
O	-6.664639103042081	27.80048259717026	51.98648128485602
O	-6.540924281127857	27.720096975592824	50.51771015432372
O	-5.823099788054414	27.963230633296003	53.13355497057443
O	-4.618998100391144	27.466605458948223	53.19436990134391
O	-6.1564942228050175	27.62884420906644	54.488625383574536
O	-5.478574131078239	28.248431899990464	55.537515355113726
O	-4.931765013507502	27.127420669958834	56.4188668316286
O	-7.8657224388510345	29.79992827889238	48.58512350518678
O	-8.367673333605715	28.938947540400186	47.50437055628878
O	-8.84450034466228	29.85701461385551	46.66992838586945
O	-7.660718670732214	30.554349611385867	46.67607058500514
O	-7.455811328402312	30.898088424120118	48.00927726503966
O	-9.747726805736324	29.438549632731107	45.61951910774912
