32

O	-12.649947956813563	27.540416898561787	44.47589459459985
O	-11.43319915902749	27.054031838419167	44.57914560714098
O	-13.279055157129498	27.747654699256003	43.38961368880301
O	-10.733601238638933	25.54200851276077	46.354243792930205
O	-12.721246720363197	29.078584668321735	47.36726644862005
O	-11.130680602381513	26.708828405144207	45.86714368372944
O	-14.43331466167597	27.268551947685587	45.78864298221855
O	-12.247215594889786	28.533594843723613	46.37231698541813
O	-17.563916040807747	23.329617723402325	43.73074816791
O	-9.657971626905532	25.621668202633177	47.21912379491773
O	-13.230164895683574	28.01359568089223	45.562198090387426
O	-17.027712429036356	21.381515696413423	44.05168760927139
O	-8.498907615973856	26.85426938393318	48.84461218353778
O	-9.218234384809337	26.91180541653069	47.5754888077001
O	-6.196754303729017	25.665293063179835	53.93006681257822
O	-15.387910569639235	23.215454320341777	45.00093365898742
O	-8.912468585373094	26.75742054180842	51.29276270130853
O	-5.755253484758785	26.536600853767148	52.99409704511302
O	-15.241613499872914	23.79769691688353	46.263723489136495
O	-6.71712673656668	26.964701666859526	52.14363941382144
O	-14.217366362336334	24.838393020798417	46.61851039884583
O	-8.237362411971473	26.779461873392727	53.774462077532256
O	-13.494163930356068	24.9632895401571	45.00476584322509
O	-7.454420400657394	25.85388595616964	54.37445983041732
O	-14.238181586534898	23.819490629750145	44.506929203486095
O	-8.049863270567716	26.94213444609921	52.4596823157027
O	-14.452914570665886	25.81582082477704	45.61915408805595
O	-11.071730318353469	27.871054083103115	46.55020491629196
O	-10.247985995920807	27.75603401638823	47.54134402587978
O	-16.627867551410915	22.70446236559302	44.34470554162823
O	-11.143973931667682	25.98900103826543	43.747970283492414
O	-8.26419328891955	26.57093165704075	50.01712579963987
