23

O	-8.471676315689441	28.175049229785504	49.69057789134804
O	-7.469528952991098	28.439786624177877	50.642938129948405
O	-7.38885452910359	27.78100696815931	51.92845463788104
O	-7.974693129668	26.61141414705599	52.38861680407342
O	-7.821895737394623	26.21118955848031	53.716456515069126
O	-7.606141018065202	27.195429783661044	54.693847972468966
O	-7.337195576571824	28.411362184737936	54.19279253953968
O	-6.696944273318952	28.445804173433373	52.94934732714536
O	-7.698005153188207	24.988038442309513	54.32382676135987
O	-6.627157520672747	24.588891134287863	55.13946185430062
O	-8.435331882158833	28.79967348779622	48.44404908683205
O	-8.432675301698618	30.081897078557027	48.444238467067855
O	-9.469127674668849	28.343988395691245	47.56071471437259
O	-9.452021087617737	27.11087471671908	47.08118805832541
O	-10.228385771506602	26.87190596778025	46.026620305435856
O	-10.284066668294042	25.72829612046983	45.28603019537595
O	-10.501296092879938	25.936891130925748	43.928109253032986
O	-11.348739785474248	26.97367370350627	43.55626858978434
O	-11.91789244371731	27.74618072785502	44.51281950192978
O	-11.202032858313599	27.780849890843086	45.70953678366041
O	-11.23804583632714	28.95695752811659	46.36451300245479
O	-12.166835138372608	29.72453920286268	46.193862272597514
O	-9.979427836938967	29.272241102690682	46.79467310689686
