67

O	1.3517283699999998	3.6836153605727273	0.20906442972727296
O	0.8349824999999997	4.002654630572727	1.4789317057272728
O	-0.5625021080000001	4.279135420572727	1.731214945727273
O	-1.6940953100000002	4.000684030572727	0.9796398657272729
O	-2.95057662	4.448463560572727	1.388825975727273
O	-3.0266334	5.609116700572727	2.174747495727273
O	-1.8405247300000003	6.029841710572727	2.6416698557272733
O	-0.8724068530000002	5.044457720572727	2.863097375727273
O	-4.2126868	3.9186842905727275	1.306619135727273
O	-5.0650189899999996	3.6732726105727274	2.3950109657272733
O	2.6999031099999997	3.357086630572727	0.06375682172727294
O	3.54865439	4.233372470572728	0.45853374772727296
O	3.0378482599999996	2.961752650572727	-1.272718534272727
O	2.5811484399999998	1.8267035225727273	-1.776600014272727
O	3.19637031	1.3687094495727272	-2.864582004272727
O	2.99294791	0.17120670057272735	-3.4842787442727268
O	4.1437242	-0.3981001094272727	-4.019305354272727
O	5.09047773	0.4514608005727272	-4.578991344272727
O	4.87302748	1.7887654867727274	-4.5741888842727265
O	4.01476302	2.216922087572727	-3.561344774272727
O	4.30187331	3.4249452305727273	-3.040031314272727
O	4.917939560000001	4.244102920572727	-3.696076984272727
O	4.215320510000001	3.3601267505727272	-1.677361914272727
O	-9.490538800000001	2.482282798572727	6.381656905727273
O	-10.173513380000001	-1.2386865694272726	6.497688435727273
O	-12.807127130000001	-1.3497700494272726	3.3625777257272733
O	-9.7000182	9.259675810572727	-6.6707419142727264
O	-7.995187469999999	8.465255630572727	-9.974464814272729
O	-5.12724463	12.963963950572728	-6.855229814272727
O	-4.98601369	9.584676980572727	-5.075562284272727
O	-4.54999425	6.438702460572727	-7.197285714272727
O	-7.38716844	4.099837780572727	-6.236969074272727
O	-5.4726594099999994	0.9611633145727273	-7.0962875742727265
O	-2.58193413	1.8367439563727272	-4.672694904272727
O	-4.66021038	2.8569964305727273	-1.785769874272727
O	-6.9996477399999995	-0.23293495942727271	-2.391376264272727
O	-3.9833313300000004	-2.4670558694272726	-2.384865894272727
O	-2.85236619	-1.2556338394272728	0.9501559757272728
O	-6.43903755	-1.4121687094272726	2.4387196457272733
O	-6.931957059999999	-4.937451709427273	1.2484835257272728
O	-3.6877776	-5.802377799427273	3.0486789157272733
O	-5.5712022999999995	-4.767370899427273	6.198645445727273
O	1.4994319399999998	-1.3230560294272726	9.035015405727272
O	5.150217560000001	-2.0889065294272724	8.289029635727273
O	8.165125759999999	0.008892190572727277	9.265312965727272
O	9.773920369999999	-0.5313892994272729	5.886369635727273
O	9.48493727	2.6626652495727274	3.8554607857272734
O	9.438847059999999	0.6738684005727273	0.662130170727273
O	6.5270541	-1.5509326794272729	1.707623915727273
O	2.98970654	-1.340026739427273	0.4764584417272729
O	1.87577756	-1.5817100394272725	4.074735755727273
O	3.9258900899999998	1.5305042185727273	4.9107414557272735
O	1.3252152299999997	4.008602890572727	6.395789395727273
O	2.3134192199999997	7.0116220305727275	3.9976848357272727
O	1.1647853899999998	7.237766540572727	0.17168258872727293
O	3.50349926	7.0737729005727275	-2.7265421142727266
O	2.61250848	6.776252340572727	-6.3982221742727265
O	4.144208320000001	4.1473398505727275	-8.633089424272727
O	4.44804692	-1.873788789427273	-9.466773354272728
O	5.556105420000001	-5.1759706194272725	-7.902007444272727
O	4.50585781	-6.185892869427273	-4.375301384272727
O	7.4864525	-5.400885719427273	-2.108682574272727
O	8.252240149999999	-7.167641879427272	3.038113355727273
O	4.5584823100000005	-7.441059179427272	2.160811795727273
O	5.03768302	-10.797478149427272	0.4550639397272729
O	6.69569466	-12.077511549427273	3.627450855727273
O	0.9618227399999999	-12.080885249427272	3.8157850857272733
