69

O	-0.1589217181860002	-3.3204132759599996	1.0886371744380003
O	-1.3513905291860002	-3.2069371759599994	1.7595786284380004
O	-2.5423784241860004	-3.5600230959599997	1.2999736384380005
O	-2.476753274186	-3.5655520759599995	-0.03325041756199959
O	-0.7598723721860001	-4.10978796596	-0.2476041455619996
O	-3.747252314186	-4.33215881596	1.8852848784380003
O	-4.069944774186	-3.6249584659599994	3.454693038438
O	-4.496172364186	-1.9042718059599997	3.1032830284380006
O	-5.086862484186001	-0.9369929639599998	3.7879597184380005
O	-4.118105974186	-0.00170416175999967	4.002590468438
O	-2.943989904186	-0.34597243095999963	3.339628428438
O	-3.486206244186	-1.2291500659599996	2.495010608438
O	1.162853835814	-3.5291471559599996	1.3946837384380004
O	2.414979115814	-3.6438283459599994	0.8372192044380004
O	3.2628345158139997	-4.61217304596	0.3667216058380004
O	4.576186715813999	-4.88483376596	0.7497339974380004
O	5.167183725814	-3.9783345559599996	1.5798097584380004
O	4.662283205813999	-2.6881336259599995	1.4445994884380005
O	3.316902935814	-2.6530944559599994	1.2344432624380004
O	-6.0704201241860005	1.5063684740400003	-15.836196501562
O	10.432590175814001	6.78063514404	-2.442965211562
O	-8.810529154186	3.8660694040400005	-10.787968901562
O	-8.645838794186	-9.57274056596	-4.973627831562
O	-9.536955984186	-8.51203094596	-1.4478284215619996
O	-9.177859964186	-4.74175795596	-1.4045029515619996
O	-6.521998734186001	-3.5329814559599995	-3.825688241562
O	-6.477369684186001	0.18433772804000034	-3.0420679315619994
O	-6.972153704186001	2.7748302540400007	-0.31046335556199955
O	-5.818239454186	6.2522559840400005	0.4662550214380004
O	-7.078392134186	9.08560360404	2.699753298438001
O	-4.782446624186	10.79408095404	5.247067738438
O	-5.558191204186	7.50379783404	-3.4396921715619992
O	-7.902255594186	5.07425323404	-5.171894611562
O	-6.8390868041860005	1.8732799040400003	-6.942213801562
O	-9.212297434186	-1.0341686689599996	-7.642948821561999
O	-7.216798674186	-6.02862332596	-10.044382901561999
O	-0.015165245186000154	-6.43890851596	-8.723681881562
O	3.009935735814	-4.14788681596	-9.170149921561999
O	1.5938766758139997	-0.6038920809599997	-9.396078801561998
O	4.787138685814	1.0222582340400004	-8.104517271561999
O	4.812982605814	-0.9661041319599997	-4.850960121562
O	1.161711655814	-0.5168231259599997	-4.2025844015619995
O	1.2299677158139999	3.1523110940400003	-4.982214291562
O	4.256903785813999	3.6259695340400007	-2.678501191562
O	2.231657385814	2.1450804840400006	0.2186203185380004
O	-0.7868111928860002	4.29130239404	-0.6667894295619996
O	1.1551471558139998	7.40481574404	-0.8174404315619996
O	2.505824695814	6.63463138404	2.6442433684380005
O	-1.0870295991860002	6.96435051404	3.7342246484380004
O	0.0858416098139998	10.65946265404	7.110310548438
O	1.4852836658139998	7.18056122404	7.811048948438001
O	-0.7272844151860002	4.35323702404	9.035286038438
O	0.18522065581399982	0.6697256590400003	9.078948798438
O	3.3297398458139997	-0.5441322279599997	10.802277798438
O	3.7682475558140003	-3.7599805559599995	12.770856698438001
O	7.167056485814	-4.41143023596	11.189685098438002
O	6.699031595814	-7.21789313596	8.609311208438001
O	9.497610875814	-5.81146700596	6.503451588438
O	8.077003105814	-2.2748194359599996	6.293631578438
O	6.409222965813999	-0.8602156969599997	3.172998338438
O	3.629398795814	0.3195469900400003	5.498340598438
O	3.0733021058139998	-3.3074609459599995	6.561071448438001
O	-0.36324853318600014	-4.32179143596	5.803406778438
O	0.19340360581399973	-7.31118514596	3.368202398438
O	1.3610336058139998	-7.44757876596	-0.3554940145619996
O	4.919083625813999	-8.41794420596	-1.0658983215619997
O	6.749949135813999	-8.12075174596	-4.348698401561999
O	10.293537175814	-6.90831894596	-4.486881821562
O	5.498670365813999	2.6921216240400003	12.543339698438
