19

O	-6.555397368976335	27.71690632848663	52.71919276453318
O	-5.520272559227987	27.99137088035469	53.57838247768501
O	-5.621966420094616	28.195506615617887	54.88312212222037
O	-6.752479151575706	27.618551841574067	55.29650785745644
O	-7.783206053661334	27.891011696927713	53.82913335281846
O	-5.032437437713964	29.22955200131345	55.86988938344712
O	-3.3130198852480683	29.296807659656864	55.5437227264318
O	-2.713521639720549	27.629288221327926	55.89854988423111
O	-1.5188670228111896	27.099144284141705	56.11085414240243
O	-1.290588345835478	26.28183793107411	55.04351171894723
O	-2.4112785648178785	26.21952704789514	54.22085830443672
O	-3.2932008756195303	26.68652287156432	55.1105259359568
O	-6.868675159580183	27.94168109841797	51.401748922897134
O	-7.831860562165782	27.713126670692265	50.446880893986474
O	-8.942437737475707	28.31841552003632	49.919470262546426
O	-9.216282332185802	28.63455915116323	48.5886815099486
O	-8.354042704564591	28.136795980114844	47.65657706158094
O	-7.731323045389809	26.955355895925585	48.04931660062779
O	-7.404444196954935	26.929868219473832	49.37141419553563
