28

O	-10.100308838168608	27.262382608053343	45.82848102618174
O	-11.017830030820766	27.71832315702197	44.94780843472504
O	-12.206724334232884	27.108118685341065	44.80138574159186
O	-7.735002995233971	27.372205485102118	52.328079699748216
O	-12.125799887775315	25.813348880180886	44.85478035621701
O	-10.929470335968105	25.246058271414935	44.892031735693045
O	-11.000625350371667	26.877656440437082	50.66857602739351
O	-9.998315572296923	25.97423373245447	45.57207129045508
O	-11.016309669622245	27.15445229112988	52.10724446851667
O	-8.112758450068537	27.470890979496556	53.75918218398197
O	-13.195170823714884	28.060188065177826	45.3542475576785
O	-13.151867129561989	28.019296412347867	46.75720854040777
O	-12.392616760038454	28.68944408699781	47.77155183008586
O	-11.920660115803278	27.542841145561162	48.61984317466875
O	-9.512713923291077	28.337871027050507	46.58539289861331
O	-9.241190930897657	28.240121479715082	47.92150282582786
O	-8.673888370925079	29.05091772348809	48.959852719231414
O	-8.017439167853691	28.186451741195597	49.99961664081291
O	-8.257279504080554	28.1971159917741	51.3684077991225
O	-7.546736873229056	26.162408832401635	51.79649338798462
O	-7.119831141529772	26.118119063291083	50.47126501000606
O	-7.869560794944932	26.889142520346923	49.62882118146331
O	-11.899907565608778	26.253345615435332	48.177110314651046
O	-10.746853175074246	25.57137929129343	48.63284492667724
O	-10.399417569431792	25.937798798471533	49.908925640760415
O	-11.608690506772597	27.726189084424888	49.890165639435736
O	-9.649885519249619	29.577280695573066	46.32075126851176
O	-13.294926072731037	29.253958432348718	45.01481947336469
