30

O	-8.108565062481713	25.158282971296384	51.56354149038472
O	-5.636415553148114	26.748721159394893	53.56370828477806
O	-7.082478408708314	25.474451737693354	54.52048972334916
O	-5.373615839472419	30.620144599843417	58.10110137257007
O	-6.251028217268358	29.63230030714773	55.22149043610453
O	-2.5420810285258377	30.66678444756358	55.47571473225529
O	-5.656660932044267	32.6391054990909	56.60232361226501
O	-3.7083914819759487	32.57478027670696	57.756377154182815
O	-5.200195948477005	33.79892721703516	55.98807106798988
O	-3.910968070271574	34.20302616754623	56.17147033300395
O	-4.199278687274099	29.2199284272269	56.6921294872341
O	-2.9588929968645603	28.711858190793947	56.79660541550769
O	-4.821709652392525	29.997060724443813	55.71161902994311
O	-2.5433260824111983	27.335126573254485	56.94328326580326
O	-1.2713846609557464	27.316581849663212	56.7829189946174
O	-2.8192155286050515	26.00728362873873	56.556420115544434
O	-2.110500851737075	24.998026259413855	55.953930900644764
O	-4.960771129718767	29.228394749528228	57.8562466092554
O	-5.9025720764813165	27.865145524043527	57.34033674777808
O	-3.1402511824390373	33.49130353007608	56.98704895750179
O	-4.820669216230453	31.791715464829647	57.345490830469075
O	-5.801420539114431	27.024957632054406	55.865342185752624
O	-6.900680951968117	26.261553588492824	53.41147536223875
O	-7.676320181077848	26.285372718837003	52.283543764594775
O	-7.229787218070834	28.43737327434773	57.45351341339452
O	-5.303505198454231	26.97846598815555	58.32455479189409
O	-4.989087952189861	27.017918392835973	54.7324087815371
O	-6.673163543880957	25.980251148173142	55.78139544887199
O	-3.8270848300199916	30.321200855712192	54.84559337571174
O	-2.1189427584784495	29.86603377621456	56.59660952965764
