72

O	-4.457580710577273	0.5253655839545454	6.3636137017954555
O	2.6427904494227272	-2.1402486740454547	-1.6598697722045448
O	2.560902859422727	-2.870509444045455	-2.7819050082045447
O	1.6544160194227275	-3.9819425040454544	-2.7435058182045444
O	1.7115275794227276	-4.614289824045454	-1.6455194902045447
O	0.9823230894227275	-4.473554874045455	-3.951057468204545
O	-0.2577123185772725	-5.212372864045454	-3.732846308204545
O	-0.41431927857727247	-6.491327244045454	-3.0296067782045446
O	0.6620103794227274	-7.441580724045455	-3.475384408204545
O	0.7337534794227274	-7.681182434045454	-4.835093948204545
O	0.7982019894227275	-6.461201944045454	-5.481393988204545
O	-0.5523027533772725	-5.812810124045455	-5.1421568982045445
O	-1.5374882215772725	-4.0193203940454545	-3.525251318204545
O	-1.3738638905772724	-3.2136642840454543	-4.749493468204545
O	-2.7844200805772727	-4.760339884045455	-3.904767858204545
O	-1.5869797435772726	-3.1167677740454547	-2.0507009682045445
O	-2.6936147905772723	-3.1193901540454547	-1.2533252712045446
O	-2.8373972005772723	-2.3392851240454546	-0.10072221620454458
O	-1.8145611505772725	-1.5601011040454547	0.4173234817954553
O	-0.9212945645772725	-1.3711436940454547	-0.5892616642045446
O	-0.8224863005772725	-2.0032182240454546	-1.8166440962045445
O	-2.1341462305772723	-0.4550222460454546	1.1698563417954553
O	-2.718054270577272	-0.7044711930454546	2.371579481795455
O	-2.1790917405772725	-0.9341865110454546	3.5840570817954553
O	-2.603839470577273	-0.043479328045454624	4.588987051795455
O	-3.8948806705772725	-0.2732914361454546	4.9381697417954555
O	-4.561715570577272	-0.6041998100454546	3.8134706617954555
O	-4.054876680577273	-0.8292510620454546	2.5481042117954553
O	0.2860134624227275	8.093782015954545	-10.824133518204544
O	-8.610031680577272	-3.3847654340454545	-9.211263538204545
O	-5.830175720577272	-5.951845564045454	-8.804924728204544
O	-2.653513670577272	-3.9369835840454543	-8.330003768204545
O	-3.281978590577273	-0.6705921730454546	-6.498948318204545
O	0.31998791042272745	0.6265043009545453	-6.105331518204545
O	3.936441389422728	-0.4586165650454546	-5.463811228204545
O	7.111348329422728	1.1279406959545455	-4.064246128204545
O	10.817112359422728	0.38108068995454536	-4.322591678204544
O	12.952430259422728	-0.23489180204545462	-1.2075765082045447
O	3.8077044794227275	4.438398055954545	-7.9971528782045445
O	0.005153581422727482	4.513728825954545	-7.722643458204545
O	-2.3625595805772726	2.976968525954545	-10.284013388204544
O	-4.452583170577273	5.709027425954545	-11.780967678204544
O	-8.199284730577272	2.9237431459545453	-9.353289348204544
O	-9.243485120577272	3.3037973259545454	-2.0279570782045444
O	-8.181152850577273	5.827772705954546	0.6205758217954555
O	-5.023974160577272	7.520648705954546	-0.7415574072045447
O	-3.649546620577272	8.266831925954545	2.7309640117954554
O	-3.794572440577273	4.576274085954545	3.777404721795455
O	-2.3821367905772726	3.110623565954546	0.6100758117954553
O	0.3649237004227275	5.814607365954545	0.5749394017954553
O	1.2421955394227275	5.107327605954546	4.245799991795455
O	1.6735842394227276	1.3816233959545454	3.3169930017954554
O	3.6562891594227276	2.1455065859545455	0.22068823179545538
O	5.938509839422728	4.573132685954546	2.0640573617954554
O	6.619942429422728	1.8116511859545452	4.587065601795455
O	8.189724869422728	0.0626346099545454	1.5686807417954554
O	12.660685059422727	-0.4848641460454546	3.9874248617954553
O	9.702061059422729	-2.444117574045455	5.381856791795455
O	8.318350839422727	-5.484887284045454	3.6006707217954554
O	4.973679579422727	-7.081194864045455	4.373138351795455
O	4.074965619422728	-8.256139044045455	7.839608081795455
O	2.1676466394227276	-11.431121134045455	8.693926081795457
O	-3.327903790577272	-9.028388664045455	9.925936421795456
O	-0.3865503165772725	-1.3431197090454545	8.201411931795457
O	2.147020869422727	-3.393760584045455	6.278320451795455
O	-0.21400780857727247	-6.323423064045454	5.964804661795455
O	-0.5406206881772725	-6.744777774045454	2.123645061795455
O	-4.337589470577273	-6.431649094045454	1.9379100717954554
O	-6.3135766305772725	-3.128271234045455	2.204025141795455
O	-8.365488130577273	-2.1625853240454544	5.170072481795455
O	-10.005935040577272	1.1425399659545454	5.7283612017954555
O	-9.809104210577273	2.9398492159545455	9.012055151795456
