82

O	-2.8105080789729158	-7.348672877297917	-1.0258104000625003
O	-1.485066658972916	-7.828907757297917	-1.3162624720625002
O	-1.027016824972916	-8.650391997297916	-2.4226941800625004
O	-2.0528399789729157	-8.969555537297916	-3.0459505000625002
O	0.09351012102708417	-8.145661517297917	-3.3221032000625
O	1.0826761710270842	-9.228088637297917	-3.5326607800625003
O	2.155197921027084	-8.937747827297917	-4.5281290300625
O	1.522110331027084	-9.964280607297917	-2.3101304200625004
O	0.5800600390270841	-6.926416107297917	-2.7343289300625004
O	-0.19461758107291585	-5.8152811672979166	-3.2668306900625
O	0.6825196510270841	-5.242991347297917	-4.0015565700625
O	-1.0028613819729157	-4.884111657297917	-2.4484758100625004
O	-2.166216208972916	-4.217853987297917	-2.7168405600625003
O	-2.026176028972916	-3.0079439872979163	-2.0072671700625007
O	-0.8822112289729158	-3.1207355172979163	-1.2156710830625004
O	-0.6288628309729158	-4.427980127297917	-1.2888867400625004
O	0.2701648620270841	-2.2123343972979166	-1.0869093606625004
O	0.41138218802708415	-1.0848579482979166	-1.8154664680625003
O	1.4255035610270843	-0.2603272742979168	-1.2769453090625005
O	2.642804471027084	-0.6823395742979168	-0.9036122491625004
O	2.450974861027084	-1.7802346472979167	-0.10943719706250032
O	1.2540741610270842	-2.5076766572979166	-0.2111668600625003
O	3.695519421027084	-0.36347421029791677	-1.9458648760625004
O	4.885266721027085	-1.6744143672979168	-1.3697011120625002
O	5.514158101027085	-1.0676769172979168	0.2206823999374996
O	6.839290371027085	-1.0728822042979167	0.5070762399374997
O	7.5102430910270845	0.003145001702083261	1.0005223699374997
O	6.718065241027085	0.9533832627020833	1.5514757299374997
O	5.389722411027084	1.0078294827020833	1.2618155699374998
O	4.864806801027084	-0.016219757297916748	0.6273362499374997
O	7.589247401027085	1.6317743627020833	2.5385352199374998
O	8.743860221027084	1.8316002427020834	1.8986845399374999
O	8.780860641027084	0.8004556427020832	0.8435035399374997
O	4.790807491027085	1.9699878427020832	1.7846544399374995
O	0.017767299027084155	-7.547427477297917	-11.759738100062501
O	-1.1517260959729159	-9.812904867297917	-8.9806992500625
O	-3.800711818972916	-7.783329797297917	-7.093338530062501
O	-3.222236258972916	-4.0858075172979165	-7.2156925900625
O	-6.0137403889729155	-2.860685617297917	-4.9617860200625
O	-8.143980118972916	-3.5907572172979165	-1.9125183970625004
O	-10.114855078972916	-1.6894285972979168	0.6548930299374998
O	-12.912358738972916	-2.471908237297917	3.1302913399375
O	-10.976868938972917	-0.28086993529791676	-5.2301508600625
O	-7.969486668972915	-0.04125463329791673	-7.5449853500625
O	-2.3787745089729158	-1.9937679772979167	-13.6015975000625
O	-0.43779500697291585	1.0013384227020832	-14.898264500062501
O	-0.9687182959729158	3.8002668827020827	-12.3367386000625
O	4.313614381027085	1.2885343527020832	-12.9417427000625
O	2.570927551027084	1.6158195927020833	-9.5818521800625
O	2.592492561027084	4.972452572702083	-7.7978096800625005
O	-1.0338826889729158	5.846461722702083	-7.0574652700625
O	-0.20372710727291585	7.995381372702083	-4.0254912200625
O	1.692448121027084	5.141627822702083	-2.2507153900625
O	-0.9118652059729159	2.479206082702083	-3.0370688700625004
O	-3.749817118972916	4.736237032702083	-2.0718732700625004
O	-1.977384948972916	5.628218512702083	1.2023280299374997
O	-1.9164928689729157	2.0214494627020834	2.1590151399374995
O	-5.469037498972916	1.2810575327020832	1.0197015799374998
O	-5.062007498972916	2.7665225427020834	6.047139459937499
O	-7.397916538972916	-0.20493386429791677	5.533331569937499
O	-5.625366688972916	-0.7532206192979167	9.9763839999375
O	-1.2439132289729158	-5.324685187297917	7.6905938899374995
O	1.824312021027084	-4.807618707297917	9.8075755999375
O	4.733810241027085	-7.224044187297917	10.1929742999375
O	7.187933831027085	-4.317674687297917	10.2352672999375
O	8.916791621027084	-4.4226822272979165	6.8423627699375
O	9.383468561027083	-0.6169468362979167	6.9391524299375
O	5.700052351027084	0.1846706677020833	7.5522551799375
O	3.1486712510270842	1.744382962702083	5.2013268299375
O	0.8821702410270841	-1.1439091562979167	5.9692417299375
O	3.450777661027084	-3.812498257297917	5.1556547399375
O	1.810749891027084	-5.896535447297917	2.6095143699374996
O	4.261397591027085	-5.754753467297917	-0.2810382600625003
O	4.840467091027085	-3.0253759772979167	-2.9750126000625006
O	8.058380591027083	-0.5179143909979168	-2.9404915900625004
O	8.531756591027083	3.0612030727020834	-4.1872834200625
O	9.732221441027084	6.138869012702083	-2.3222752400625004
O	8.070602101027083	10.099955902702083	2.1846685099374996
O	4.5296514410270845	8.093907742702083	7.5996265899375
O	1.640901971027084	3.221735582702083	11.1457182999375
O	-1.501901808972916	2.033901012702083	14.7035149999375
O	-3.706801278972916	4.827735022702083	13.4530976999375
