77

O	4.059816634291778	-3.0265461177555553	4.7686255035355565
O	5.251893414291778	-1.118531955755555	0.5167575935355557
O	5.107306004291777	-0.30397288475555506	-3.5838142164644444
O	3.641911514291778	-0.3656974129555551	-3.609209856464444
O	3.7153827142917777	-2.4909851877555553	3.412576583535556
O	3.6085231842917778	-2.593944147755555	-6.160790646464445
O	3.1351732842917777	0.5970183422444448	-4.560753716464444
O	3.815108004291778	-2.126310077755555	2.2540222535355556
O	0.1843072892917778	-1.1796236137555551	-2.583133006464444
O	4.964704234291777	-3.2775335977555553	-4.1673556264644445
O	4.6479216342917775	-0.9517830787555551	1.7419171935355555
O	4.6214914342917774	-4.575481957755556	-5.6923371264644445
O	3.973627324291778	-1.0276912617555551	0.018994753535555686
O	0.5473888672917777	-3.2486570777555555	-3.0142606464644444
O	3.058742124291778	-0.01859435375555507	-0.052760316464444346
O	-0.42336152870822225	-1.449130447755555	-1.3980613264644444
O	2.486050544291778	0.05003862324444491	-1.2818421744644444
O	2.960085874291778	-0.8529962537555551	-2.158243976464444
O	3.1223651042917777	-2.144136297755555	-1.6821015864644444
O	3.377637394291778	-2.195423607755555	-0.34772386146444434
O	2.9549999942917777	-1.7020362377555551	-4.136609246464444
O	1.6792731942917778	-2.091779537755555	-4.583557696464444
O	1.7074701542917778	-1.3443955007555553	-5.860794376464444
O	3.054239684291778	-1.385414585755555	-6.578609476464445
O	2.395018964291778	-3.4656825977555554	-6.579588396464445
O	2.077731774291778	-3.4808123477555553	-5.114632386464445
O	4.644132094291777	-3.192361337755555	-5.415045536464444
O	5.541307294291777	-5.471075287755555	-6.0867869764644436
O	5.833121624291778	-5.140462057755555	-7.593423176464444
O	6.872942504291777	-5.732691497755555	-5.5815385664644435
O	4.7051917742917775	-6.707815737755555	-6.4671464564644445
O	0.9094894472917778	-2.048957197755555	-3.3702617964644443
O	-1.1119383757082222	12.024613062244445	-0.9982887455644442
O	-0.2516944017082222	12.772928762244446	-4.588916096464445
O	-2.661959845708222	4.288587402244445	-11.405537686464443
O	2.802718604291778	7.233223022244444	-9.123526146464444
O	10.911111864291778	8.303186632244445	-5.407374436464444
O	10.869348764291777	4.608361512244445	-4.538747766464445
O	9.016325944291777	2.2316069122444446	-6.674503716464445
O	5.392290714291778	2.4645918022444446	-5.634585196464444
O	4.740971234291777	3.5851660622444452	-2.2189333564644445
O	0.8984617372917778	3.712976132244445	-2.0514060084644443
O	-2.133185955708222	1.8253223022444447	-3.2662631164644442
O	-5.713551435708222	1.2227909222444449	-2.1718087364644445
O	-9.004636795708223	0.16639865724444491	-3.8033764064644444
O	-10.944400035708222	-2.9087109177555552	-2.6104749064644444
O	-6.091599525708222	4.773168952244444	-0.3023406374644443
O	-3.486240725708222	6.916359982244445	-2.0453901834644443
O	0.0985829081617778	7.460314712244445	-0.8476536534644443
O	2.994960744291778	8.539300132244446	-3.057497706464444
O	4.171162584291777	11.898299962244446	-1.9522659494644443
O	7.503551344291777	11.509928362244446	-3.6571084064644444
O	8.405339944291777	9.022698392244445	-0.9053337994644443
O	1.6628168642917778	3.6378159722444448	10.075361013535556
O	2.900533264291778	0.44090661524444485	8.624775943535557
O	2.0576707142917776	1.5720598522444449	5.138215633535555
O	-1.3548120057082222	2.6555880122444453	5.950042823535556
O	-2.096770535708222	-0.583904471755555	7.841458603535557
O	-1.2103114857082222	-2.5966029577555547	4.659168373535556
O	-3.143293855708222	-0.3143700302555551	2.430657513535556
O	-6.147037755708222	-0.4544805602555551	4.6386626635355555
O	-5.896390005708223	-4.239464767755555	4.392099803535556
O	-6.589893945708223	-3.670124837755555	0.7500378335355558
O	-10.827502435708222	-6.650377827755555	0.9642253535355558
O	-7.472094815708223	-8.344584567755556	1.5858400635355556
O	-4.994447325708222	-8.897850837755554	-1.2161290774644442
O	-1.3866107857082222	-9.836196677755554	-0.7328679604644444
O	-0.3586297137082222	-12.911124037755554	1.2333784035355557
O	1.3568035942917778	-7.531206777755555	7.125235203535556
O	-0.17168591170822223	-8.102568847755554	3.6982665735355558
O	3.1049756542917777	-9.476001677755555	2.276438533535556
O	3.6728311242917777	-7.004888267755556	-0.6515695154644443
O	7.198669594291777	-5.896139917755555	0.3203238935355557
O	8.278100354291777	-3.3371215377555554	2.6959569735355555
O	9.778902124291777	-4.221727437755555	6.100261383535555
O	-5.794100815708223	-13.917487137755554	-0.07896456646444427
O	-8.973341185708223	-11.971260037755554	-0.5595428094644443
