29

O	-3.8574282717486965	27.74174694410464	56.65771156280582
O	-4.781637049873919	28.070027056052982	55.69852159615739
O	-2.464126550112195	27.475762269595688	56.380183917210985
O	-4.07099388360745	26.543056829910732	57.45102042916001
O	-3.5620191061113107	28.851642570839587	57.69583451022041
O	-5.681510720654951	27.62279805041973	54.73952409184054
O	-1.6630556178455063	26.294151412234374	56.623342891904855
O	-1.8218218386993446	28.418910167497682	55.945213188226404
O	-3.7255655676312043	25.39598444145071	56.630108404278616
O	-3.5242797016848586	26.632983347161833	58.624479569792264
O	-2.20902241190789	29.321935892203502	57.96634753502764
O	-6.822275935727157	28.313108493575	54.2639478144316
O	-5.541305041547065	26.71987610574805	53.73595685195947
O	-2.426095744479725	25.160070548188855	56.16277625359356
O	-1.0754343791071577	28.71714437799554	58.39543641145936
O	-7.756753486933481	27.934924987293694	53.27803254754642
O	-6.388668394279255	26.494356075890263	52.63954801523737
O	-2.156072547274126	24.240135624827225	55.43075929319026
O	0.13003659074678087	29.37841080988358	58.24019359908603
O	-7.697531573341113	26.603082629281978	52.98209825333106
O	1.32236783936734	28.50402417538916	58.61456822891176
O	-8.49195423400949	25.898816616021737	52.100923566967616
O	-8.658271783183448	26.565299413380906	50.93410524580753
O	-8.38385655795265	27.885975507295207	50.74651284766617
O	-9.87177705870102	26.257879725531083	50.31069083056685
O	-8.6451430855793	28.385780080823906	49.510669011582266
O	-9.91808885124026	26.585588720305157	48.956162614147104
O	-9.229807242686583	27.651617099730437	48.536606341829646
O	-9.667837868160348	28.348066685904563	47.43514331348881
