28

O	-7.9428921489969575	27.53891860627754	54.242904072447025
O	-2.8897929355353424	25.321684376485734	56.231397216512605
O	-2.3153384596710422	24.463071330988896	55.37572638385267
O	-5.301045203022441	28.260707021900092	57.19451905470597
O	-6.019655059963555	26.590488538034677	53.753028421497184
O	-1.9314028888635524	27.09597768441808	55.228588794364725
O	-8.81201205454752	25.97087202767911	50.19538213539794
O	-5.285211382145306	27.292661147300272	58.31367281819785
O	-8.389508213088478	28.11959190045153	50.583859598918636
O	-5.931396255374815	29.509646795234396	57.71156770905728
O	-7.242638022860841	28.305253732499416	55.184490405411275
O	-0.958943865840685	28.027137714542818	59.95409028816133
O	-5.607015775584371	26.74166610219288	55.04717264305819
O	-7.750799533354613	26.39515179350353	52.19165595432162
O	-9.593081264930587	26.278860829265998	49.12182222001754
O	-9.489919659503748	28.38832694308345	49.77396587942431
O	-1.3822427542781561	28.418268363799807	57.681552013883945
O	-2.7198426462966747	27.013740266522735	58.76484128784818
O	-1.4513162780008182	28.976259282364	59.07393357869979
O	-1.3641627833601992	26.801627282028385	59.44022083974484
O	-3.6142929840146403	28.665456095020577	56.98768417926922
O	-7.15667206767092	27.134784259270248	53.15608630429798
O	-8.387009402402335	26.873746148270534	51.15044506693374
O	-6.122092720769525	27.787564977386463	55.760825239855
O	-10.230245211955987	27.47744792262257	49.10142460828298
O	-2.537780177747087	26.68200859787065	56.26503410521491
O	-2.6342457766282434	27.60699341409797	57.396838751224955
O	-11.234659540965147	27.989726282338324	47.768989712981806
