88

O	0.9485034728431383	2.163692586843138	3.2760553520392155
O	0.6291047528431382	0.8461637758431376	3.4992667720392157
O	-0.7171581941568619	0.5789384108431377	3.2335851320392157
O	-1.4098640291568618	1.5023006078431376	2.4568296720392153
O	-0.4794727771568619	2.0559263978431375	1.5543505230392154
O	0.819111632843138	2.2999023558431375	1.9783512550392155
O	-2.352648777156862	0.7736142628431376	1.5164688670392155
O	-3.108526007156862	-0.28787292915686247	1.7837024320392154
O	-4.417551907156862	0.22646008084313762	1.6140121210392155
O	-4.398939757156862	1.5081526088431376	1.0665415030392156
O	-3.096849197156862	1.5852748018431375	0.7757041840392155
O	-4.979779637156862	2.646175670843138	1.8082710280392154
O	-4.3849564671568615	3.7694283208431374	1.6701073120392156
O	-5.634841817156862	2.747193360843138	2.994169802039216
O	-4.778074047156862	3.340308520843138	4.106913832039215
O	-4.599210287156862	2.0608291578431377	4.865381952039216
O	-5.889033627156862	4.161937430843137	4.646697462039215
O	-3.6745132271568615	1.0271656298431378	4.707635412039215
O	-5.720622777156862	1.6940336317431377	5.227898002039215
O	1.7269557828431383	3.0349164408431375	4.100145452039215
O	-3.2809289771568615	0.4327308308431377	5.992517192039216
O	-5.622480497156862	5.617490210843138	4.775025302039216
O	-4.514968917156862	5.763563310843137	5.829722722039216
O	-3.6050319771568615	4.495517260843138	5.818413772039216
O	-4.3840370771568615	3.5641806308431376	6.686093192039216
O	-5.772009207156862	3.7361215208431378	6.135979792039215
O	2.642381262843138	2.2176724748431376	4.776743202039215
O	3.7685725428431383	3.0170782908431377	5.273770852039215
O	2.265176072843138	1.1093266808431377	5.138691782039215
O	4.577139562843138	3.4412906308431377	4.308330952039215
O	4.589408392843138	2.4674952808431376	6.198783212039215
O	5.775707812843138	3.213939880843138	5.987195412039215
O	5.829845232843138	3.108040750843138	4.5901518920392155
O	6.978738672843138	2.8990415708431376	3.8781300120392155
O	8.143633522843139	2.8722834508431374	4.5895901220392155
O	8.100488032843138	3.5772451308431377	5.794750412039216
O	6.983758042843138	3.4040967208431376	6.610468292039215
O	-12.161246577156861	-1.2851446991568625	7.153000212039215
O	-12.466406377156861	1.4299353808431376	4.444141602039215
O	-10.851848067156862	0.0795757908431376	1.3535536550392155
O	-8.435777857156861	-2.730563889156862	2.0506348430392154
O	-7.332938257156862	-3.5542115691568625	-1.4924834579607844
O	-6.9451032571568625	-2.4059475391568625	-5.1281240179607845
O	-4.883045367156861	-3.3201437691568625	-8.132341127960785
O	-5.235762747156862	-2.6066824891568627	-11.850031237960785
O	-7.702345607156862	-7.744860709156862	-5.068675597960784
O	-7.592416277156862	-7.856764319156863	-1.2962227179607844
O	-10.655377357156862	-7.263085059156863	0.8798812160392155
O	-10.131735037156862	-7.234362769156862	6.7312319820392155
O	-8.003999177156862	-9.340029019156862	9.118872532039216
O	-4.745973447156862	-10.089068019156862	7.269750292039216
O	-4.694724307156862	-6.326067049156863	11.744102762039216
O	-3.1817082471568616	-5.424307059156862	8.364303872039216
O	0.18221702284313812	-6.820609449156862	7.413094872039215
O	-0.2942868881568619	-8.634707619156863	4.087834242039215
O	3.318924772843138	-8.112989959156863	2.9739689520392156
O	3.0892150028431375	-4.303421189156863	3.2692753920392157
O	-0.2572277681568619	-3.9267555091568624	1.6576459540392154
O	0.5674559728431381	-6.212647839156863	-1.0417001779607844
O	3.8753303628431377	-4.381307229156862	-1.6825258179607845
O	1.9598277728431384	-1.3327250191568623	-2.4268123079607844
O	-0.6907709061568619	-3.0394078991568625	-4.549002947960785
O	3.439256692843138	-1.2358633491568622	-7.221987877960785
O	0.12088177284313817	-0.5249661391568625	-8.934930837960785
O	3.0947498828431383	3.0142215808431376	-10.355696937960785
O	0.3619759528431381	5.341976690843138	-9.145404237960784
O	0.2929879828431381	7.125812500843137	-5.778038447960785
O	3.1474951228431376	9.339988230843137	-4.647625877960785
O	2.8161329128431376	12.591344380843138	-2.6925086579607846
O	5.845872752843138	11.722547680843137	-0.5394896679607846
O	4.405121832843138	10.750914680843138	2.9009032020392156
O	7.151941352843138	8.335106110843139	3.5319016120392157
O	6.786714522843138	6.4422374508431375	0.2043669880392155
O	5.455498962843138	2.8938447308431376	-0.055692327960784604
O	3.206356092843138	4.261928050843137	-2.875667537960785
O	1.820800012843138	6.948383300843138	-0.5221399879607844
O	-1.7814562451568619	6.307287220843137	-0.42744785796078455
O	-1.3437662601568618	5.906586690843137	3.5494068520392155
O	-0.8758411201568619	2.6440216408431376	6.039391272039216
O	1.4998590928431381	2.6021950748431375	8.328656632039216
O	3.079153732843138	-0.5386123991568623	9.915220192039214
O	6.777161782843138	-1.0386884491568624	9.837148862039214
O	11.215021722843138	-2.0030913391568625	6.143692212039216
O	11.75608122284314	0.48336614084313756	-0.035647707960784425
O	9.449336822843138	4.281677290843138	-5.0088411379607845
O	9.491013722843139	5.496457300843137	-9.855226537960785
O	9.82747662284314	1.8163883638431375	-10.601649237960785
O	6.229895672843138	9.471235060843139	-7.596065917960784
