30

O	-8.688966577598553	25.178673620157923	51.906966085369454
O	-5.940417977279395	26.953198764878255	53.56810430153533
O	-7.039915495058446	25.40302736294411	54.569058854752
O	-5.71873825236456	30.651371635102088	58.142710568691754
O	-6.688630761435148	29.68350831410377	55.299761319736845
O	-3.0466850122895517	30.877720113902434	55.462866946148154
O	-4.169413474859539	32.70807966536249	57.89149920783693
O	-6.068890071851267	32.69297219027605	56.63131839473926
O	-3.686508251981615	33.72896829579543	57.04554492642556
O	-4.653041423604672	34.466914975858145	56.42142540671979
O	-4.529696498599669	29.313035471550506	56.67038361465817
O	-3.2571183929580636	28.856131963260072	56.681929072811904
O	-5.253631539762284	30.063660676584092	55.736809124988724
O	-2.7384429234765224	27.510737047317978	56.79658693108572
O	-1.470816493308572	27.566638639921024	56.59810309130706
O	-2.936287009454119	26.16440337159741	56.42320612628167
O	-2.234503483478177	25.13377060500243	55.86556865456475
O	-5.2191832374186635	29.294109932808105	57.87605343265437
O	-6.071026459423741	27.870402081438915	57.373524778205194
O	-5.927454808156972	33.99959851625701	56.43564299321556
O	-5.257642751745446	31.90010963358127	57.46059737340953
O	-5.968931438560064	27.091273169693395	55.85248589194303
O	-7.093541990280317	26.229735618172977	53.47967692196746
O	-8.03093644466534	26.274397212207894	52.48508275423141
O	-5.373360307831863	26.965734932535938	58.270575923673725
O	-7.425404785495932	28.33867129813694	57.51332347582682
O	-5.210865752980195	27.21798705433891	54.68690094673699
O	-6.554724774462122	25.865351080088185	55.81805891184133
O	-4.302678432862605	30.417636192690672	54.8087329071325
O	-2.528597143279206	30.093403949281356	56.56544342775524
