88

O	2.4886447565000003	0.2375024232903229	1.712528998259678
O	-1.9548508235000002	-1.659361083709677	-0.8948901727403218
O	3.3299615065	-0.4073836937096771	2.5887097482596784
O	4.1474588565	0.16938718529032282	3.4869701682596785
O	4.1605511265	1.5345327032903229	3.577810458259678
O	3.0336412064999996	2.170236456290323	3.0515557982596784
O	2.2034848465000003	1.5757368802903229	2.0584203282596785
O	1.3201015064999997	-0.3732211037096771	1.3749561782596782
O	0.9566343565	-0.07610710870967718	0.0720216922596782
O	0.27450493649999985	-1.021922693709677	-0.5930595958403219
O	-1.1185160855	-0.6553303837096771	-0.6484251717403218
O	-1.6739686355	0.6700951372903229	-0.5580409289403219
O	-0.5217515685	1.5354876512903228	-0.40334971744032183
O	0.7369790964999998	0.9570874682903229	-0.7300874057403218
O	0.8227353364999999	-2.300953773709677	-0.01745828774032182
O	-3.3198406635	-1.4260583137096772	-0.6799501127403218
O	2.1922259864999996	-2.325799363709677	0.49498067725967815
O	0.36873240649999994	-2.876311183709677	-0.9800486667403219
O	-3.6308931035	-0.3885911237096771	-1.775205931740322
O	-4.7834457735	0.40353044029032287	-1.2296613957403217
O	-5.9862685835	-0.19466756870967716	-1.9594887517403219
O	-4.7632982135	1.7438128462903228	-1.5513654217403219
O	-6.8471454935	-0.6448096837096771	-0.9778651257403219
O	2.1079929164999998	2.3701977862903227	0.9459840982596781
O	-0.5821389815000001	2.8237355062903227	0.15124385125967815
O	5.1050211965	2.404651716290323	5.230411128259678
O	-7.5036489435	12.161248346290323	1.556979828259678
O	-8.4883239835	10.061440116290322	-1.4085715167403219
O	-9.4894791135	6.508187976290323	-2.231405641740322
O	-7.1407073035	3.4717576662903227	-5.632344451740322
O	-5.4397076935	6.895314986290323	-5.517248491740322
O	-5.0404764335	10.210725066290323	-3.693472091740322
O	-2.7566695735	11.158159946290322	-0.8008767667403218
O	2.8244052564999995	11.078540546290322	-1.1548019787403219
O	0.30037229649999997	8.793289326290322	-2.6647349817403216
O	-0.5231988005000001	8.925297916290322	-6.305371761740322
O	-1.9134437645000002	5.7935055962903235	-7.9920913517403225
O	7.5256719365	-4.490550623709677	-11.38643584174032
O	5.4360474365	-2.647186433709677	-8.812706081740322
O	8.2989313865	-0.35594636370967714	-7.862113211740322
O	10.6025588665	-3.375297483709677	-7.5946610617403225
O	8.2739668065	-5.312344063709677	-5.304703471740322
O	7.9943068365	-2.2905339637096773	-3.0481596717403217
O	10.0843883665	-1.998778703709677	2.3705421982596784
O	4.1376475665	-0.2655390937096771	14.38659245825968
O	4.5162895965	0.0684006202903229	10.617890458259678
O	4.4154722665	3.352798066290323	8.70197420825968
O	7.8742134865	4.4275228962903235	7.438867248259678
O	8.8089027765	4.018447776290323	3.7399721982596783
O	10.8882420665	6.5098898462903225	1.714382318259678
O	10.6267737665	5.075950786290322	-1.804391701740322
O	8.4658338565	4.727160016290323	-4.918575321740322
O	4.1071785865	7.525699106290324	-6.563887801740322
O	4.5611311065	6.100296796290323	-3.0458916017403217
O	6.3960975165	8.223081746290323	-0.47681301684032185
O	6.0498024865	7.411179596290323	3.2148456982596785
O	4.8340894265	-8.295404253709677	9.095526158259679
O	6.3169369865	-13.450167653709677	6.024105908259678
O	3.1236828164999997	-11.708095753709678	4.940520818259678
O	-0.26306864350000014	-10.641517353709677	6.241443558259678
O	-1.8807058435000001	-7.214562013709678	6.119037528259678
O	-4.9149285935	-8.286787903709678	4.0650457882596776
O	-6.7506627335	-5.058128723709677	4.676384748259678
O	-7.0067303535	-4.028937213709677	8.291819788259678
O	-9.6085727835	-1.2935373437096773	8.86222940825968
O	-9.8864311235	2.079161716290323	10.601035558259678
O	-8.6180863935	4.083874086290322	7.611461448259678
O	-5.5537795435	1.8497206462903228	7.668263818259677
O	-4.4509592535	2.5556580962903226	11.18162955825968
O	0.9937875564999998	2.3293419962903226	12.934291558259678
O	-0.3662187295000001	0.1774822202903229	10.12450735825968
O	-0.30027054350000015	1.2773204292903229	6.5698566682596775
O	-1.6553842085000001	-0.13138862470967716	3.2777967282596783
O	-0.6299746605000001	-3.8818656237096776	3.9282841282596785
O	-0.4828509565000001	-6.183849633709677	0.7134231882596782
O	3.3097710365	-6.207050563709677	-0.05612985174032181
O	3.3835477065	-6.104605623709677	-3.9145657317403217
O	1.3932737264999997	-8.934368623709677	-5.443700721740322
O	1.4447251864999997	-7.102838753709678	-8.76353695174032
O	-0.027300157500000144	-3.969467633709677	-7.3309055317403224
O	-2.7651895935	-6.067064723709677	-5.656496881740322
O	-3.3060188835	-7.749243203709678	-8.992862931740321
O	-3.2594259735	-4.561161673709677	-11.050126941740322
O	-5.5203138135	-3.017698453709677	-8.453087001740322
O	-7.6901284535	-6.078179163709677	-7.817672041740322
O	-10.404399893499999	-2.8424424137096773	-11.38309034174032
O	-11.5229639335	-2.4331597437096772	-7.7362158317403225
O	-11.8280280335	-0.8727545337096771	-1.8510617517403218
