76

O	2.57881935121	0.6565081075309376	-0.5966028028171867
O	1.4072944212099996	0.04119452031093751	-0.8870878171171868
O	2.4718209612099997	1.5572517553109375	0.5014426588828133
O	-1.3366101007900004	0.28348894131093755	-1.1034299191171866
O	0.027828469209999596	1.5309014553109375	-0.0189763651171867
O	2.1650974312099995	-1.2479648956890625	-1.0092813931171867
O	1.2683006412099997	2.1150006843109375	0.4646069088828132
O	3.06637817121	-1.8852023556890622	-0.5264692903171867
O	-2.2649525287900003	-0.16319017468906238	-2.018064271117187
O	-2.1171965687900003	1.0680372023109377	-0.5146642304171867
O	-1.1842236747900003	1.8737622143109376	0.0966160168828133
O	0.04982422020999966	0.34627558531093755	-0.7962575061171867
O	-4.79910787879	4.786276534310937	-12.389271041117187
O	-3.23274992879	1.3643621663109375	-12.136755841117187
O	-0.21767832179000035	-0.6526613656890624	-11.028845241117187
O	-0.7824367292300004	-2.0578682456890625	-7.5406804211171865
O	2.3306952812099997	-4.222342985689063	-7.5992117711171865
O	6.118735131209999	-4.210059855689063	-7.841708321117187
O	9.13724902121	-5.134678925689062	-5.715585191117187
O	12.91460798121	-5.2883598556890625	-6.035202331117187
O	10.32230518121	-0.11044330968906246	-6.506931901117187
O	6.87273356121	-0.1349992616890624	-8.123466541117187
O	3.5460715912099996	0.9431584983109376	-6.5914369811171865
O	0.7155755512099996	2.6527462743109376	-8.398902921117188
O	-2.7985578887900004	3.682647044310938	-7.592355411117187
O	-2.7987410187900004	7.344883954310937	-8.622516401117187
O	-4.95527035879	10.407688944310937	-8.577852121117187
O	-7.44069029879	12.610927924310937	-3.8641848711171867
O	-6.66588576879	8.995399644310938	-4.670168541117187
O	-3.30796588879	7.850898734310937	-3.3911868011171866
O	-0.8294225024900004	5.005128654310937	-3.5693231611171865
O	2.4134256212099996	6.142215924310937	-5.107153131117187
O	5.59232253121	4.176015124310937	-4.6183395211171865
O	8.423334871209999	4.830912434310937	-7.028916621117187
O	11.932564781209999	3.9420596143109377	-5.873583381117187
O	-2.8409191587900002	0.7810879553109376	12.447134558882814
O	-0.25645894679000036	2.5386521843109375	10.307965858882813
O	-0.7521350760900004	3.4169090243109377	6.651549408882813
O	-1.3143746097900004	7.161756474310938	6.126427158882813
O	1.4902378812099997	9.368756334310937	4.744591068882813
O	7.66822755121	12.360215124310939	-0.5762643036171867
O	8.31717448121	9.084978274310938	-4.830151341117187
O	6.41952770121	8.107611584310938	-1.6770237911171866
O	2.75281512121	9.025194714310938	-1.5244332221171866
O	0.4896837412099996	7.384260404310937	0.9793326488828132
O	-3.0082320187900002	6.388861304310937	1.8475828488828134
O	-4.35668646879	3.8767218243109376	-0.6997620071171867
O	-5.58711751879	0.5869039824109376	0.7919728288828133
O	-8.039552618790001	-0.8250049956890625	-1.5905040811171869
O	-8.02266952879	-4.344778005689062	-0.13829145811718668
O	-4.325883478790001	-4.771041425689063	-1.0363929571171866
O	-1.8470436087900004	-6.779206815689062	1.0750189188828134
O	-2.4095748387900002	-9.946196275689061	3.0608027288828135
O	-0.23500770079000033	-11.872807875689062	0.6418202788828132
O	-2.74598511879	-10.977109075689063	-2.1188490411171865
O	-5.7042341187900005	-11.667020175689062	0.12252498288281333
O	-4.26011403879	-15.083069075689062	1.0489002588828131
O	5.78778801121	2.7415570843109376	16.241811558882812
O	6.90151603121	-7.538797865689063	9.079711488882813
O	5.47676302121	-9.929413975689062	6.475332898882813
O	2.16520188121	-10.616032675689063	4.706395508882814
O	2.9486328512099997	-8.269791745689062	1.8745396288828133
O	3.50576111121	-5.4494597456890626	4.439931708882813
O	0.10389428920999966	-5.779745955689063	6.1425922588828135
O	-2.5213947687900005	-3.891031155689062	4.145206318882813
O	-6.30796076879	-3.9927940556890626	4.507579878882813
O	-9.29918637879	-2.0699731656890625	3.1426326988828133
O	-13.52025111879	-0.3012432096890625	5.591190018882814
O	-12.20147811879	-3.2752167656890623	7.545036788882813
O	-8.97074704879	-1.5201824156890624	8.494303298882814
O	-5.67013400879	-3.372579615689062	8.852831468882814
O	-2.4782121287900005	-1.3838934856890623	8.729609748882813
O	1.2813109112099998	-1.7505830456890625	8.536250558882813
O	3.37676383121	-0.22975487368906244	5.766564888882813
O	7.03119864121	-0.20023667168906245	4.704597278882813
O	8.46774161121	0.08959021131093758	8.193509118882814
