13

O	-5.598464744641681	70.94049130430044	34.21034585193937
O	-4.613483482061676	71.8782834449845	34.18108252171296
O	-3.308233405752567	71.37615607380683	34.37431907857118
O	-5.253191337025305	69.48692738100854	34.63366622229317
O	-1.8263765909780776	69.51415208061006	34.37773001470338
O	-2.2219723905005866	68.35805846697693	34.55726279708073
O	-3.6287959202483284	67.92964950762517	34.62484299601656
O	-4.043059194343887	69.04758501021331	34.12204798282889
O	-3.05106277782187	70.09478761272239	34.497776353022154
O	-4.0096364674383205	66.47524265101974	34.87345471658116
O	-5.1703345984214675	66.4621453681922	35.41818618394814
O	-3.8901187793251486	65.43322354816495	33.96458331649103
O	-4.4068195321698145	64.10310140347903	34.186416536618445
