76

O	1.3394405586166667	2.0266179628166667	0.34555407846666675
O	2.2172013286166665	3.155560512816667	0.16350162441666677
O	-0.06126289038333338	2.1161258228166666	-0.10247426453333322
O	-1.2115005863833335	1.6999777528166664	0.8697597214666667
O	2.3639940986166663	1.1221715928166665	-0.32551138553333325
O	-0.9953021603833334	2.5850201728166664	1.8891173534666668
O	-2.1444571313833336	2.6800019328166664	2.756336533466667
O	-3.3326946913833337	2.7268302028166667	2.455948533466667
O	-1.8339401713833332	3.1375710528166665	4.072417433466667
O	-0.5463603789833333	3.8555602428166664	3.9135390534666668
O	0.6577044686166666	3.1660173328166668	3.471858263466667
O	1.9228166186166666	3.0942731028166666	3.934481213466667
O	2.9864976886166663	2.5214682928166665	3.301190503466667
O	2.5417486086166665	1.7607913228166665	2.258843693466667
O	0.2942226306166666	2.2514077028166666	2.485147953466667
O	1.2769722786166666	1.8755574468166665	1.6348376034666667
O	-7.5924893713833335	8.243066772816666	-5.879980606533333
O	-5.475262331383333	8.811095502816666	-2.788937866533333
O	-4.876654991383333	5.550838292816667	-0.9534437865333332
O	-3.3099298313833336	7.286834892816667	2.0235404234666667
O	-0.33311424938333334	9.395025802816667	3.1687771034666667
O	2.7203452786166666	8.963447922816666	5.477552263466667
O	5.571524428616667	11.104611802816667	6.836823683466667
O	7.6080226086166665	9.413639642816667	4.088908823466666
O	5.255447658616667	10.005631182816666	1.1656246364666667
O	1.7616359686166667	9.782672232816667	-0.33325490653333323
O	0.12578898161666668	6.891303652816666	-2.139039616533333
O	-2.2618706613833335	7.045843182816666	-5.054167346533333
O	-4.298767001383333	4.522332072816666	-6.996348386533333
O	-3.2766722913833335	5.304217942816667	-10.521348066533333
O	-3.9154994013833337	-0.09440645718333351	-12.467275566533335
O	-1.1328718773833333	0.5009950918166666	-9.974867966533333
O	-0.30803768538333337	1.9762277928166667	-6.581245556533333
O	2.0220862286166663	4.925045222816666	-6.957574006533333
O	3.9939850086166664	6.0905474928166665	-4.008598086533333
O	5.436076208616667	9.529756022816667	-4.092982346533333
O	8.434413188616666	10.272482802816667	-1.8833939865333333
O	3.549268798616666	-12.922203497183334	-0.09912904053333324
O	5.356572538616667	-9.814748797183332	-1.3107145165333334
O	3.672280428616667	-6.872043277183334	-3.016078696533333
O	10.703473188616666	3.4018209928166665	-9.941268966533334
O	10.906604488616667	9.568996102816667	-6.252121136533333
O	8.032769858616668	7.494270892816667	-7.586331556533333
O	7.559898098616667	3.842613022816667	-6.676734126533333
O	5.038712278616667	1.8611062268166665	-8.683873076533335
O	3.7077066286166667	-1.3830951071833333	-7.325567656533333
O	0.8633998286166666	-3.8166137171833334	-7.392534376533333
O	-2.3075263513833333	-2.2086518771833332	-6.041219366533333
O	-4.0235099713833335	-4.138360537183333	-3.234659126533333
O	-7.758998351383333	-3.3282064571833336	-3.270908986533333
O	-8.288433461383333	-4.417900697183334	0.3453508964666667
O	-5.912732341383333	-1.7859149371833332	1.7647059534666667
O	-3.6278451613833336	-2.2934534771833333	4.788113023466667
O	-4.4814468813833335	-4.272653587183333	7.937177373466667
O	-4.537169351383333	-1.1056136271833332	9.977936453466667
O	-7.424579791383333	0.08777829081666655	7.758410583466667
O	-9.105709061383333	-3.3007484271833336	7.892780743466667
O	-8.842012091383333	-3.332050097183333	11.697574833466666
O	-13.593981711383334	-1.4344045971833332	10.175667733466666
O	6.641995058616667	-5.106616417183333	10.099554243466667
O	3.3847594186166665	-3.536448617183334	11.297309633466666
O	-0.33259193938333337	-3.5878792671833333	10.446392433466666
O	-0.04411461538333339	-0.8409942071833335	7.970265213466667
O	2.6361567586166665	-2.7185438971833333	6.051782753466667
O	0.5266500286166667	-5.846382907183333	5.581094143466667
O	-1.7564081513833334	-5.452680557183333	2.5779339534666668
O	-4.679841281383333	-7.629748357183333	1.5243397334666666
O	-6.966895931383333	-7.967894267183333	-1.4922891465333332
O	-7.7742994413833335	-13.199425397183333	-0.4373582155333333
O	-4.064916811383333	-12.465125897183333	-0.7955730775333333
O	-1.9623885313833334	-11.119151397183334	2.0714064934666667
O	1.3318201686166666	-9.458422697183334	1.2422142834666667
O	4.137302188616667	-7.4496850271833335	2.790569503466667
O	5.1953724186166665	-4.051916047183333	1.5139845034666668
O	7.579374498616668	-1.2613030471833335	2.508953363466667
O	10.513128688616668	-3.6589136771833335	3.414074383466667
