94

O	0.6313290556369235	4.081871024523076	0.657029754893847
O	-1.3104830393630764	5.299592274523076	-0.792884260106153
O	-0.15171224936307637	6.042655064523076	-0.43546516200615304
O	0.8743537256369236	5.381784214523075	0.270554348893847
O	0.43418958563692356	-0.1353619154769241	1.483850284893847
O	-0.7298835973630764	-0.5793323954769241	2.0293314848938473
O	-0.8059400893630764	-1.920773815476924	1.8091071248938473
O	0.13211946563692356	-2.658862885476924	2.398206464893847
O	1.3796953356369237	-2.0511689854769237	2.598262564893847
O	1.5723326156369237	-0.8435486154769241	1.908641714893847
O	0.9487152556369236	-4.739271605476924	2.300378594893847
O	0.7980181656369236	-5.775102025476924	3.241986334893847
O	1.7300936556369237	-6.7916267654769245	3.029150534893847
O	2.9907085556369237	-6.441616625476924	2.657831584893847
O	3.290229405636924	-5.096787575476925	2.840301434893847
O	2.246270575636924	-4.233968825476924	2.527010414893847
O	3.3843464556369236	6.098362104523075	0.801540904893847
O	0.5149667956369235	1.218382484123076	1.5184895248938473
O	-0.15024342536307644	-3.9686595554769246	2.612134464893847
O	2.166229215636924	5.949370424523075	0.21571975589384695
O	1.6850797656369234	7.793287994523076	-0.9694620961061531
O	2.4781545056369234	-0.9462035754769242	0.721635564893847
O	0.2932056556369236	7.324882024523076	-0.896189815106153
O	-2.5641097043630765	3.3065854145230755	-0.652998632106153
O	-2.556238074363076	1.980231221523076	-0.33281201710615305
O	-1.6767525703630763	1.433382567523076	0.552915194893847
O	-0.5026934633630764	2.046947763523076	0.8759061048938469
O	-0.4612439253630764	3.344335174523076	0.41838123889384693
O	-1.5009321483630764	3.994930074523076	-0.286560881106153
O	-2.3697483343630763	3.2518183845230757	-12.922514375106152
O	0.050789084636923554	5.397255524523076	-10.964030075106152
O	2.996455455636924	5.364219654523076	-8.577798755106153
O	1.5740248556369234	5.988123784523076	-5.104151825106153
O	5.2433257256369235	6.420899204523075	-3.550041295106153
O	8.471799715636925	4.597648984523076	-2.485013245106153
O	10.328086815636924	3.4829253645230756	0.6928536748938469
O	13.740879715636924	2.090581580523076	1.4292193948938468
O	11.852091815636923	-1.1804745954769242	1.525655894893847
O	9.984999915636925	-1.0321720054769241	-1.781686445106153
O	7.8175391856369245	0.922642794523076	-4.270517985106153
O	4.004724665636924	1.130317665523076	-4.413523325106153
O	1.6223291856369235	1.431121567523076	-7.3323618751061534
O	-2.1045597243630763	2.068232247523076	-7.758707385106153
O	-2.9573510543630768	-0.7873261754769241	-10.037777545106152
O	-5.856542194363076	-2.4345274754769237	-11.711973475106152
O	-6.2628020443630765	-6.182621465476925	-11.483629075106153
O	-10.534522594363077	-4.370284635476924	-9.040733195106153
O	-8.333982004363076	-1.4268501754769243	-8.124212475106154
O	-5.5217082843630765	-2.2524254254769245	-5.668064025106153
O	-2.358142424363076	-0.9399188454769243	-4.112551145106153
O	0.5987963356369237	-3.051493395476924	-5.184953955106153
O	3.756767545636924	-2.9059853554769246	-3.060572235106153
O	6.925151075636924	-4.179079495476924	-4.802201605106154
O	9.796866315636924	-5.307129705476925	-2.579933485106153
O	12.884763615636924	-5.812957655476924	-4.661194655106153
O	1.5957829256369236	-13.648999185476923	4.6805638748938465
O	-6.685875584363076	-2.9572414254769246	9.198809404893847
O	-5.956266254363076	-2.3746904854769237	5.504665004893846
O	-7.422360554363077	-5.117892415476924	3.3191681748938473
O	-5.2041524643630765	-7.863544295476925	1.9500488348938472
O	-5.582952144363076	-9.385870385476924	-1.4660051911061531
O	-2.5546545243630767	-11.643117885476924	-1.6596189551061529
O	1.1518857056369234	-11.859251085476924	-2.354390895106153
O	3.4435036056369235	-13.404721485476923	-4.937053565106154
O	7.886027735636924	-9.860314485476923	-3.797766615106153
O	4.519133115636924	-8.285399585476924	-4.559324115106153
O	1.9869635556369236	-7.388028175476925	-1.890071025106153
O	-1.4983661853630763	-6.509871265476924	-3.001755355106153
O	-3.7197283743630765	-4.609530645476925	-0.668177714106153
O	-6.809272684363076	-2.444222705476924	-0.493044522206153
O	-6.056285984363076	1.031311478523076	-2.060885765106153
O	-6.736933134363076	3.921985684523076	0.23571954889384694
O	-7.9290170843630765	6.862598974523076	-1.8330025351061532
O	-7.2524478343630765	9.292334194523077	1.082801214893847
O	-3.666656964363076	8.379439204523075	1.495715264893847
O	-1.6302722333630764	8.252853554523076	4.907285114893846
O	-1.7722829873630763	10.622633974523076	7.744208964893846
O	1.7143516756369237	11.997004814523077	6.986910444893847
O	0.35841856563692365	13.225088114523077	3.625669454893847
O	-2.905074724363076	14.420082614523077	5.091017104893846
O	2.327549475636924	-3.5166276854769247	14.868592324893848
O	5.986337045636924	0.2598900975230759	13.190715924893848
O	2.847807205636924	7.097315244523076	7.345760914893846
O	1.4074046056369236	3.766612664523076	8.381922384893848
O	-2.1397283043630764	5.0525751145230755	9.243227024893848
O	-4.308263754363076	5.179017914523076	6.0422970348938465
O	-7.725362384363076	6.8443794045230755	5.440352274893846
O	-10.342037514363076	6.886592024523075	2.649578104893847
O	-6.7295889043630766	1.758681742523076	8.923559514893848
O	-3.2847851643630763	0.4531948125230759	9.849242824893848
O	-0.8440612067630764	-0.9183413854769242	7.304631474893847
O	2.6864928456369235	-2.329345685476924	7.234938554893847
O	2.462893305636924	-4.125989265476925	10.598210824893847
O	13.031843215636924	2.656867554523076	7.805899154893846
