26

O	2.2774634261627087	60.451328160562504	33.01034939418512
O	-0.11599486290343397	58.46345659762076	31.321998215782447
O	-0.047634244540512904	57.05370542241792	33.582274855082915
O	-0.18152698839452752	62.11687942047233	34.51376748362233
O	-2.900300042679909	60.37505900048262	34.5733018176319
O	-0.9151494429560691	58.12599673220443	35.63722868799224
O	2.6186466078999278	59.59038336496352	33.99290001804236
O	-2.5276874435744396	55.76340491616559	33.05126384082768
O	0.3669066743476461	61.54298782842383	35.613873440680116
O	-3.012426738941378	56.124535667173525	35.40441657644571
O	1.948873948198566	59.910561633632454	31.800700616507118
O	-4.644316537781693	57.20995216012384	31.879666705277003
O	-0.8518029039922594	61.37017280121079	33.62198250563243
O	-5.287372438672155	57.263140202397736	34.50762251080569
O	2.291686440260377	58.24890637452728	33.808562435628545
O	0.35864673993260676	60.186278034459676	35.67485580469441
O	-3.5529200884543393	57.62177860326559	32.085586831713115
O	-4.252811298698485	57.73414983797441	34.35483355157287
O	0.864657894955595	59.06307894861208	32.06302638661853
O	-1.507922727849721	60.194585921636815	34.08053965675376
O	1.0994575333891217	58.21135263523311	33.07226827464866
O	-0.6458991207218421	59.638736142642806	34.92014520019211
O	-2.2842683799012558	57.92564470017128	32.887273494000446
O	-2.7428717298646346	57.927783058692214	34.20864991496921
O	-1.4720726816484635	56.65015430913514	32.67846625353679
O	-1.966032723874468	56.93440485764969	34.984684763182806
