18

O	-7.159068587187418	69.22104580705557	36.21290275364825
O	-9.579909367137494	64.99425163206494	32.24165114907537
O	-10.504461481616271	65.84366112630569	32.943403105637216
O	-9.62375484140727	67.01138506967483	33.257524290917935
O	-8.408300317434861	66.25746169239929	33.91079122091833
O	-8.30647313232662	65.6758845357491	32.48676154903753
O	-6.093983477060883	67.2675325100075	34.730824073384454
O	-4.846059115298131	66.73236733058982	34.33457274019625
O	-3.648161305890672	67.46249399212334	34.48574617978546
O	-7.273952996481773	66.91960973911925	34.17211492932586
O	-3.7452936810644477	68.90142640519865	34.3723072775947
O	-2.5767396025581135	69.75845066125912	34.44183473935257
O	-1.3426594836555603	67.83350641165866	34.11898247665409
O	-4.786170220308123	69.31048342329363	35.06278283418933
O	-2.7057415351205774	71.03101190519659	34.33431965538134
O	-5.756595432140749	68.34719367693933	35.55789335142224
O	-2.317084838071798	66.79692207441711	34.463639267635855
O	-1.3089730536058934	69.08501757802397	34.48479839636737
