81

O	5.047949255783	1.0445142012866664	4.574165334505
O	5.602445445783	1.2867836692866663	3.224747044505
O	5.108441895783	2.5654204852866664	5.206438424505
O	6.248618045783	0.18845164528666625	5.347268314505
O	3.424008235783	0.3682524922866663	4.432638614505
O	2.293767045783	1.2003434712866663	4.862629284505
O	1.046397045783	1.0229260182866664	4.055736654505
O	-0.009520280216999966	1.2595878272866663	4.971781774505001
O	0.8641186857830001	-0.4428050247133336	3.685921214505
O	-0.26859058921699996	-0.6754306947133336	2.840327994505
O	2.1000946457830003	-0.8217326247133337	2.9261772745049996
O	3.231290635783	-0.7644320747133336	3.7142591545049997
O	1.845687165783	-2.2773700747133336	2.518063904505
O	1.9556731657830002	-3.1419508547133335	3.591188544505
O	2.768989085783	-2.5665561247133337	1.4061892885049998
O	2.710156195783	-1.5867910347133334	0.4437811535049999
O	2.824100545783	-3.9666073147133334	0.9320743875049999
O	2.081357295783	-4.063480464713334	-0.22836834549500018
O	-1.192457002217	-1.7145527847133337	3.1850700445049998
O	-1.031670602217	-2.5185939447133334	4.120186964505
O	-2.5399765442169997	-1.6390480747133336	2.538967964505
O	-0.388029226217	8.071364955286667	8.505022064504999
O	-0.5009547091969999	7.9357075152866665	4.702005364505
O	-5.693416304217	7.400426305286667	7.7201103545050005
O	-1.277899860217	-0.5415350047133337	17.648255744504997
O	-0.670449096217	2.7767277552866663	15.924212144505
O	2.321785905783	1.0281047672866663	14.278319544505
O	0.161828213783	-1.6101136047133338	12.572108444505
O	-1.200073099217	-0.5532807547133337	9.155615734505
O	-4.561124434217	-2.4246246847133337	9.227355354505
O	-8.558606434217001	2.9919176852866665	11.017830544505001
O	-10.580645654217001	5.682827325286667	9.254905244505
O	-10.559532254217	2.1783429552866664	5.864842354505
O	-6.936153444217	1.1500522772866664	6.204494504505
O	-6.091680744217	2.2966490652866662	2.659013274505
O	-7.530018964217	5.185674915286667	0.6555267875049999
O	-11.545788854217001	3.5632299952866666	1.240730401505
O	-10.436378524217	-0.013297645713333694	1.689064021505
O	-6.716631004217	-9.331429964713335	4.2180542745050005
O	-10.332002434217001	-8.429017494713335	-4.0241003454949995
O	-9.323040354217001	-10.345606464713335	-7.156464385495
O	-7.317600824217	-12.209397064713334	-2.319534265495
O	-4.322688004217	-10.659212564713334	-0.627544005495
O	-4.898733514217	-7.189923264713333	0.7379419832049999
O	-6.806071854217	-5.212493004713334	-1.8749263054950003
O	-5.126481634217	-1.8062309547133335	-1.5628973354950002
O	-5.182091234217	1.5602329382866662	-3.3026900054950006
O	-2.926057394217	4.5700339052866665	-4.061438275495
O	-2.7637663442169997	6.673351515286666	-0.855180585495
O	-2.965210394217	9.757898335286665	-3.067833315495
O	-3.719317084217	-3.5092604047133333	-6.493408195494999
O	-4.043129744217	-7.002355744713333	-5.025394895494999
O	-1.253713385217	-9.410494464713334	-4.144625955495
O	1.746235995783	-10.324342664713335	-2.0261208454950004
O	4.105441425783	-7.565587984713333	-0.976889195495
O	7.038840285783	-9.793633364713335	-1.8445077254950002
O	0.8756416357830001	-7.738894734713333	-7.388800425494999
O	-0.6822962382169999	-6.994908514713334	-10.756633755494999
O	4.518480135783	-5.902551934713333	-9.115013485495
O	2.9716669457830003	-2.4152731447133338	-9.169883945495
O	1.4768363257830002	-0.3252008547133337	-6.413944985495
O	0.9457731857830001	2.906225675286666	-4.442891215495
O	0.9336617457830001	4.667979005286666	-7.784736115494999
O	4.777268945783	3.5877547052866663	-8.612991345494999
O	6.245513065783	1.1645867222866664	-6.136417115495
O	7.552746245782999	-2.3372540547133336	-6.825557955494999
O	8.075407055783	-3.9003981547133337	-3.4121309354950005
O	10.029001545782998	-7.090126044713333	-4.111421255494999
O	7.367452115783	0.9191683070866663	-12.341694955494999
O	13.147007545783	-6.083105464713333	-0.9760385054950002
O	10.777303245783	-3.3030531247133332	-0.010938830495000107
O	10.268066645783	0.20736918328666631	-1.2205557254950001
O	8.270020375783	3.3184156752866665	-0.5237907754950001
O	5.689618875783	5.544831265286667	-2.156670095495
O	7.342701145783	8.429073335286667	-3.999220835495
O	6.192859005783	11.873481435286665	-5.008215775495
O	8.651108485782999	8.873834265286666	4.234928544505
O	5.771939965783	8.757141855286665	1.769995933505
O	5.812278625783	11.631006935286665	-0.7278345354950001
O	3.018686645783	12.407286435286666	-3.1853408554950002
O	8.824411705783	6.9119061152866665	14.403946444505
