84

O	-0.8731887290535714	2.992149523732143	1.0153190099124998
O	-1.4527376830535714	3.542113993732143	2.1165704299124997
O	-1.2151721030535716	3.459387733732143	-0.15447368708750006
O	-2.0721583830535715	4.758445383732143	2.0400821299125
O	-1.7512775630535715	4.688173543732143	-0.29173094208750006
O	4.922249926946429	1.639052099732143	-1.1971229250875
O	-2.1433821930535712	5.358996183732144	0.8257384299124999
O	6.323303066946429	1.467848572032143	3.3552928299125
O	6.495063406946429	2.115765103732143	4.3915592599124995
O	6.551446956946429	0.125130623732143	3.5485451099125
O	5.265836806946429	1.979533196732143	2.4437621899125
O	5.500788506946429	1.654656892732143	1.1951684099125
O	4.620121806946429	1.428725294432143	0.14984293391249998
O	3.401368606946429	2.260656511732143	0.42953075991249995
O	2.5765921469464286	1.923496201732143	-0.6692360290875001
O	3.0664793569464286	1.680776702732143	1.7545164399125
O	4.054712656946429	1.420636027332143	2.6942913399124997
O	2.6425951069464286	2.9547445337321427	2.4507939599124997
O	3.498821706946429	3.845936293732143	2.5227474399125
O	1.2659867769464286	3.106452793732143	2.2498746499125
O	1.0773186869464284	4.008789063732143	1.2175116499124998
O	2.0702206969464285	2.936911253732143	-1.4848150100875002
O	2.5896564269464286	4.066466743732143	-1.4201725300875
O	1.1309355269464285	2.633929813732143	-2.5704920800875
O	0.5124964069464286	1.881205660732143	2.2205963699124998
O	-0.03381228635357144	1.789336073732143	0.8560999999124999
O	1.1299720769464285	5.415444493732143	1.1405634499125
O	1.9239868569464285	6.043843333732143	2.2187350799125
O	8.721103896946428	-3.0563958462678573	-5.3473739500875
O	13.368160396946427	11.930195673732143	-4.2187516300875
O	14.127114996946428	8.282744623732142	-4.9181046300875
O	13.208755396946428	7.742737533732143	-1.2520062690875
O	9.626218416946427	8.954608563732142	-1.6359092900875
O	7.127929466946429	6.414187503732142	-2.9001944300875
O	4.783127106946429	8.535614283732142	-4.9680850800875005
O	7.438525656946429	6.771254663732144	-11.1673851700875
O	2.4022623169464286	4.442869663732143	-11.7957167700875
O	3.5594355569464287	4.528200823732143	-8.1828464000875
O	1.9048452469464285	1.181806846732143	-7.4079874200875
O	1.3860714469464286	-1.8684906762678568	-9.6110287900875
O	-0.6542944280535714	0.634452247732143	-12.5626703700875
O	-1.8132925930535715	3.243065153732143	-10.0894579100875
O	-3.5033402330535712	10.729976213732144	-3.0962872900875
O	-10.610286803053572	5.495977893732142	-5.5184619000875
O	-13.542882603053572	4.559732283732143	-3.2902913200875
O	-12.088680003053572	5.666200323732143	0.03555380691249993
O	-10.259063903053573	8.642634133732143	-1.4812601700875
O	-7.041348163053572	7.998875253732143	0.2756384389124999
O	-4.351351283053571	6.551480143732142	-2.0033984600875
O	-5.8744671930535715	3.797486073732143	-4.1084891800875
O	-2.978384313053571	1.279966976732143	-3.9737073600875
O	-2.4796638630535712	-2.278696126267857	-5.2394597400875
O	-0.5435891810535713	-5.431101236267857	-4.4123069600875
O	2.978488646946429	-5.032036506267858	-5.7580360600875
O	2.876215106946429	-8.635575126267856	-6.9128183800875
O	-7.009667553053571	-1.1057823962678568	-1.3063051130875
O	-8.063430843053572	2.386839914732143	-0.3530525962875001
O	-7.703055723053572	4.039429083732143	3.0458344999125
O	-5.3714405730535715	5.363056753732144	5.7458403499125
O	-2.0973882830535713	3.470503823732143	6.3715812799125
O	-2.8211715130535713	3.860452323732143	10.0840975299125
O	-8.245997713053573	0.207251203732143	4.7019858799125
O	-10.965211703053573	-2.165190596267857	3.5094541499125
O	-7.152570463053571	-3.130659106267857	7.4179445499125
O	-5.860596293053571	-5.262481056267857	4.5342671199125
O	-3.2628687130535714	-4.657996516267858	1.9060556699125
O	-0.23377715605357147	-5.565528306267858	-0.25169116508750006
O	-1.7973466530535716	-8.954416626267857	-0.5482204600875
O	-1.5069999130535714	-9.692254026267857	3.4560294599124997
O	-0.40318972205357145	-6.687873936267856	5.4490754399125
O	-2.3274410130535714	-4.970362206267858	8.2566698899125
O	-0.4536156670535714	-1.715502126267857	8.8693912299125
O	-1.9981331130535713	-0.287639536267857	12.0539294299125
O	-3.605802473053571	-2.914666666267857	14.2760242299125
O	2.0633467669464287	0.250799043732143	13.9836318299125
O	3.4052483769464286	-0.6403957962678568	10.589264929912499
O	4.235925126946428	-3.828402776267857	8.763396369912499
O	5.708134406946429	-5.195079436267857	5.5379132799125
O	4.713197026946428	-7.158967636267857	2.4541702799125
O	5.533831946946429	-10.824717426267856	2.9370799499125
O	12.403748696946428	-6.067829936267858	2.6413550599124997
O	9.407162406946428	-6.992037346267857	0.5049739209124999
O	9.086102646946427	-10.705502826267857	-0.31948593898750005
O	6.555398586946429	-12.136817226267857	-2.7703683700875
