85

O	-2.38588205765	-1.067996808838333	-2.897278609833333
O	-2.58664259765	-1.277809138838333	0.060025862166667
O	-1.06174136165	-0.968826938838333	2.7751390401666667
O	-4.23028332765	-1.970260508838333	-1.694663659833333
O	-1.16465995765	-3.125221138838333	0.7008954401666672
O	-0.12369771765000004	-2.621945598838333	3.7592287201666665
O	-3.3023174076500004	-3.064664438838333	3.616450340166667
O	-5.90184382765	-2.3838948388383328	4.593091910166668
O	-2.41672723765	-3.489644048838333	2.681442760166667
O	-1.43947550065	-5.249971888838333	-0.15799881183333297
O	-4.11709851765	-1.623702668838333	1.9867806601666669
O	-4.25759246765	-1.273067958838333	5.568055210166667
O	0.68094516235	-3.9740924588383333	-0.510389497633333
O	1.0514050823499999	-2.7269150788383327	0.283966600166667
O	-1.25003127755	-1.669643488838333	-2.057180039833333
O	-3.11795912765	-2.991113028838333	-1.4780074498333329
O	-0.14333690764999996	-1.120593698838333	1.7631647801666672
O	0.23177036235000004	-3.323800928838333	2.5882709601666667
O	-4.06329538765	-2.005509318838333	3.295759290166667
O	-2.4232008276499997	-3.109693268838333	1.4341344801666671
O	-3.2715093376500004	-2.1362928188383328	1.009641240166667
O	-0.63792160865	-4.306476158838333	0.143082110166667
O	-1.95414452265	-2.196052438838333	-0.890701744833333
O	-4.94225727765	-1.582094458838333	4.379598140166667
O	-0.029337047649999892	-2.516098888838333	1.3111818301666671
O	0.35991499235	-3.787666578838333	10.912377450166666
O	1.06768410235	-0.551580447838333	9.046184910166666
O	5.43287389235	-4.702300718838333	9.283059640166666
O	-2.16058858365	-15.659783008838334	7.445500630166667
O	-1.67134468765	-12.628970608838333	9.675004850166667
O	-4.70784789765	-11.252016408838333	7.829645590166668
O	-3.03479623765	-11.232704608838333	4.406835380166667
O	-1.04736664065	-8.034775688838334	3.504884440166667
O	1.75396090235	-9.769085858838332	1.508712060166667
O	6.60117278235	-10.129759708838334	6.497474250166667
O	9.451177392349999	-7.986572008838333	7.785705090166668
O	9.11092449235	-6.474787288838333	3.170887480166667
O	5.30798761235	-6.244731488838333	2.894220730166667
O	5.4770751223500005	-2.464608308838333	2.465104710166667
O	7.89157741235	0.113786302461667	3.8890828301666667
O	9.085951792349999	3.494860971161667	5.047097760166667
O	11.225651392349999	-2.1164028688383327	2.1672938701666666
O	9.21953069235	-3.701235198838333	-0.617316165833333
O	3.12687037235	-8.890298068838334	-7.160219249833332
O	11.922977992349999	-1.535276308838333	-3.625044529833333
O	8.081618012349999	-2.1855515588383327	-10.617505049833333
O	7.149078122350001	0.0015764531616670185	-13.592921749833334
O	4.02260829235	-4.507962078838333	-12.737263549833333
O	1.25035768235	-4.618067438838333	-10.172782329833334
O	2.42796673235	-4.500267578838333	-6.599038199833332
O	5.11611426235	-1.855406298838333	-6.305781719833333
O	4.27330118235	-0.266661075838333	-2.9397710598333333
O	5.42405388235	2.665453351161667	-0.792488983833333
O	4.08492459235	5.143756111161667	1.8175145401666672
O	3.89495638235	3.240026651161667	5.158945800166667
O	5.17848270235	6.400352871161667	6.823600010166667
O	3.26021715235	3.611815521161667	-6.467982869833333
O	2.5492254023500003	0.8205692531616671	-8.942501019833333
O	-0.85274999465	-0.304041854838333	-10.193994669833334
O	-4.28455103765	-1.7776884488383329	-9.639649679833333
O	-6.0385364376499995	-0.948377598838333	-6.386079049833333
O	-9.24687800765	-0.403247071838333	-8.327627349833334
O	-1.97389842265	3.7340466811616673	-9.913001159833334
O	0.21139573234999998	6.625543271161667	-11.086021849833333
O	-4.73796549765	6.925153761161667	-8.625132219833334
O	-2.4235237876499998	8.055967581161667	-5.813424149833333
O	-0.9729114076500001	6.1424026411616675	-2.905881619833333
O	0.01932867234999991	5.729442881161667	0.7448868701666671
O	0.9975948723499999	9.383438021161668	0.710972890166667
O	-2.80868405765	10.606594591161667	-0.089467896833333
O	-5.18729545765	7.752313501161667	-0.838176218833333
O	-7.1710017076499994	7.235009251161667	-4.052244809833333
O	-8.56086035765	3.691304461161667	-3.766403399833333
O	-11.08508956765	3.490694551161667	-6.638067499833332
O	-14.37730630765	2.007469471161667	-3.9312636598333333
O	-11.65599320765	1.804664151161667	-1.366280873833333
O	-10.10394596765	4.1966318311616675	1.091334540166667
O	-7.55690857765	4.430609221161667	3.887440840166667
O	-4.26886454765	6.0849132911616675	4.759390430166667
O	-4.83756687765	9.299626631161667	6.664297190166668
O	-7.34170383765	2.536333331161667	10.962959250166666
O	-4.20030048765	3.994582011161667	9.379340300166666
O	-3.1582208976499997	7.368956441161667	10.766138950166667
O	0.10659993234999998	9.112229671161668	9.926176350166667
O	-9.616454057650001	-7.170298548838333	13.921262950166666
