17

O	32.248282117484024	-5.9223139766182875	62.09988949403987
O	30.14538655746743	-9.513532665488293	62.83642929782609
O	29.7496236838077	-9.33209877840008	65.10674388198122
O	31.86826847702467	-6.96402170410256	63.067721602119995
O	31.184595941192352	-6.77337806899465	64.10664859063866
O	33.2266474832008	-13.091740045160513	67.10839731917534
O	35.22594473526971	-12.842239677516668	66.26129671626171
O	33.49265090990298	-11.323223228706727	65.49372168964486
O	34.43160349952185	-10.42850830776622	64.9922484310917
O	34.07890616778627	-9.639317359094145	63.901331885527334
O	35.01941547822437	-8.756586710737276	63.35246345863299
O	32.77475083967331	-9.13482909529024	63.92757867137564
O	32.33327495384092	-8.27549157011088	62.863696226925455
O	31.83475479007423	-10.041313162019167	64.40702501657479
O	30.457296947546908	-9.72385563319092	64.17154330481485
O	32.19098693462546	-10.915029467297705	65.42781924829613
O	33.92734622410878	-12.401184770623045	66.3520367552885
