80

O	0.8117345081666668	-0.5563281848100008	-6.760498377483333
O	0.2676240581666668	-0.9919321948100008	-7.774265907483333
O	1.3470121581666672	0.7183142801899992	-6.9980229274833325
O	1.0637309081666668	-1.349740424810001	-5.551176937483333
O	2.166942568166667	-0.6287480848100009	-4.936724787483333
O	2.167785928166667	-0.9559620748100008	-3.5088101674833325
O	3.3744870081666667	-1.7509202848100007	-3.7480417374833324
O	1.2587302881666669	-1.9731381248100006	-2.9541931174833325
O	0.8127248481666668	-1.756991464810001	-1.5892539784833324
O	-0.13134396283333316	-1.703287054810001	-3.5180904574833325
O	-0.004179149833333118	-1.697699584810001	-4.836912357483332
O	-0.7842114758333332	-2.9128673148100006	-2.825654467483332
O	-0.4893682868333331	-4.1122247648100005	-3.3548776374833325
O	-2.061777241833333	-2.4730130748100008	-2.4006747574833325
O	-2.1435394818333333	-1.1101666248100008	-2.2052619374833324
O	-2.6282939418333333	-3.323135464810001	-1.3422748604833323
O	-2.745387711833333	-2.436098984810001	-0.25584935048333235
O	0.6253898381666668	-2.937851474810001	-0.8210519499833323
O	1.2402205981666672	-4.014393834810001	-0.9344241893833324
O	0.3204112581666668	-2.626624074810001	0.6325663125166676
O	8.331216218166666	2.0217773651899993	-7.924605727483332
O	6.273382498166667	4.037654195189999	-5.423806827483332
O	11.230602238166666	1.2016187131899991	-3.4451851674833325
O	9.624385338166666	-10.36430866481	-10.233398307483332
O	9.967837538166666	-6.603307494810001	-10.656313447483333
O	6.211484928166667	-6.701557864810001	-11.262595307483332
O	5.361186388166667	-8.03932435481	-7.807340367483333
O	4.913369428166667	-5.353387314810001	-5.080995877483332
O	6.352379458166667	-7.451539114810001	-2.1463108274833322
O	12.755666038166668	-4.664087404810001	-2.115401357483332
O	14.535078438166668	-1.774713394810001	-0.40913920848333235
O	10.998069138166667	-2.710671274810001	2.8112401925166677
O	8.170646898166668	-3.2217197348100006	0.3507849925166677
O	6.284024928166667	-0.1541819568100008	1.6376442225166676
O	7.610192588166667	3.118782565189999	2.9970932625166675
O	7.638544358166667	6.790691095189999	3.885843192516668
O	9.893613038166666	0.8954444051899992	5.986298552516668
O	7.6082213581666664	-2.1160685148100007	6.029473002516668
O	1.875631828166667	-10.613077964810001	4.811799602516667
O	6.802497708166667	-1.2345777048100008	10.470072492516667
O	0.40272026816666695	-5.687930354810001	12.281294492516668
O	-2.9072291218333333	-5.32659532481	14.120780292516667
O	-2.6112721118333333	-9.32245317481	10.270957592516668
O	-3.022132761833333	-8.620505934810001	6.583116072516668
O	-0.19582595183333307	-6.673092394810001	5.086325372516668
O	0.6820812781666669	-3.8135887648100004	7.419255252516667
O	1.3418997981666672	-0.9916540848100008	4.935002342516667
O	2.107769638166667	2.739081955189999	4.9753969125166675
O	1.607405878166667	5.914436715189999	2.8800031325166677
O	4.248285458166667	5.849404335189999	0.09503095351666768
O	4.695133888166667	9.564059505189999	0.6287158525166676
O	-3.079399971833333	0.5987058048899991	7.519207382516667
O	-3.784291361833333	-3.107308374810001	7.997475952516668
O	-6.399082611833333	-5.188742254810001	6.206167382516668
O	-7.801699691833333	-6.73764553481	3.0526447325166677
O	-7.519925011833333	-4.7687940948100005	-0.16483848548333235
O	-11.078565361833332	-5.690261554810001	-1.0149258794833322
O	-8.790909231833334	-1.702681884810001	6.1910524925166674
O	-9.148354251833332	0.6116111290899992	9.159203392516668
O	-11.318665361833332	1.2629020881899993	4.089585912516668
O	-8.574984321833334	3.908841345189999	4.0947933625166675
O	-5.058310811833333	3.824699515189999	2.7429722625166675
O	-2.0695765518333333	5.281696705189999	0.8765846425166677
O	-2.995120551833333	8.61022000519	2.4201238525166677
O	-6.610777001833333	8.71963113519	0.5479657525166677
O	-7.466449131833333	5.534176685189999	-1.2793310164833325
O	-10.451929891833332	3.268584685189999	-0.6444556894833323
O	-9.759202951833332	0.12453791118999918	-2.644178327483332
O	-13.054081461833333	-1.792980434810001	-2.5505872874833324
O	-13.113107061833333	-2.3243628148100006	-7.034487677483332
O	-9.611215461833334	-0.9335049648100009	-6.871385227483333
O	-8.122754061833334	2.519822425189999	-6.882747027483332
O	-4.802953381833333	4.342582195189999	-6.9203461474833325
O	-2.802367321833333	6.715820315189999	-4.783527797483332
O	-3.548991101833333	10.34058903519	-5.716291697483332
O	0.15978599816666683	6.193187045189999	-11.914695307483333
O	0.790815938166667	7.205736845189999	-8.307161257483333
O	0.7974757181666668	10.95072963519	-7.679473777483333
O	1.7872130981666672	12.57871503519	-4.399976167483333
O	4.640556558166667	-1.0411156848100007	-17.840403707483333
