21

O	33.78562230897102	-12.151170673676287	65.8110804416058
O	35.01525230566887	-12.301888439152702	65.83604080389968
O	33.06533919928441	-12.94233123346559	66.63002603360093
O	33.04984030245563	-10.884406330980465	65.53097419427883
O	32.81960656116085	-10.365813002889116	66.78975420737035
O	34.13462287016398	-10.146848436922445	64.89155820647838
O	33.63538373733672	-9.398360577690267	63.72766046974405
O	34.48863517021952	-8.262469419836926	64.00249266530557
O	32.272649338099214	-8.867723425924448	64.05943996747185
O	31.775718384616813	-8.181024536218015	62.90143291118894
O	31.37407012996986	-10.064984270963338	64.08664368240244
O	31.858067946126074	-10.989055088860738	64.91184564177087
O	30.010133317957088	-9.484816324271973	64.27847992216351
O	29.77860715847986	-8.870900636420142	65.48523661871926
O	29.047126544692542	-10.512268579236848	63.8689226787504
O	29.567702776950007	-11.270552708946314	62.83981816199281
O	27.637539256472945	-10.104672524996225	63.72604533364258
O	27.438110426348644	-9.92143227320799	62.34748548565797
O	31.139074602464394	-6.939364490356445	63.10804960084501
O	31.011309023705177	-6.363360307611041	64.20545739280858
O	30.944993165311438	-6.0813585437378315	61.89221722855556
