73

O	-0.3757499864642857	-0.7143065922142853	3.9947883779642868
O	-3.6576184474642854	-0.04256931221428539	1.4180422279642864
O	-4.517834697464286	1.9116371627857147	2.3040331279642867
O	-1.3039333514642857	0.25542138778571466	3.3911596579642866
O	-2.1201380674642856	0.9705767417857147	4.027936777964286
O	-3.0814193174642854	5.562587737785714	-1.5480421820357138
O	-0.9683321028642856	5.363432527785714	-2.0697882820357134
O	-1.8581892124642856	3.822372697785715	-0.41625303803571356
O	-0.5839459814642857	3.4908382977857144	0.030973206964286404
O	-0.37646712446428565	2.2199556677857144	0.5592974779642864
O	0.9069208825357142	1.8469890047857147	0.9821908479642864
O	-1.4052235374642856	1.7385749607857148	1.3753558579642866
O	-1.2621930614642856	0.4519012397857147	1.9992314979642867
O	-2.6788707674642858	2.0514214537857147	0.9115406579642865
O	-3.771607947464286	1.3372453387857146	1.5027250279642863
O	-2.8937160574642857	3.2735548677857143	0.2850154739642864
O	-2.0288239974642854	4.955384097785715	-1.2965000440357137
O	6.681573872535714	5.569431357785715	-0.8289282080357135
O	5.537203792535714	2.3300624277857147	-2.4369625320357136
O	8.805507752535714	1.6734186367857147	-4.280551612035714
O	8.959660572535714	1.9658951467857146	2.5112615479642866
O	9.250110712535713	6.9932999177857145	6.816965167964286
O	3.6079337725357137	12.198301517785715	9.413590157964286
O	5.286218432535714	11.286002817785715	6.1332093679642865
O	1.7659421725357143	11.529201617785715	4.691939127964286
O	0.34781417253571445	8.732479367785714	6.870280087964286
O	0.8477056025357144	5.197335897785714	5.565946417964286
O	1.2712891725357143	3.281453647785715	8.805929347964288
O	8.246259972535714	2.8701502277857145	8.613937437964287
O	10.869124812535714	0.4425695577857147	7.331033007964286
O	11.566136312535715	-1.6195620022142851	4.221407347964286
O	7.085504962535714	-2.5498392022142857	8.037364927964287
O	4.371001612535714	-0.3252311222142854	6.595972677964286
O	3.657201202535714	-2.745440152214285	3.7396747379642865
O	6.0333378425357145	-5.044721732214286	1.8801334079642866
O	7.222214532535714	-6.864239212214286	5.669854497964286
O	4.0101138525357145	-6.079525132214285	7.4800340679642865
O	-4.401334957464286	-2.4228139622142857	12.282064287964287
O	-4.313891607464286	-11.232292482214284	10.233900787964288
O	-8.299197667464286	-5.220132062214286	9.468313357964288
O	-4.883600647464285	-4.199897652214285	8.206247147964287
O	-3.136809807464286	-7.325236502214286	6.955827307964286
O	-1.3559996414642856	-5.984066872214285	3.870301027964287
O	0.6930043725357142	-7.251821742214285	0.9552989379642863
O	1.4856697625357145	-6.454156622214286	-2.7110096220357134
O	4.042152912535714	-3.6062498722142857	-2.7133593320357137
O	5.799824532535714	-5.372704552214286	-5.558182292035714
O	-5.024233217464286	-9.360789682214284	1.8665819479642867
O	-7.055869577464286	-8.530727632214285	4.968155777964286
O	-10.692010107464286	-0.6869371022142854	2.0868705479642866
O	-8.760762517464286	-7.891248432214286	-4.197026282035714
O	-5.459612117464286	-6.232026682214285	-3.3419444520357136
O	-2.063731427464286	-4.742327112214285	-4.2237358620357135
O	-1.7680172314642857	-7.470888352214286	-6.841002032035714
O	-5.006665657464286	-6.128040512214286	-8.916266152035712
O	-6.888225747464286	-3.3632028322142853	-7.157477132035714
O	-10.523345867464286	-3.4281999122142857	-6.0436407620357135
O	-10.941843217464285	-0.3792636122142854	-3.8272532820357132
O	-14.703570487464287	-0.10104300221428542	-3.3061060420357133
O	-14.785509487464285	4.2358835977857145	-4.569302472035714
O	-11.028253987464286	3.9303768177857146	-4.454774292035714
O	-8.382106227464286	2.8368949877857146	-6.896848172035714
O	-4.637397997464285	2.5015771977857146	-7.366786182035714
O	-1.9684467844642857	-0.1413575822142854	-7.885694272035714
O	-1.2534215144642857	-0.6278768022142853	-11.575826812035713
O	0.9353243925357144	7.018093797785714	-8.869442132035713
O	1.6955513925357144	3.370208487785715	-8.189870212035714
O	3.0864218525357145	1.4590135937857147	-11.193263312035713
O	4.4658911925357145	-2.078754382214285	-11.039614012035713
O	6.2105508525357145	5.810741117785715	-8.622376672035713
O	4.953403772535714	11.110181937785715	-5.894195802035714
O	2.680328162535714	15.506715417785715	-3.1441026420357137
O	5.8638791725357144	13.611325417785716	0.8134481179642864
