30

O	-38.08818947710056	68.19320284109192	30.55154422000426
O	-39.616325866153126	62.33263506806967	34.49390967287235
O	-38.37916232988293	61.89697694302974	34.08194167356481
O	-37.74731952566993	62.93186353743958	33.480977547512346
O	-38.25378749598794	63.99257938536135	34.13848887837077
O	-38.64848784991446	65.29754625344121	33.86192105239176
O	-39.987740821371425	65.59716089561756	34.31159561426118
O	-40.0611765414578	65.6063119831521	35.667510234917785
O	-39.4970977516902	64.38973843188808	36.03420040265739
O	-39.103344091188156	63.4460638648572	35.10132954520236
O	-38.28447681516559	60.50403305882987	33.51826803091328
O	-37.14453210482314	62.97809757039823	32.18863339994297
O	-40.8869282551324	65.5763314343954	33.29655071676024
O	-40.67244590589194	61.70401153731064	35.23431458577266
O	-44.11000094880801	63.618916819922696	36.61824020665338
O	-43.17185904637098	63.127880334593364	37.51799295515062
O	-41.8519669241352	63.16520528981341	37.076259558391584
O	-41.631256427477666	62.65183111008769	35.815489697241325
O	-42.4136158813202	63.33916307204521	34.92933807688139
O	-43.64840528327113	63.85516440483897	35.32922741350786
O	-36.900394862875544	60.29132053133763	32.96975001895263
O	-36.96160992344686	64.39495530594698	31.707889352636254
O	-37.55194277817431	64.63838674082477	30.660268903792602
O	-35.62696564041121	64.81894576455451	31.83242844134187
O	-40.215037467700384	65.71488962208862	31.976655769208996
O	-39.292700586538686	66.78290164234635	32.185669540658225
O	-38.568940151478316	67.2329453409619	29.54075041274741
O	-37.25226342055883	69.4409479558042	30.06401193804916
O	-36.70394146707272	67.52590944213115	31.191648496993093
O	-39.45398435794233	68.14949428094035	31.69136140027915
