86

O	-2.5803461066924145	4.0017073909	0.6282310887827588
O	-3.5730063166924144	3.9290874109000002	1.547116738782759
O	-3.596624706692414	2.5709718849	1.8644670087827588
O	-2.6730746066924143	1.6124684395	1.562546098782759
O	-2.5580190166924144	1.6056899196999999	0.16086748278275875
O	-2.6952289366924145	2.9256500609	-0.3347912162172412
O	-0.9517210166924142	0.5423100609	1.1211098987827586
O	-1.5969111676924141	1.0863193859	2.150775128782759
O	-1.430793674292414	0.8300604009	-0.09387172021724122
O	-1.320288234692414	1.2774589808999999	3.524617638782759
O	-1.4078427278924142	2.7104174809	3.8485460487827585
O	-2.3419023346924144	3.3521370408999998	4.608580508782758
O	-2.098214085692414	4.5378423709	5.2937928587827585
O	-1.3289941426924141	5.4317154009	4.553715938782759
O	-0.6071088246924142	4.8898067909	3.5247972887827586
O	-0.5102671256924142	3.5334162909	3.226615768782759
O	0.5966242933075856	0.5334995909	1.2265621387827585
O	-1.4631476972924142	-0.04701516910000003	-1.1951396922172413
O	-1.3485491496924142	0.7425538428999999	-2.4716558412172414
O	-2.3169296466924143	0.7364119338999999	-3.486069421217241
O	-0.5610876496924142	1.6883869330999999	-2.397428371217241
O	-1.5031390767924142	4.7528795209	0.4388824387827587
O	-0.9844416946924142	4.7796993209	-0.9236552052172412
O	-2.082442586692414	4.5851666109	-1.8601189012172412
O	-2.127702009692414	3.9644872508999995	-3.181157221217241
O	-2.110414905692414	4.8112466109	-4.371871681217241
O	-0.9772855016924142	5.3718747109	-4.492357641217241
O	-2.584127966692414	4.2009271209	-5.531283051217241
O	3.3825178633075854	6.931367530899999	4.688574778782758
O	4.792404683307586	6.8654019509	8.187374028782758
O	7.957306973307586	5.1695909109	6.899850928782758
O	5.8447187533075855	2.6547434659	5.031236048782758
O	3.6516299633075855	1.9453443509	8.060525358782758
O	6.670080093307585	1.1428056799	10.156934838782758
O	8.062803853307585	-1.1031313091	7.438857868782758
O	4.759494003307585	-3.0292238191000003	7.446661588782758
O	-0.9692916056924141	-2.1972054891	12.061588738782758
O	-1.2240779076924142	-1.2829937391	8.287748248782759
O	-3.796827156692414	1.4543360859	8.13759052878276
O	-6.622534046692414	-0.8711453491000001	9.175652128782758
O	-5.254771476692414	-4.2371857091	8.065736198782758
O	-4.147527436692414	-3.0226855191000004	4.597109808782759
O	-5.8505830866924144	0.2505229809	4.007020538782759
O	-8.967811426692414	-1.1890720691	2.349136628782759
O	-7.830304966692414	-4.7591442891	1.624295288782759
O	-9.208678136692415	-6.2398388091	-1.5914332012172412
O	-9.686758986692414	-4.2431276491	-4.786209761217242
O	-6.306675156692414	-2.5304539291	-5.011604551217242
O	-4.978962556692414	-1.9576432791000002	-1.5010562692172411
O	-5.603230476692414	1.6111042416999999	-0.38446245921724126
O	-6.7117217366924145	4.4066666909	-2.7020921612172413
O	-7.713072756692414	3.5000922908999996	-6.266230351217241
O	-7.942466606692414	0.029041690899999972	-7.651633791217241
O	-1.933461253692414	-9.761956569099999	-0.8359673266172413
O	-4.109080386692414	-7.6572059191	-3.127650211217241
O	1.066610813307586	-7.0500618291	-3.861952641217241
O	-0.9664751456924142	-3.7696724691000005	-3.8420438812172413
O	-1.4613733125324142	-3.7991070891000005	-7.627082431217241
O	2.2799510233075857	-3.7668830191000007	-7.9434458112172415
O	2.8015271233075856	-1.1109337591000001	-5.420349331217242
O	0.046543393307585834	1.1201097568999998	-6.933709241217241
O	2.0547115533075857	0.5982848708999999	-10.29118578121724
O	5.354452113307586	1.5551401229	-8.68111383121724
O	3.851384673307586	4.7429067608999995	-7.217815451217241
O	2.3784949433075857	5.5744267309	-10.644276971217241
O	4.518977153307586	10.2898981709	-10.037023391217241
O	7.058736223307586	12.679457730900001	-4.549348831217241
O	5.424781363307586	9.5499344809	-3.076099101217241
O	3.079040153307586	9.829963730900001	-0.13288406321724122
O	4.793332753307586	12.7905301309	1.4801710787827589
O	8.409837813307586	12.1798013309	0.46775606878275877
O	15.732287513307586	2.9173723909	5.822228388782759
O	8.578101313307585	0.36971239089999997	-3.878193361217241
O	7.707040523307586	0.29947541089999996	-0.2107105332172412
O	10.188103313307586	-2.4118804591000007	0.6922513787827588
O	8.932595613307587	-4.7566240091	-2.077784031217241
O	5.341846473307585	-4.3738581591	-0.9253922362172412
O	6.261514663307586	-4.8462396791	2.783572308782759
O	5.3301471433075855	-9.1147822691	-0.3446516102172412
O	2.716339703307586	-8.8357892691	2.4057208587827588
O	-9.859756396692415	-11.329245069099999	6.744442158782759
O	-10.030958086692415	-6.6173436490999995	4.9061564887827585
O	-13.733386286692415	-5.4608957491000005	0.9821536487827588
O	-15.973467986692413	-3.0863331491000006	-0.9881935712172413
O	-14.419064686692415	-2.0425489391000005	-4.303872341217241
O	6.275005523307586	15.996180130900001	-5.654877401217242
