85

O	-1.869638050812069	3.893640917512069	-7.140500091722413
O	-2.0500060708120693	3.076959467512069	-6.014244111722413
O	-1.257016805812069	1.9279994275120687	-6.0998352317224125
O	-0.12793826981206907	1.889992017512069	-6.855632291722413
O	0.452412212187931	3.132580757512069	-7.023151081722413
O	-0.517373923512069	4.050118307512069	-7.427601991722413
O	0.684556449187931	0.6188762275120688	-6.783486221722413
O	1.161916789187931	0.9319936573120688	-5.441578581722413
O	2.145604529187931	1.847032804512069	-5.354003331722414
O	2.757918469187931	1.7669630715120688	-4.076158261722413
O	1.890981149187931	1.5914921895120688	-3.0728738117224133
O	0.6261935491879309	1.548525625512069	-3.0697538927224133
O	0.31059282018793094	1.5121276415120688	-4.444716291722413
O	-0.3694108218120691	0.7255755145120688	-2.3583035397224132
O	-1.619039810812069	0.8805203952420688	-3.100882918722413
O	-2.088677010812069	-0.46769230248793126	-3.306947931722413
O	-0.932570253812069	-0.9502583024879311	-4.015941341722414
O	-0.12138927981206904	-1.678350702487931	-2.991095024722413
O	0.20760074918793098	-0.5524853324879312	-2.169764853622413
O	0.9207073891879309	-2.704568212487931	-3.402169901722413
O	1.7904862491879312	-3.452553612487931	-2.502692506722413
O	2.757703129187931	-4.410981672487932	-3.034936056722413
O	3.8627631191879312	-4.529414262487932	-2.3988316997224133
O	2.461098819187931	-5.604805372487932	-3.652623781722413
O	2.510660979187931	0.7182120515120688	-1.9500496657224131
O	3.055610649187931	1.5237217965120688	-1.206642731722413
O	2.957005749187931	-0.5900851024879311	-2.042115996722413
O	-5.80801863081207	-0.5158213424879311	-7.010062611722413
O	-8.73523655081207	1.8090623845120688	-7.795280711722413
O	-10.71128053081207	0.38565654051206877	-4.936462971722413
O	-7.76300010081207	0.8053964008120689	-2.635890622722413
O	-7.072352680812069	4.400399807512069	-3.717877941722413
O	-10.64350313081207	5.353409997512069	-2.918835561722413
O	-10.43763669081207	3.625751487512069	0.45428287827758673
O	-7.327933170812069	5.704354737512069	1.242826468277587
O	-4.401659090812069	11.20492839751207	-2.7192400157224133
O	-2.579647320812069	7.887343367512068	-2.153999695022413
O	-0.47248677991206905	7.438624647512069	-5.225093471722413
O	1.805431419187931	10.334793527512069	-4.359593131722413
O	1.410492609187931	10.470539987512069	-0.574264941722413
O	1.891525529187931	6.735889367512068	-0.04687568172241319
O	3.384664659187931	5.415211977512069	-3.258412801722413
O	7.055875459187931	5.839686607512069	-2.170418378522413
O	6.658079039187931	6.362963327512069	1.5570964282775868
O	9.47374130918793	4.878280597512068	3.664604898277587
O	11.147905169187931	1.535292030512069	2.9035175982775865
O	8.089760339187931	-0.6596102324879313	2.359588278277587
O	5.361331349187931	1.4961403255120689	1.0367638182775867
O	5.43307381918793	1.1101981065120687	-2.838079775722413
O	6.684084129187931	-1.7779578324879313	-4.841328951722414
O	9.27049001918793	-3.8250888124879308	-2.991360402722413
O	10.46890546918793	-3.340646262487931	0.526982718277587
O	2.941618609187931	4.414810967512069	8.458680678277586
O	5.74865008918793	2.3973535175120686	6.879232658277587
O	1.400457559187931	-0.36795878248793124	7.950027878277586
O	2.933569559187931	-1.085450582487931	4.555561478277587
O	5.059266829187931	-3.9772484624879314	5.733878928277587
O	1.8637650891879312	-5.619778422487932	6.880144598277587
O	0.0934809011879309	-4.947187852487931	3.627711618277587
O	3.042589279187931	-6.278609832487931	1.6275911882775866
O	2.753097699187931	-9.48333680248793	3.887380588277587
O	-1.000134202812069	-9.82172040248793	3.354445278277587
O	-0.6104165418120691	-9.56085490248793	-0.4432172517224131
O	2.233583209187931	-12.089670402487931	-0.3970228217224132
O	-0.43550343361206906	-14.55169060248793	-4.201543731722413
O	-5.317063240812069	-12.04872450248793	-7.707759371722413
O	-4.290651100812069	-8.86290383248793	-5.918500811722414
O	-3.600156100812069	-5.720352522487931	-7.9487775117224135
O	-6.1596519208120695	-6.367821602487932	-10.623962851722412
O	-8.808871820812069	-8.26131057248793	-8.682262551722413
O	-16.859181730812068	-2.363817382487931	-0.40138729172241305
O	-5.889553830812069	-6.470557692487931	3.3610904282775866
O	-6.727345890812069	-3.132540242487931	1.8154076582775867
O	-9.11916368081207	-2.088694732487931	4.582380238277587
O	-6.5508837008120695	-2.819924092487931	7.301067178277586
O	-3.920077090812069	-0.7503233124879313	5.621901488277587
O	-6.34173305081207	2.142534857512069	4.886502268277587
O	-3.783014300812069	1.880027008512069	9.561818778277587
O	-2.701956160812069	4.931086657512068	7.604417828277587
O	6.743441509187931	14.21089899751207	4.990550688277587
O	7.302360419187931	10.674460197512069	1.406032408277587
O	12.27746236918793	8.306921977512069	0.8362091582775868
O	14.95914896918793	6.446943777512068	-1.1451859117224132
O	14.946920569187931	2.6880885375120687	-0.5125890317224131
O	-4.36666050081207	-14.097448102487931	-10.492409291722414
