29

O	-41.50945840071361	60.952500020667074	35.53794030561767
O	-38.15454090248185	64.31201924476647	32.55542313658576
O	-37.768384143900185	63.204491059225596	30.687376799740857
O	-42.8555920950217	60.77732955966476	35.657649072321846
O	-39.024536294301065	69.22228354232774	31.68209258744981
O	-43.52022560587437	61.10770385421145	34.528821315610266
O	-42.868455258957	61.322989358117376	33.34480003313424
O	-41.519269985556974	61.46229133326343	33.260571796266774
O	-40.85982044557796	61.36709777176191	34.4326499089295
O	-39.420802046285175	61.29553885402329	34.49955698220777
O	-39.16603663400453	60.030230952036256	33.66411381236077
O	-39.50389075772565	60.68348267287686	32.3013588737863
O	-38.79752535223349	62.041873934975115	32.307432337790445
O	-37.52959438540341	61.77533697245164	33.144090170229276
O	-36.52531587650289	62.556552202621134	32.381161304425014
O	-37.16522893728117	63.73264367471511	31.68978882375646
O	-39.02333613107524	65.19040747396517	31.76331654279758
O	-40.09920170786795	65.52701840097818	32.730991017327845
O	-40.314321930477774	64.54048740188422	33.82637691062251
O	-41.44167826390262	64.50933755484436	34.75893622128903
O	-41.47328885257389	64.13844789724605	36.10296293983171
O	-42.570580261850985	63.830736368425534	36.85696831607026
O	-43.81274451251673	63.95821837710687	36.32477350163304
O	-43.878798118403665	64.3177029984866	35.023092217997316
O	-42.711937876270305	64.35043944746218	34.32084583349331
O	-38.03778600857441	66.2309328019854	31.33381875489854
O	-38.46093422546871	67.36288695926541	30.474739115397377
O	-38.128221626905386	68.69728213016539	30.99308174700011
O	-37.13076366291139	69.52676488985645	30.54148065812499
