28

O	-40.30647951636685	65.22572688583202	34.15122285953212
O	-40.36387617102845	65.02540031348309	35.48971965827052
O	-39.51750292610544	63.93159893656035	35.67137230013942
O	-39.0017460805331	63.091357080936355	34.727540546990724
O	-38.28038228100998	63.901646483323404	33.83252544500116
O	-38.93874361214153	65.14673732582399	33.68051217587842
O	-38.638799281613416	61.92970273453406	33.047662022691206
O	-39.35041083020425	61.92872263405389	34.17284423274455
O	-38.005726318192124	63.06975318809238	32.75102286434495
O	-40.34666158568306	61.095571809233135	34.733060235220194
O	-41.55353077127847	61.89104404408016	35.00992872251089
O	-42.078517835872084	62.24181495761368	36.219586554857585
O	-43.427180307901246	62.511439727001516	36.42745448686338
O	-43.990080233355144	63.24411048603712	35.38593665467558
O	-43.31038835398814	63.21406072246029	34.1982612347542
O	-42.178043425970785	62.45007683350738	33.92954334655407
O	-39.29421644654939	61.21337365833023	31.836930015683095
O	-36.74304501304453	63.17453091409817	32.13640344209088
O	-36.681414028862534	64.44056444550274	31.32436511194354
O	-35.74772151978026	65.464601365612	31.539771950371136
O	-37.732313772723714	64.69914286337217	30.73364309951572
O	-41.18269364671244	65.39555939619095	33.16944224166505
O	-40.66520077814502	66.03594261889461	31.96595332761223
O	-39.58318783104126	66.94004315008313	32.329633681526445
O	-38.3866903909225	67.35695651882486	31.60367869327826
O	-38.37616482123536	68.64899487663095	30.92130982140181
O	-39.16998499527192	68.62568913507982	29.930295516268203
O	-37.10781919190476	69.15197705356239	30.63946418427329
