87

O	-4.0859509019499995	3.112231363206897	1.4596216310862073
O	-1.84995064695	-1.0699315067931034	-1.5315430399137928
O	0.015724918050000092	-1.582344786793103	-0.47228851091379265
O	-4.95053956195	3.2054980432068967	2.5088492410862075
O	-4.354933631950001	-5.205883146793104	-3.031295678913793
O	-4.9073050919500005	2.1184642532068967	3.309864411086207
O	-3.91199180195	1.1848817802068967	3.2057776610862074
O	-3.04784555195	1.1421416432068967	2.157815411086207
O	-3.23557501195	2.0943898232068965	1.2220357010862073
O	-2.29414658695	2.314132733206897	0.15161673508620732
O	-1.02462164195	2.6320000832068966	0.9585501610862073
O	-0.7936622419500001	1.1807029502068966	1.4467905010862074
O	-1.0063758519500001	0.2922225102068967	0.2181444080862074
O	-0.5190226519500001	1.1789449952068967	-0.9458561549137927
O	0.18749245804999992	0.1763666752068967	-1.7804854889137927
O	-0.42099345195000004	-1.192159236793103	-1.6144809449137927
O	-2.40380618095	-2.320377316793103	-0.9991585829137927
O	-3.82744403195	-1.9630129967931031	-0.7695207024137927
O	-4.10388193195	-0.5141326067931032	-0.5604320119137927
O	-5.359186411950001	0.07195221020689668	-0.08896119291379267
O	-5.96170114195	1.2805740782068966	-0.43706371791379267
O	-6.9586377519500004	1.9368273032068966	0.22829936308620735
O	-7.53362160195	1.3652932822068968	1.3169671010862072
O	-7.01364991195	0.18634498320689669	1.7264506610862072
O	-5.8643801819500005	-0.23450554079310326	1.1282463410862074
O	-2.0278830068500002	-3.270454696793103	-2.0920927489137924
O	-2.3767875369500002	-4.708301676793104	-1.9958942789137926
O	-3.11450493195	-5.2491493767931034	-3.1462177289137925
O	-2.61367227595	-6.065834676793104	-4.130646168913793
O	-6.15043163195	-1.0023532067931034	6.584230651086208
O	-6.76740768195	1.3127499542068968	9.564405451086207
O	-3.55083435195	0.1734156322068967	11.228598451086208
O	-1.68350138495	0.7052660842068967	7.976475591086208
O	-3.1016019219500004	4.2386246132068965	7.499139681086207
O	-1.98055727285	5.278426133206897	10.855329651086208
O	1.46187629805	3.844235653206897	10.205906151086207
O	1.6299363380499998	5.904186493206896	6.986481341086208
O	-3.0834597619500004	11.071646553206897	4.6027341410862075
O	-2.4938132579500003	7.805573073206896	2.743998321086208
O	-5.8604201819499995	7.1117998832068965	1.0616043010862073
O	-5.44329193195	9.961123113206897	-1.3683104829137926
O	-1.66548495895	10.387757753206897	-1.4686514159137927
O	-0.88410757195	6.712309173206896	-1.9599620989137927
O	-4.16563501195	4.946349843206896	-2.890749698913793
O	-3.64408529195	5.3522633432068965	-6.673054028913793
O	0.044407418050000036	6.303604313206896	-6.886226478913793
O	1.8977122880499997	4.9583243932068966	-9.921249638913793
O	1.27032486805	1.5382741322068967	-11.447876048913793
O	1.33753749805	-0.6171031567931032	-8.300922348913792
O	0.08374671805	1.4754525092068969	-5.427114688913792
O	-3.5144706019500003	0.6780186832068967	-4.518202668913792
O	-5.37791514195	-2.312701206793103	-5.955879168913793
O	-3.74940462195	-4.326009636793104	-8.829983588913793
O	-0.4658370619500001	-3.5182121367931036	-10.420354448913793
O	7.60538970805	5.063373403206897	-4.099853478913793
O	5.86636161805	2.8672062532068967	-6.665653708913792
O	7.644421008049999	0.29106581720689667	-2.4413855189137927
O	4.03121393805	-0.7647981667931033	-3.4439800789137927
O	5.41832298805	-3.559725416793103	-5.721726088913792
O	7.077091048050001	-5.034801396793104	-2.684566258913793
O	4.02297481805	-4.5876921467931036	-0.48820631091379263
O	1.8676658180499999	-6.233127286793104	-3.1570350489137926
O	4.37351448805	-9.168342486793103	-3.0982705889137927
O	4.37310922805	-9.477107646793103	0.6950747210862074
O	0.5279872880499998	-9.518344046793104	0.7973761610862073
O	0.46500636805000006	-12.134225346793103	-1.9653256389137927
O	-2.8083625209500003	-14.803305346793103	1.1216361810862074
O	-5.84041667195	-12.490661346793102	6.3779697810862075
O	-4.4628462219500005	-9.180519246793104	5.075705631086207
O	-6.75380786195	-6.257723576793103	4.581908231086207
O	-9.11642806195	-7.089300656793104	7.437039931086208
O	-6.72218277195	-8.721296196793103	9.884951251086207
O	1.9715286280499997	-2.001684726793103	16.794131051086207
O	4.7707350780499995	-6.053061416793104	5.526596001086207
O	2.9868444080499996	-2.818304206793103	6.4669647310862075
O	5.967333258049999	-1.4913945067931031	8.494275951086207
O	8.35598340805	-2.0149276267931033	5.558511601086208
O	6.09425875805	-0.1916823727931033	3.141434421086207
O	5.4423239380499995	2.6708157232068968	5.599332711086207
O	9.74423080805	2.767170563206897	2.449024611086207
O	7.39582974805	5.6077831532068965	1.6158119010862075
O	2.7751973880499996	14.416180253206898	-7.576139098913792
O	-0.54641921195	10.580962453206897	-7.599200028913793
O	-1.6366298809500002	8.011096273206897	-12.346978648913792
O	-3.7847274419500003	5.910011693206896	-14.687707048913792
O	-2.74264872395	2.2512219432068967	-14.736391248913792
O	-8.506136151949999	-14.827884346793104	5.854307001086208
