75

O	2.2581197717438597	0.02157218676491246	3.028733440350877
O	3.2950002717438593	-0.2808211532350876	2.151851210350877
O	3.033596481743859	-0.44456187423508764	0.8211327603508771
O	2.105493611743859	0.4297930527649124	0.3448039193508771
O	1.2851843017438596	1.1257518227649124	1.1727006303508771
O	1.5196852817438595	1.0815973007649125	2.504176490350877
O	3.1535703317438593	-1.3113360942350876	-0.22305781964912286
O	2.6871598717438596	-0.7932623542350876	-1.3337217636491228
O	2.095590991743859	0.3279948877649124	-0.9680867486491229
O	0.7222117817438594	2.321468185764912	0.626964320350877
O	0.23362393174385931	2.3087462857649124	-0.7236437376491229
O	1.5150329817438595	3.3058224157649123	0.8125698603508771
O	2.0037540917438594	-1.6929025842350875	-2.320602949649123
O	1.4030990317438594	-0.7877797742350876	-3.167644359649123
O	0.20700800874385938	-1.4764255642350874	-3.647518119649123
O	-0.21335853125614057	-1.4831242342350874	-2.1404734696491228
O	0.8789902617438594	-2.4590531642350877	-1.652759579649123
O	3.073156471743859	-2.4509959842350875	-2.917276689649123
O	7.173532381743859	-5.671559384235088	-11.003366369649124
O	5.640314231743859	-3.4816570142350876	-15.901005969649123
O	2.8535154717438598	-4.639157174235088	-13.580706769649122
O	3.0432351617438593	-1.3285263442350876	-11.738052469649123
O	-2.2865366182561404	-1.0387403542350875	-12.641761569649123
O	-4.746689878256141	4.670524745764912	8.229786360350877
O	-3.0036967382561404	6.252427375764912	5.271091250350877
O	-3.283832038256141	5.223421145764913	1.639132310350877
O	-1.5049905872561404	6.564355005764913	-4.823594189649123
O	-0.8005414796561406	8.488655835764913	-8.052459769649122
O	-10.48409656825614	5.048107105764913	-6.606636609649123
O	-9.86660232825614	0.7637929961649124	-3.272798259649123
O	-9.51850386825614	-2.5587729642350876	-5.096615789649123
O	-7.571338738256141	-5.817153274235087	-4.894990259649123
O	-5.428033408256141	-6.854004974235087	-7.8755006696491225
O	5.4986423017438595	-10.484807124235088	-7.441882069649123
O	5.731320161743859	-7.158131674235088	-5.656968999649123
O	3.03859651174386	-7.820558674235087	-3.020275239649123
O	4.895166661743859	-8.718221494235086	0.17334269635087712
O	1.7309522817438594	-10.057117524235087	1.770358650350877
O	-0.3628735112561406	-11.037136524235088	-1.2375940616491228
O	-3.033174648256141	-9.198966974235088	-3.194968569649123
O	-4.924927748256141	-6.993284294235087	-0.7615977816491228
O	-5.419181898256141	-3.4005887342350873	0.3720466073508772
O	-2.2074833082561405	-1.8718003042350877	1.785064650350877
O	-2.1435562582561403	0.9167486247649124	4.476750790350877
O	0.3390483717438595	2.7256897657649124	6.776795790350877
O	0.23569663174385935	4.521168845764913	10.025648230350876
O	3.0368336417438595	6.872375575764913	9.008776990350878
O	2.3705333017438592	9.327880815764912	6.1755041803508774
O	6.009188861743859	8.877175615764912	5.113539450350877
O	5.346735381743859	5.305083725764913	3.953156250350877
O	2.2162483117438594	6.251316185764912	2.034986070350877
O	3.456564681743859	9.531219195764914	0.580094320350877
O	6.047336231743859	7.557627125764913	-1.3887178286491229
O	3.2199485217438593	6.165332015764912	-3.5287599696491228
O	1.9613633917438593	9.588442735764913	-4.663801539649123
O	4.861874471743859	9.767507205764913	-7.095790409649123
O	5.346121191743859	13.541644775764913	-6.969160979649123
O	-0.18058311325614063	14.774394575764912	-4.526779409649123
O	-3.3060868082561408	13.141584275764913	-3.140670629649123
O	-3.4874057482561405	10.847097275764913	-0.14234597364912288
O	-6.314856248256141	9.014044635764913	1.543857100350877
O	7.134607871743859	-11.087823424235086	3.184461020350877
O	4.70576677174386	-13.984517024235087	2.957819700350877
O	-8.91769973825614	-10.623895424235087	9.852272630350877
O	-5.866001208256141	-8.699569254235087	8.706371830350877
O	-2.102532718256141	-8.785545584235088	8.399267320350877
O	10.44831024174386	-3.3468822642350875	6.963774840350877
O	11.22236754174386	0.2717193437649124	7.728040330350877
O	7.551877761743859	0.9610423597649125	8.461174350350877
O	4.426739871743859	-0.9217501642350876	9.486621230350877
O	1.8680425617438592	-1.8981911642350875	6.853675640350877
O	-1.6521794792561406	-3.2350987142350878	7.348665150350877
O	-3.2620104882561405	-5.461680584235088	4.759781720350877
O	-6.951061848256141	-6.401079644235088	4.469883730350877
O	-12.78400375825614	-4.3941608342350875	0.15506096435087718
